MODEL 1
REMARK VINA RESULT:      -5.8      0.000      0.000
REMARK  3 active torsions:
REMARK  status: ('A' for Active; 'I' for Inactive)
REMARK    1  A    between atoms: C_1  and  O_2 
REMARK    2  A    between atoms: O_2  and  C_3 
REMARK    3  A    between atoms: C_6  and  N_8 
ROOT
HETATM    1  C   UNL     1      64.055   9.312   4.998  1.00  0.00     0.174 C 
HETATM    2  N   UNL     1      63.838   8.379   4.032  1.00  0.00    -0.345 N 
ATOM      3  HN  UNL     1      64.412   7.539   3.961  1.00  0.00     0.167 HD
HETATM    4  C   UNL     1      63.209  10.405   5.241  1.00  0.00     0.077 C 
HETATM    5  C   UNL     1      62.831   8.621   3.174  1.00  0.00     0.090 C 
HETATM    6  C   UNL     1      62.185  10.614   4.315  1.00  0.00     0.035 C 
HETATM    7  C   UNL     1      61.994   9.716   3.266  1.00  0.00     0.019 C 
ENDROOT
BRANCH   1   8
HETATM    8  O   UNL     1      65.170   9.167   5.825  1.00  0.00    -0.288 OA
BRANCH   8   9
HETATM    9  C   UNL     1      65.769   7.924   5.838  1.00  0.00     0.116 A 
HETATM   10  C   UNL     1      65.211   6.812   6.473  1.00  0.00     0.150 A 
HETATM   11  F   UNL     1      64.008   6.884   7.065  1.00  0.00    -0.203 F 
HETATM   12  C   UNL     1      65.885   5.595   6.502  1.00  0.00     0.045 A 
HETATM   13  C   UNL     1      67.106   5.465   5.842  1.00  0.00     0.003 A 
HETATM   14  C   UNL     1      67.638   6.551   5.144  1.00  0.00     0.003 A 
HETATM   15  C   UNL     1      66.970   7.782   5.142  1.00  0.00     0.040 A 
ENDBRANCH   8   9
ENDBRANCH   1   8
BRANCH   4  16
HETATM   16  N   UNL     1      63.482  11.400   6.200  1.00  0.00    -0.396 N 
HETATM   17  H   UNL     1      63.545  12.343   5.926  1.00  0.00     0.156 HD
HETATM   18  H   UNL     1      63.609  11.152   7.144  1.00  0.00     0.156 HD
ENDBRANCH   4  16
TORSDOF 3
ENDMDL
MODEL 2
REMARK VINA RESULT:      -5.8      1.237      1.746
REMARK  3 active torsions:
REMARK  status: ('A' for Active; 'I' for Inactive)
REMARK    1  A    between atoms: C_1  and  O_2 
REMARK    2  A    between atoms: O_2  and  C_3 
REMARK    3  A    between atoms: C_6  and  N_8 
ROOT
HETATM    1  C   UNL     1      64.125   9.238   5.015  1.00  0.00     0.174 C 
HETATM    2  N   UNL     1      63.886   8.299   4.061  1.00  0.00    -0.345 N 
ATOM      3  HN  UNL     1      64.453   7.454   3.988  1.00  0.00     0.167 HD
HETATM    4  C   UNL     1      63.289  10.338   5.265  1.00  0.00     0.077 C 
HETATM    5  C   UNL     1      62.865   8.539   3.220  1.00  0.00     0.090 C 
HETATM    6  C   UNL     1      62.250  10.545   4.356  1.00  0.00     0.035 C 
HETATM    7  C   UNL     1      62.035   9.639   3.318  1.00  0.00     0.019 C 
ENDROOT
BRANCH   1   8
HETATM    8  O   UNL     1      65.254   9.094   5.824  1.00  0.00    -0.288 OA
BRANCH   8   9
HETATM    9  C   UNL     1      65.789   7.825   5.914  1.00  0.00     0.116 A 
HETATM   10  C   UNL     1      66.938   7.427   5.224  1.00  0.00     0.150 A 
HETATM   11  F   UNL     1      67.629   8.297   4.471  1.00  0.00    -0.203 F 
HETATM   12  C   UNL     1      67.402   6.118   5.308  1.00  0.00     0.045 A 
HETATM   13  C   UNL     1      66.747   5.204   6.133  1.00  0.00     0.003 A 
HETATM   14  C   UNL     1      65.640   5.611   6.881  1.00  0.00     0.003 A 
HETATM   15  C   UNL     1      65.161   6.922   6.772  1.00  0.00     0.040 A 
ENDBRANCH   8   9
ENDBRANCH   1   8
BRANCH   4  16
HETATM   16  N   UNL     1      63.585  11.339   6.210  1.00  0.00    -0.396 N 
HETATM   17  H   UNL     1      64.252  11.170   6.914  1.00  0.00     0.156 HD
HETATM   18  H   UNL     1      63.124  12.207   6.167  1.00  0.00     0.156 HD
ENDBRANCH   4  16
TORSDOF 3
ENDMDL
MODEL 3
REMARK VINA RESULT:      -5.7      2.098      5.057
REMARK  3 active torsions:
REMARK  status: ('A' for Active; 'I' for Inactive)
REMARK    1  A    between atoms: C_1  and  O_2 
REMARK    2  A    between atoms: O_2  and  C_3 
REMARK    3  A    between atoms: C_6  and  N_8 
ROOT
HETATM    1  C   UNL     1      66.058   7.744   6.303  1.00  0.00     0.174 C 
HETATM    2  N   UNL     1      65.327   7.120   7.266  1.00  0.00    -0.345 N 
ATOM      3  HN  UNL     1      64.410   7.466   7.549  1.00  0.00     0.167 HD
HETATM    4  C   UNL     1      67.248   7.232   5.763  1.00  0.00     0.077 C 
HETATM    5  C   UNL     1      65.874   6.026   7.825  1.00  0.00     0.090 C 
HETATM    6  C   UNL     1      67.776   6.100   6.387  1.00  0.00     0.035 C 
HETATM    7  C   UNL     1      67.085   5.490   7.434  1.00  0.00     0.019 C 
ENDROOT
BRANCH   1   8
HETATM    8  O   UNL     1      65.590   8.955   5.790  1.00  0.00    -0.288 OA
BRANCH   8   9
HETATM    9  C   UNL     1      64.443   8.896   5.024  1.00  0.00     0.116 A 
HETATM   10  C   UNL     1      63.457   9.886   5.044  1.00  0.00     0.150 A 
HETATM   11  F   UNL     1      63.608  10.998   5.781  1.00  0.00    -0.203 F 
HETATM   12  C   UNL     1      62.295   9.749   4.292  1.00  0.00     0.045 A 
HETATM   13  C   UNL     1      62.133   8.639   3.464  1.00  0.00     0.003 A 
HETATM   14  C   UNL     1      63.144   7.679   3.383  1.00  0.00     0.003 A 
HETATM   15  C   UNL     1      64.301   7.807   4.163  1.00  0.00     0.040 A 
ENDBRANCH   8   9
ENDBRANCH   1   8
BRANCH   4  16
HETATM   16  N   UNL     1      68.030   7.920   4.815  1.00  0.00    -0.396 N 
HETATM   17  H   UNL     1      68.537   8.720   5.083  1.00  0.00     0.156 HD
HETATM   18  H   UNL     1      68.069   7.601   3.885  1.00  0.00     0.156 HD
ENDBRANCH   4  16
TORSDOF 3
ENDMDL
MODEL 4
REMARK VINA RESULT:      -5.4      1.869      5.129
REMARK  3 active torsions:
REMARK  status: ('A' for Active; 'I' for Inactive)
REMARK    1  A    between atoms: C_1  and  O_2 
REMARK    2  A    between atoms: O_2  and  C_3 
REMARK    3  A    between atoms: C_6  and  N_8 
ROOT
HETATM    1  C   UNL     1      64.616   7.633   6.134  1.00  0.00     0.174 C 
HETATM    2  N   UNL     1      65.669   8.491   6.070  1.00  0.00    -0.345 N 
ATOM      3  HN  UNL     1      65.541   9.501   6.133  1.00  0.00     0.167 HD
HETATM    4  C   UNL     1      64.741   6.237   6.210  1.00  0.00     0.077 C 
HETATM    5  C   UNL     1      66.887   7.942   5.920  1.00  0.00     0.090 C 
HETATM    6  C   UNL     1      66.027   5.720   6.039  1.00  0.00     0.035 C 
HETATM    7  C   UNL     1      67.115   6.580   5.888  1.00  0.00     0.019 C 
ENDROOT
BRANCH   1   8
HETATM    8  O   UNL     1      63.325   8.163   6.157  1.00  0.00    -0.288 OA
BRANCH   8   9
HETATM    9  C   UNL     1      62.911   8.825   5.019  1.00  0.00     0.116 A 
HETATM   10  C   UNL     1      62.655  10.198   4.982  1.00  0.00     0.150 A 
HETATM   11  F   UNL     1      62.861  10.970   6.061  1.00  0.00    -0.203 F 
HETATM   12  C   UNL     1      62.187  10.805   3.821  1.00  0.00     0.045 A 
HETATM   13  C   UNL     1      62.023  10.047   2.662  1.00  0.00     0.003 A 
HETATM   14  C   UNL     1      62.345   8.688   2.669  1.00  0.00     0.003 A 
HETATM   15  C   UNL     1      62.789   8.076   3.848  1.00  0.00     0.040 A 
ENDBRANCH   8   9
ENDBRANCH   1   8
BRANCH   4  16
HETATM   16  N   UNL     1      63.641   5.357   6.207  1.00  0.00    -0.396 N 
HETATM   17  H   UNL     1      63.497   4.748   6.967  1.00  0.00     0.156 HD
HETATM   18  H   UNL     1      63.017   5.353   5.446  1.00  0.00     0.156 HD
ENDBRANCH   4  16
TORSDOF 3
ENDMDL
MODEL 5
REMARK VINA RESULT:      -5.3      1.346      2.192
REMARK  3 active torsions:
REMARK  status: ('A' for Active; 'I' for Inactive)
REMARK    1  A    between atoms: C_1  and  O_2 
REMARK    2  A    between atoms: O_2  and  C_3 
REMARK    3  A    between atoms: C_6  and  N_8 
ROOT
HETATM    1  C   UNL     1      63.160   8.577   5.064  1.00  0.00     0.174 C 
HETATM    2  N   UNL     1      63.522   9.675   5.780  1.00  0.00    -0.345 N 
ATOM      3  HN  UNL     1      64.161   9.610   6.572  1.00  0.00     0.167 HD
HETATM    4  C   UNL     1      62.413   8.623   3.876  1.00  0.00     0.077 C 
HETATM    5  C   UNL     1      62.994  10.850   5.393  1.00  0.00     0.090 C 
HETATM    6  C   UNL     1      61.882   9.865   3.525  1.00  0.00     0.035 C 
HETATM    7  C   UNL     1      62.171  10.994   4.293  1.00  0.00     0.019 C 
ENDROOT
BRANCH   1   8
HETATM    8  O   UNL     1      63.578   7.322   5.511  1.00  0.00    -0.288 OA
BRANCH   8   9
HETATM    9  C   UNL     1      64.936   7.081   5.484  1.00  0.00     0.116 A 
HETATM   10  C   UNL     1      65.705   6.901   6.637  1.00  0.00     0.150 A 
HETATM   11  F   UNL     1      65.137   6.895   7.854  1.00  0.00    -0.203 F 
HETATM   12  C   UNL     1      67.082   6.715   6.554  1.00  0.00     0.045 A 
HETATM   13  C   UNL     1      67.697   6.651   5.305  1.00  0.00     0.003 A 
HETATM   14  C   UNL     1      66.927   6.758   4.144  1.00  0.00     0.003 A 
HETATM   15  C   UNL     1      65.546   6.972   4.234  1.00  0.00     0.040 A 
ENDBRANCH   8   9
ENDBRANCH   1   8
BRANCH   4  16
HETATM   16  N   UNL     1      61.988   7.474   3.181  1.00  0.00    -0.396 N 
HETATM   17  H   UNL     1      61.633   6.702   3.678  1.00  0.00     0.156 HD
HETATM   18  H   UNL     1      62.048   7.443   2.199  1.00  0.00     0.156 HD
ENDBRANCH   4  16
TORSDOF 3
ENDMDL
MODEL 6
REMARK VINA RESULT:      -5.2      1.769      2.332
REMARK  3 active torsions:
REMARK  status: ('A' for Active; 'I' for Inactive)
REMARK    1  A    between atoms: C_1  and  O_2 
REMARK    2  A    between atoms: O_2  and  C_3 
REMARK    3  A    between atoms: C_6  and  N_8 
ROOT
HETATM    1  C   UNL     1      62.205   8.833   3.567  1.00  0.00     0.174 C 
HETATM    2  N   UNL     1      62.263   7.679   2.849  1.00  0.00    -0.345 N 
ATOM      3  HN  UNL     1      62.308   6.767   3.304  1.00  0.00     0.167 HD
HETATM    4  C   UNL     1      61.985  10.100   3.004  1.00  0.00     0.077 C 
HETATM    5  C   UNL     1      62.257   7.800   1.510  1.00  0.00     0.090 C 
HETATM    6  C   UNL     1      61.998  10.170   1.610  1.00  0.00     0.035 C 
HETATM    7  C   UNL     1      62.139   9.008   0.851  1.00  0.00     0.019 C 
ENDROOT
BRANCH   1   8
HETATM    8  O   UNL     1      62.342   8.762   4.954  1.00  0.00    -0.288 OA
BRANCH   8   9
HETATM    9  C   UNL     1      63.479   8.142   5.429  1.00  0.00     0.116 A 
HETATM   10  C   UNL     1      63.449   7.009   6.248  1.00  0.00     0.150 A 
HETATM   11  F   UNL     1      62.288   6.418   6.570  1.00  0.00    -0.203 F 
HETATM   12  C   UNL     1      64.626   6.457   6.744  1.00  0.00     0.045 A 
HETATM   13  C   UNL     1      65.855   7.004   6.377  1.00  0.00     0.003 A 
HETATM   14  C   UNL     1      65.899   8.092   5.503  1.00  0.00     0.003 A 
HETATM   15  C   UNL     1      64.710   8.662   5.028  1.00  0.00     0.040 A 
ENDBRANCH   8   9
ENDBRANCH   1   8
BRANCH   4  16
HETATM   16  N   UNL     1      61.995  11.294   3.752  1.00  0.00    -0.396 N 
HETATM   17  H   UNL     1      62.589  12.034   3.489  1.00  0.00     0.156 HD
HETATM   18  H   UNL     1      61.409  11.387   4.537  1.00  0.00     0.156 HD
ENDBRANCH   4  16
TORSDOF 3
ENDMDL
MODEL 7
REMARK VINA RESULT:      -5.2      2.432      5.175
REMARK  3 active torsions:
REMARK  status: ('A' for Active; 'I' for Inactive)
REMARK    1  A    between atoms: C_1  and  O_2 
REMARK    2  A    between atoms: O_2  and  C_3 
REMARK    3  A    between atoms: C_6  and  N_8 
ROOT
HETATM    1  C   UNL     1      65.375   6.514   6.945  1.00  0.00     0.174 C 
HETATM    2  N   UNL     1      65.144   5.181   6.801  1.00  0.00    -0.345 N 
ATOM      3  HN  UNL     1      64.199   4.809   6.706  1.00  0.00     0.167 HD
HETATM    4  C   UNL     1      66.650   7.098   6.923  1.00  0.00     0.077 C 
HETATM    5  C   UNL     1      66.223   4.379   6.790  1.00  0.00     0.090 C 
HETATM    6  C   UNL     1      67.735   6.220   6.921  1.00  0.00     0.035 C 
HETATM    7  C   UNL     1      67.522   4.842   6.857  1.00  0.00     0.019 C 
ENDROOT
BRANCH   1   8
HETATM    8  O   UNL     1      64.280   7.367   7.094  1.00  0.00    -0.288 OA
BRANCH   8   9
HETATM    9  C   UNL     1      63.428   7.469   6.013  1.00  0.00     0.116 A 
HETATM   10  C   UNL     1      63.706   8.253   4.890  1.00  0.00     0.150 A 
HETATM   11  F   UNL     1      64.870   8.913   4.778  1.00  0.00    -0.203 F 
HETATM   12  C   UNL     1      62.786   8.363   3.852  1.00  0.00     0.045 A 
HETATM   13  C   UNL     1      61.595   7.640   3.904  1.00  0.00     0.003 A 
HETATM   14  C   UNL     1      61.340   6.799   4.989  1.00  0.00     0.003 A 
HETATM   15  C   UNL     1      62.256   6.712   6.044  1.00  0.00     0.040 A 
ENDBRANCH   8   9
ENDBRANCH   1   8
BRANCH   4  16
HETATM   16  N   UNL     1      66.879   8.471   7.141  1.00  0.00    -0.396 N 
HETATM   17  H   UNL     1      66.321   9.141   6.686  1.00  0.00     0.156 HD
HETATM   18  H   UNL     1      67.598   8.759   7.749  1.00  0.00     0.156 HD
ENDBRANCH   4  16
TORSDOF 3
ENDMDL
MODEL 8
REMARK VINA RESULT:      -5.2      1.837      2.575
REMARK  3 active torsions:
REMARK  status: ('A' for Active; 'I' for Inactive)
REMARK    1  A    between atoms: C_1  and  O_2 
REMARK    2  A    between atoms: O_2  and  C_3 
REMARK    3  A    between atoms: C_6  and  N_8 
ROOT
HETATM    1  C   UNL     1      63.242   9.423   4.711  1.00  0.00     0.174 C 
HETATM    2  N   UNL     1      62.883   8.842   3.535  1.00  0.00    -0.345 N 
ATOM      3  HN  UNL     1      63.114   7.871   3.325  1.00  0.00     0.167 HD
HETATM    4  C   UNL     1      62.822  10.698   5.120  1.00  0.00     0.077 C 
HETATM    5  C   UNL     1      62.210   9.612   2.662  1.00  0.00     0.090 C 
HETATM    6  C   UNL     1      62.134  11.458   4.172  1.00  0.00     0.035 C 
HETATM    7  C   UNL     1      61.827  10.913   2.925  1.00  0.00     0.019 C 
ENDROOT
BRANCH   1   8
HETATM    8  O   UNL     1      64.054   8.703   5.589  1.00  0.00    -0.288 OA
BRANCH   8   9
HETATM    9  C   UNL     1      63.707   7.385   5.808  1.00  0.00     0.116 A 
HETATM   10  C   UNL     1      64.597   6.321   5.640  1.00  0.00     0.150 A 
HETATM   11  F   UNL     1      65.880   6.537   5.309  1.00  0.00    -0.203 F 
HETATM   12  C   UNL     1      64.178   5.006   5.821  1.00  0.00     0.045 A 
HETATM   13  C   UNL     1      62.870   4.747   6.229  1.00  0.00     0.003 A 
HETATM   14  C   UNL     1      61.994   5.808   6.469  1.00  0.00     0.003 A 
HETATM   15  C   UNL     1      62.412   7.128   6.258  1.00  0.00     0.040 A 
ENDBRANCH   8   9
ENDBRANCH   1   8
BRANCH   4  16
HETATM   16  N   UNL     1      63.255  11.314   6.310  1.00  0.00    -0.396 N 
HETATM   17  H   UNL     1      64.192  11.222   6.598  1.00  0.00     0.156 HD
HETATM   18  H   UNL     1      62.621  11.836   6.853  1.00  0.00     0.156 HD
ENDBRANCH   4  16
TORSDOF 3
ENDMDL
MODEL 9
REMARK VINA RESULT:      -5.1      1.719      2.560
REMARK  3 active torsions:
REMARK  status: ('A' for Active; 'I' for Inactive)
REMARK    1  A    between atoms: C_1  and  O_2 
REMARK    2  A    between atoms: O_2  and  C_3 
REMARK    3  A    between atoms: C_6  and  N_8 
ROOT
HETATM    1  C   UNL     1      63.130   8.632   5.030  1.00  0.00     0.174 C 
HETATM    2  N   UNL     1      63.547   9.706   5.752  1.00  0.00    -0.345 N 
ATOM      3  HN  UNL     1      64.219   9.612   6.513  1.00  0.00     0.167 HD
HETATM    4  C   UNL     1      62.332   8.718   3.878  1.00  0.00     0.077 C 
HETATM    5  C   UNL     1      63.029  10.900   5.412  1.00  0.00     0.090 C 
HETATM    6  C   UNL     1      61.814   9.979   3.577  1.00  0.00     0.035 C 
HETATM    7  C   UNL     1      62.161  11.084   4.353  1.00  0.00     0.019 C 
ENDROOT
BRANCH   1   8
HETATM    8  O   UNL     1      63.540   7.359   5.433  1.00  0.00    -0.288 OA
BRANCH   8   9
HETATM    9  C   UNL     1      64.893   7.097   5.359  1.00  0.00     0.116 A 
HETATM   10  C   UNL     1      65.547   6.780   4.165  1.00  0.00     0.150 A 
HETATM   11  F   UNL     1      64.888   6.774   2.995  1.00  0.00    -0.203 F 
HETATM   12  C   UNL     1      66.903   6.470   4.156  1.00  0.00     0.045 A 
HETATM   13  C   UNL     1      67.634   6.530   5.342  1.00  0.00     0.003 A 
HETATM   14  C   UNL     1      67.005   6.915   6.528  1.00  0.00     0.003 A 
HETATM   15  C   UNL     1      65.633   7.199   6.536  1.00  0.00     0.040 A 
ENDBRANCH   8   9
ENDBRANCH   1   8
BRANCH   4  16
HETATM   16  N   UNL     1      61.853   7.593   3.180  1.00  0.00    -0.396 N 
HETATM   17  H   UNL     1      61.931   7.552   2.200  1.00  0.00     0.156 HD
HETATM   18  H   UNL     1      61.439   6.848   3.673  1.00  0.00     0.156 HD
ENDBRANCH   4  16
TORSDOF 3
ENDMDL
