MODEL 1
REMARK VINA RESULT:      -5.5      0.000      0.000
REMARK  3 active torsions:
REMARK  status: ('A' for Active; 'I' for Inactive)
REMARK    1  A    between atoms: C_1  and  C_4 
REMARK       I    between atoms: C_4  and  N_7 
REMARK    2  A    between atoms: N_7  and  C_12 
REMARK    3  A    between atoms: N_7  and  C_13 
ROOT
HETATM    1  C   UNL     1      62.802   8.722   4.706  1.00  0.00     0.107 A 
HETATM    2  N   UNL     1      62.564   8.061   3.506  1.00  0.00    -0.355 N 
HETATM    3  C   UNL     1      62.522  10.066   4.439  1.00  0.00    -0.022 A 
HETATM    4  C   UNL     1      62.127  10.176   3.058  1.00  0.00    -0.032 A 
HETATM    5  C   UNL     1      62.132   8.904   2.526  1.00  0.00     0.012 A 
HETATM    6  C   UNL     1      62.632  11.290   5.286  1.00  0.00     0.051 C 
HETATM    7  C   UNL     1      61.808  11.422   2.304  1.00  0.00     0.050 C 
HETATM    8  C   UNL     1      61.802   8.438   1.159  1.00  0.00     0.068 C 
HETATM    9  H   UNL     1      62.692   7.094   3.377  1.00  0.00     0.166 HD
ENDROOT
BRANCH   1  10
HETATM   10  C   UNL     1      63.353   7.892   5.790  1.00  0.00     0.270 C 
HETATM   11  N   UNL     1      64.650   7.360   5.796  1.00  0.00    -0.347 N 
HETATM   12  O   UNL     1      62.634   7.705   6.781  1.00  0.00    -0.266 OA
BRANCH  11  13
HETATM   13  C   UNL     1      65.040   6.533   6.953  1.00  0.00     0.121 C 
HETATM   14  C   UNL     1      66.323   7.008   7.628  1.00  0.00     0.026 C 
ENDBRANCH  11  13
BRANCH  11  15
HETATM   15  C   UNL     1      65.727   7.745   4.890  1.00  0.00     0.121 C 
HETATM   16  C   UNL     1      66.082   6.618   3.926  1.00  0.00     0.026 C 
ENDBRANCH  11  15
ENDBRANCH   1  10
TORSDOF 3
ENDMDL
MODEL 2
REMARK VINA RESULT:      -5.3      1.198      2.180
REMARK  3 active torsions:
REMARK  status: ('A' for Active; 'I' for Inactive)
REMARK    1  A    between atoms: C_1  and  C_4 
REMARK       I    between atoms: C_4  and  N_7 
REMARK    2  A    between atoms: N_7  and  C_12 
REMARK    3  A    between atoms: N_7  and  C_13 
ROOT
HETATM    1  C   UNL     1      63.533   8.333   4.936  1.00  0.00     0.107 A 
HETATM    2  N   UNL     1      63.101   9.608   5.286  1.00  0.00    -0.355 N 
HETATM    3  C   UNL     1      63.186   8.193   3.588  1.00  0.00    -0.022 A 
HETATM    4  C   UNL     1      62.535   9.405   3.163  1.00  0.00    -0.032 A 
HETATM    5  C   UNL     1      62.535  10.270   4.237  1.00  0.00     0.012 A 
HETATM    6  C   UNL     1      63.323   7.047   2.642  1.00  0.00     0.051 C 
HETATM    7  C   UNL     1      61.925   9.688   1.833  1.00  0.00     0.050 C 
HETATM    8  C   UNL     1      62.006  11.649   4.356  1.00  0.00     0.068 C 
HETATM    9  H   UNL     1      63.193   9.990   6.188  1.00  0.00     0.166 HD
ENDROOT
BRANCH   1  10
HETATM   10  C   UNL     1      64.080   7.522   6.036  1.00  0.00     0.270 C 
HETATM   11  N   UNL     1      65.418   7.115   6.127  1.00  0.00    -0.347 N 
HETATM   12  O   UNL     1      63.311   7.236   6.964  1.00  0.00    -0.266 OA
BRANCH  11  13
HETATM   13  C   UNL     1      65.799   6.290   7.288  1.00  0.00     0.121 C 
HETATM   14  C   UNL     1      66.876   6.932   8.157  1.00  0.00     0.026 C 
ENDBRANCH  11  13
BRANCH  11  15
HETATM   15  C   UNL     1      66.517   7.630   5.317  1.00  0.00     0.121 C 
HETATM   16  C   UNL     1      66.847   6.696   4.158  1.00  0.00     0.026 C 
ENDBRANCH  11  15
ENDBRANCH   1  10
TORSDOF 3
ENDMDL
MODEL 3
REMARK VINA RESULT:      -5.1      1.928      3.146
REMARK  3 active torsions:
REMARK  status: ('A' for Active; 'I' for Inactive)
REMARK    1  A    between atoms: C_1  and  C_4 
REMARK       I    between atoms: C_4  and  N_7 
REMARK    2  A    between atoms: N_7  and  C_12 
REMARK    3  A    between atoms: N_7  and  C_13 
ROOT
HETATM    1  C   UNL     1      64.912   8.272   5.191  1.00  0.00     0.107 A 
HETATM    2  N   UNL     1      64.266   9.456   5.532  1.00  0.00    -0.355 N 
HETATM    3  C   UNL     1      64.229   7.801   4.065  1.00  0.00    -0.022 A 
HETATM    4  C   UNL     1      63.167   8.726   3.764  1.00  0.00    -0.032 A 
HETATM    5  C   UNL     1      63.248   9.756   4.677  1.00  0.00     0.012 A 
HETATM    6  C   UNL     1      64.390   6.558   3.255  1.00  0.00     0.051 C 
HETATM    7  C   UNL     1      62.131   8.602   2.700  1.00  0.00     0.050 C 
HETATM    8  C   UNL     1      62.415  10.973   4.824  1.00  0.00     0.068 C 
HETATM    9  H   UNL     1      64.515  10.014   6.304  1.00  0.00     0.166 HD
ENDROOT
BRANCH   1  10
HETATM   10  C   UNL     1      65.969   7.835   6.118  1.00  0.00     0.270 C 
HETATM   11  N   UNL     1      65.861   6.729   6.972  1.00  0.00    -0.347 N 
HETATM   12  O   UNL     1      67.039   8.459   6.090  1.00  0.00    -0.266 OA
BRANCH  11  13
HETATM   13  C   UNL     1      67.008   6.437   7.852  1.00  0.00     0.121 C 
HETATM   14  C   UNL     1      66.655   6.475   9.336  1.00  0.00     0.026 C 
ENDBRANCH  11  13
BRANCH  11  15
HETATM   15  C   UNL     1      64.829   5.701   6.901  1.00  0.00     0.121 C 
HETATM   16  C   UNL     1      65.332   4.445   6.198  1.00  0.00     0.026 C 
ENDBRANCH  11  15
ENDBRANCH   1  10
TORSDOF 3
ENDMDL
MODEL 4
REMARK VINA RESULT:      -4.9      1.618      5.705
REMARK  3 active torsions:
REMARK  status: ('A' for Active; 'I' for Inactive)
REMARK    1  A    between atoms: C_1  and  C_4 
REMARK       I    between atoms: C_4  and  N_7 
REMARK    2  A    between atoms: N_7  and  C_12 
REMARK    3  A    between atoms: N_7  and  C_13 
ROOT
HETATM    1  C   UNL     1      65.069   7.627   5.620  1.00  0.00     0.107 A 
HETATM    2  N   UNL     1      65.223   7.526   6.999  1.00  0.00    -0.355 N 
HETATM    3  C   UNL     1      65.910   6.642   5.092  1.00  0.00    -0.022 A 
HETATM    4  C   UNL     1      66.564   5.974   6.188  1.00  0.00    -0.032 A 
HETATM    5  C   UNL     1      66.082   6.530   7.354  1.00  0.00     0.012 A 
HETATM    6  C   UNL     1      66.243   6.271   3.685  1.00  0.00     0.051 C 
HETATM    7  C   UNL     1      67.603   4.908   6.109  1.00  0.00     0.050 C 
HETATM    8  C   UNL     1      66.403   6.217   8.767  1.00  0.00     0.068 C 
HETATM    9  H   UNL     1      64.763   8.108   7.646  1.00  0.00     0.166 HD
ENDROOT
BRANCH   1  10
HETATM   10  C   UNL     1      64.222   8.736   5.154  1.00  0.00     0.270 C 
HETATM   11  N   UNL     1      63.164   8.593   4.245  1.00  0.00    -0.347 N 
HETATM   12  O   UNL     1      64.430   9.853   5.647  1.00  0.00    -0.266 OA
BRANCH  11  13
HETATM   13  C   UNL     1      62.424   9.812   3.867  1.00  0.00     0.121 C 
HETATM   14  C   UNL     1      62.007   9.833   2.400  1.00  0.00     0.026 C 
ENDBRANCH  11  13
BRANCH  11  15
HETATM   15  C   UNL     1      62.573   7.328   3.826  1.00  0.00     0.121 C 
HETATM   16  C   UNL     1      61.542   6.828   4.833  1.00  0.00     0.026 C 
ENDBRANCH  11  15
ENDBRANCH   1  10
TORSDOF 3
ENDMDL
MODEL 5
REMARK VINA RESULT:      -4.7      1.741      2.201
REMARK  3 active torsions:
REMARK  status: ('A' for Active; 'I' for Inactive)
REMARK    1  A    between atoms: C_1  and  C_4 
REMARK       I    between atoms: C_4  and  N_7 
REMARK    2  A    between atoms: N_7  and  C_12 
REMARK    3  A    between atoms: N_7  and  C_13 
ROOT
HETATM    1  C   UNL     1      64.459   8.178   4.886  1.00  0.00     0.107 A 
HETATM    2  N   UNL     1      64.340   7.291   3.821  1.00  0.00    -0.355 N 
HETATM    3  C   UNL     1      63.478   9.149   4.658  1.00  0.00    -0.022 A 
HETATM    4  C   UNL     1      62.794   8.817   3.434  1.00  0.00    -0.032 A 
HETATM    5  C   UNL     1      63.336   7.639   2.967  1.00  0.00     0.012 A 
HETATM    6  C   UNL     1      63.124  10.395   5.398  1.00  0.00     0.051 C 
HETATM    7  C   UNL     1      61.726   9.602   2.752  1.00  0.00     0.050 C 
HETATM    8  C   UNL     1      63.005   6.845   1.760  1.00  0.00     0.068 C 
HETATM    9  H   UNL     1      64.915   6.503   3.697  1.00  0.00     0.166 HD
ENDROOT
BRANCH   1  10
HETATM   10  C   UNL     1      65.577   7.918   5.808  1.00  0.00     0.270 C 
HETATM   11  N   UNL     1      65.585   6.900   6.771  1.00  0.00    -0.347 N 
HETATM   12  O   UNL     1      66.592   8.615   5.676  1.00  0.00    -0.266 OA
BRANCH  11  13
HETATM   13  C   UNL     1      66.780   6.786   7.628  1.00  0.00     0.121 C 
HETATM   14  C   UNL     1      66.452   6.433   9.075  1.00  0.00     0.026 C 
ENDBRANCH  11  13
BRANCH  11  15
HETATM   15  C   UNL     1      64.636   5.795   6.843  1.00  0.00     0.121 C 
HETATM   16  C   UNL     1      65.146   4.565   6.100  1.00  0.00     0.026 C 
ENDBRANCH  11  15
ENDBRANCH   1  10
TORSDOF 3
ENDMDL
MODEL 6
REMARK VINA RESULT:      -4.7      1.479      2.067
REMARK  3 active torsions:
REMARK  status: ('A' for Active; 'I' for Inactive)
REMARK    1  A    between atoms: C_1  and  C_4 
REMARK       I    between atoms: C_4  and  N_7 
REMARK    2  A    between atoms: N_7  and  C_12 
REMARK    3  A    between atoms: N_7  and  C_13 
ROOT
HETATM    1  C   UNL     1      63.314   8.315   3.855  1.00  0.00     0.107 A 
HETATM    2  N   UNL     1      63.043   7.934   2.544  1.00  0.00    -0.355 N 
HETATM    3  C   UNL     1      62.804   9.613   3.965  1.00  0.00    -0.022 A 
HETATM    4  C   UNL     1      62.242   9.984   2.692  1.00  0.00    -0.032 A 
HETATM    5  C   UNL     1      62.379   8.901   1.851  1.00  0.00     0.012 A 
HETATM    6  C   UNL     1      62.823  10.593   5.090  1.00  0.00     0.051 C 
HETATM    7  C   UNL     1      61.654  11.300   2.311  1.00  0.00     0.050 C 
HETATM    8  C   UNL     1      61.969   8.730   0.436  1.00  0.00     0.068 C 
HETATM    9  H   UNL     1      63.301   7.065   2.161  1.00  0.00     0.166 HD
ENDROOT
BRANCH   1  10
HETATM   10  C   UNL     1      64.104   7.356   4.644  1.00  0.00     0.270 C 
HETATM   11  N   UNL     1      63.746   6.901   5.921  1.00  0.00    -0.347 N 
HETATM   12  O   UNL     1      65.120   6.886   4.113  1.00  0.00    -0.266 OA
BRANCH  11  13
HETATM   13  C   UNL     1      64.659   5.952   6.585  1.00  0.00     0.121 C 
HETATM   14  C   UNL     1      65.599   6.619   7.584  1.00  0.00     0.026 C 
ENDBRANCH  11  13
BRANCH  11  15
HETATM   15  C   UNL     1      62.443   7.083   6.550  1.00  0.00     0.121 C 
HETATM   16  C   UNL     1      61.503   5.922   6.247  1.00  0.00     0.026 C 
ENDBRANCH  11  15
ENDBRANCH   1  10
TORSDOF 3
ENDMDL
MODEL 7
REMARK VINA RESULT:      -4.5      1.905      3.229
REMARK  3 active torsions:
REMARK  status: ('A' for Active; 'I' for Inactive)
REMARK    1  A    between atoms: C_1  and  C_4 
REMARK       I    between atoms: C_4  and  N_7 
REMARK    2  A    between atoms: N_7  and  C_12 
REMARK    3  A    between atoms: N_7  and  C_13 
ROOT
HETATM    1  C   UNL     1      64.497   7.386   5.867  1.00  0.00     0.107 A 
HETATM    2  N   UNL     1      64.289   8.760   5.913  1.00  0.00    -0.355 N 
HETATM    3  C   UNL     1      63.485   6.895   5.035  1.00  0.00    -0.022 A 
HETATM    4  C   UNL     1      62.678   8.008   4.607  1.00  0.00    -0.032 A 
HETATM    5  C   UNL     1      63.232   9.150   5.145  1.00  0.00     0.012 A 
HETATM    6  C   UNL     1      63.122   5.507   4.627  1.00  0.00     0.051 C 
HETATM    7  C   UNL     1      61.442   7.963   3.773  1.00  0.00     0.050 C 
HETATM    8  C   UNL     1      62.815  10.567   5.021  1.00  0.00     0.068 C 
HETATM    9  H   UNL     1      64.841   9.381   6.439  1.00  0.00     0.166 HD
ENDROOT
BRANCH   1  10
HETATM   10  C   UNL     1      65.569   6.876   6.738  1.00  0.00     0.270 C 
HETATM   11  N   UNL     1      66.834   6.480   6.283  1.00  0.00    -0.347 N 
HETATM   12  O   UNL     1      65.345   6.854   7.956  1.00  0.00    -0.266 OA
BRANCH  11  13
HETATM   13  C   UNL     1      67.789   5.975   7.287  1.00  0.00     0.121 C 
HETATM   14  C   UNL     1      68.028   4.471   7.189  1.00  0.00     0.026 C 
ENDBRANCH  11  13
BRANCH  11  15
HETATM   15  C   UNL     1      67.379   6.746   4.957  1.00  0.00     0.121 C 
HETATM   16  C   UNL     1      67.098   5.600   3.992  1.00  0.00     0.026 C 
ENDBRANCH  11  15
ENDBRANCH   1  10
TORSDOF 3
ENDMDL
MODEL 8
REMARK VINA RESULT:      -4.3      2.744      4.116
REMARK  3 active torsions:
REMARK  status: ('A' for Active; 'I' for Inactive)
REMARK    1  A    between atoms: C_1  and  C_4 
REMARK       I    between atoms: C_4  and  N_7 
REMARK    2  A    between atoms: N_7  and  C_12 
REMARK    3  A    between atoms: N_7  and  C_13 
ROOT
HETATM    1  C   UNL     1      62.363   8.200   3.326  1.00  0.00     0.107 A 
HETATM    2  N   UNL     1      62.516   8.990   4.460  1.00  0.00    -0.355 N 
HETATM    3  C   UNL     1      62.094   9.102   2.292  1.00  0.00    -0.022 A 
HETATM    4  C   UNL     1      62.083  10.431   2.847  1.00  0.00    -0.032 A 
HETATM    5  C   UNL     1      62.384  10.319   4.188  1.00  0.00     0.012 A 
HETATM    6  C   UNL     1      61.781   8.893   0.848  1.00  0.00     0.051 C 
HETATM    7  C   UNL     1      61.766  11.706   2.142  1.00  0.00     0.050 C 
HETATM    8  C   UNL     1      62.515  11.364   5.231  1.00  0.00     0.068 C 
HETATM    9  H   UNL     1      62.698   8.631   5.358  1.00  0.00     0.166 HD
ENDROOT
BRANCH   1  10
HETATM   10  C   UNL     1      62.407   6.746   3.553  1.00  0.00     0.270 C 
HETATM   11  N   UNL     1      61.275   5.946   3.762  1.00  0.00    -0.347 N 
HETATM   12  O   UNL     1      63.516   6.198   3.499  1.00  0.00    -0.266 OA
BRANCH  11  13
HETATM   13  C   UNL     1      61.495   4.506   3.992  1.00  0.00     0.121 C 
HETATM   14  C   UNL     1      61.376   4.105   5.460  1.00  0.00     0.026 C 
ENDBRANCH  11  13
BRANCH  11  15
HETATM   15  C   UNL     1      59.894   6.355   3.531  1.00  0.00     0.121 C 
HETATM   16  C   UNL     1      59.425   5.987   2.128  1.00  0.00     0.026 C 
ENDBRANCH  11  15
ENDBRANCH   1  10
TORSDOF 3
ENDMDL
MODEL 9
REMARK VINA RESULT:      -4.3      3.169      5.830
REMARK  3 active torsions:
REMARK  status: ('A' for Active; 'I' for Inactive)
REMARK    1  A    between atoms: C_1  and  C_4 
REMARK       I    between atoms: C_4  and  N_7 
REMARK    2  A    between atoms: N_7  and  C_12 
REMARK    3  A    between atoms: N_7  and  C_13 
ROOT
HETATM    1  C   UNL     1      61.449   8.430   2.894  1.00  0.00     0.107 A 
HETATM    2  N   UNL     1      61.363   9.695   3.464  1.00  0.00    -0.355 N 
HETATM    3  C   UNL     1      62.637   7.888   3.395  1.00  0.00    -0.022 A 
HETATM    4  C   UNL     1      63.246   8.866   4.260  1.00  0.00    -0.032 A 
HETATM    5  C   UNL     1      62.405   9.958   4.302  1.00  0.00     0.012 A 
HETATM    6  C   UNL     1      63.326   6.592   3.130  1.00  0.00     0.051 C 
HETATM    7  C   UNL     1      64.559   8.765   4.958  1.00  0.00     0.050 C 
HETATM    8  C   UNL     1      62.535  11.238   5.039  1.00  0.00     0.068 C 
HETATM    9  H   UNL     1      60.633  10.330   3.284  1.00  0.00     0.166 HD
ENDROOT
BRANCH   1  10
HETATM   10  C   UNL     1      60.404   8.104   1.909  1.00  0.00     0.270 C 
HETATM   11  N   UNL     1      59.181   7.497   2.229  1.00  0.00    -0.347 N 
HETATM   12  O   UNL     1      60.606   8.443   0.735  1.00  0.00    -0.266 OA
BRANCH  11  13
HETATM   13  C   UNL     1      58.249   7.222   1.119  1.00  0.00     0.121 C 
HETATM   14  C   UNL     1      56.868   6.776   1.589  1.00  0.00     0.026 C 
ENDBRANCH  11  13
BRANCH  11  15
HETATM   15  C   UNL     1      58.642   7.336   3.574  1.00  0.00     0.121 C 
HETATM   16  C   UNL     1      59.233   6.118   4.276  1.00  0.00     0.026 C 
ENDBRANCH  11  15
ENDBRANCH   1  10
TORSDOF 3
ENDMDL
