MODEL 1
REMARK VINA RESULT:      -5.1      0.000      0.000
REMARK  4 active torsions:
REMARK  status: ('A' for Active; 'I' for Inactive)
REMARK    1  A    between atoms: C_1  and  C_4 
REMARK    2  A    between atoms: C_1  and  O_7 
REMARK    3  A    between atoms: C_3  and  C_4 
REMARK    4  A    between atoms: C_6  and  O_8 
ROOT
HETATM    1  C   UNL     1      63.088   8.785   4.052  1.00  0.00    -0.046 A 
HETATM    2  C   UNL     1      63.963   9.192   5.072  1.00  0.00     0.044 A 
HETATM    3  C   UNL     1      65.126   8.472   5.353  1.00  0.00     0.068 A 
HETATM    4  C   UNL     1      64.544   6.897   3.605  1.00  0.00     0.003 A 
HETATM    5  C   UNL     1      63.386   7.624   3.325  1.00  0.00     0.008 A 
HETATM    6  C   UNL     1      65.409   7.322   4.613  1.00  0.00     0.037 A 
ENDROOT
BRANCH   1   7
HETATM    7  C   UNL     1      61.817   9.558   3.780  1.00  0.00     0.149 C 
BRANCH   7   8
HETATM    8  C   UNL     1      61.984  11.063   3.706  1.00  0.00     0.262 C 
HETATM    9  O   UNL     1      62.023  11.840   4.650  1.00  0.00    -0.265 OA
BRANCH   8  10
HETATM   10  O   UNL     1      62.082  11.438   2.394  1.00  0.00    -0.326 OA
HETATM   11  C   UNL     1      61.789  10.393   1.465  1.00  0.00     0.213 C 
ENDBRANCH   8  10
ENDBRANCH   7   8
ENDBRANCH   1   7
BRANCH   3  12
HETATM   12  O   UNL     1      66.047   8.783   6.315  1.00  0.00    -0.356 OA
HETATM   13  C   UNL     1      66.692   7.688   6.954  1.00  0.00     0.210 C 
ENDBRANCH   3  12
TORSDOF 4
ENDMDL
MODEL 2
REMARK VINA RESULT:      -5.0      1.807      5.135
REMARK  4 active torsions:
REMARK  status: ('A' for Active; 'I' for Inactive)
REMARK    1  A    between atoms: C_1  and  C_4 
REMARK    2  A    between atoms: C_1  and  O_7 
REMARK    3  A    between atoms: C_3  and  C_4 
REMARK    4  A    between atoms: C_6  and  O_8 
ROOT
HETATM    1  C   UNL     1      63.125   9.119   4.451  1.00  0.00    -0.046 A 
HETATM    2  C   UNL     1      62.802   8.805   3.120  1.00  0.00     0.044 A 
HETATM    3  C   UNL     1      62.145   9.726   2.303  1.00  0.00     0.068 A 
HETATM    4  C   UNL     1      62.096  11.295   4.149  1.00  0.00     0.003 A 
HETATM    5  C   UNL     1      62.758  10.373   4.960  1.00  0.00     0.008 A 
HETATM    6  C   UNL     1      61.794  10.972   2.826  1.00  0.00     0.037 A 
ENDROOT
BRANCH   1   7
HETATM    7  C   UNL     1      63.810   8.100   5.334  1.00  0.00     0.149 C 
BRANCH   7   8
HETATM    8  C   UNL     1      65.304   8.293   5.499  1.00  0.00     0.262 C 
HETATM    9  O   UNL     1      65.860   9.061   6.273  1.00  0.00    -0.265 OA
BRANCH   8  10
HETATM   10  O   UNL     1      65.960   7.467   4.628  1.00  0.00    -0.326 OA
HETATM   11  C   UNL     1      67.385   7.552   4.703  1.00  0.00     0.213 C 
ENDBRANCH   8  10
ENDBRANCH   7   8
ENDBRANCH   1   7
BRANCH   3  12
HETATM   12  O   UNL     1      61.792   9.526   0.996  1.00  0.00    -0.356 OA
HETATM   13  C   UNL     1      62.182   8.287   0.415  1.00  0.00     0.210 C 
ENDBRANCH   3  12
TORSDOF 4
ENDMDL
MODEL 3
REMARK VINA RESULT:      -4.9      1.223      5.012
REMARK  4 active torsions:
REMARK  status: ('A' for Active; 'I' for Inactive)
REMARK    1  A    between atoms: C_1  and  C_4 
REMARK    2  A    between atoms: C_1  and  O_7 
REMARK    3  A    between atoms: C_3  and  C_4 
REMARK    4  A    between atoms: C_6  and  O_8 
ROOT
HETATM    1  C   UNL     1      63.309   8.159   4.443  1.00  0.00    -0.046 A 
HETATM    2  C   UNL     1      62.802   9.467   4.508  1.00  0.00     0.044 A 
HETATM    3  C   UNL     1      62.198  10.062   3.399  1.00  0.00     0.068 A 
HETATM    4  C   UNL     1      62.620   8.047   2.119  1.00  0.00     0.003 A 
HETATM    5  C   UNL     1      63.219   7.457   3.233  1.00  0.00     0.008 A 
HETATM    6  C   UNL     1      62.112   9.343   2.205  1.00  0.00     0.037 A 
ENDROOT
BRANCH   1   7
HETATM    7  C   UNL     1      63.988   7.539   5.644  1.00  0.00     0.149 C 
BRANCH   7   8
HETATM    8  C   UNL     1      65.447   7.912   5.820  1.00  0.00     0.262 C 
HETATM    9  O   UNL     1      65.883   8.979   6.230  1.00  0.00    -0.265 OA
BRANCH   8  10
HETATM   10  O   UNL     1      66.227   6.855   5.439  1.00  0.00    -0.326 OA
HETATM   11  C   UNL     1      67.417   6.698   6.214  1.00  0.00     0.213 C 
ENDBRANCH   8  10
ENDBRANCH   7   8
ENDBRANCH   1   7
BRANCH   3  12
HETATM   12  O   UNL     1      61.668  11.322   3.356  1.00  0.00    -0.356 OA
HETATM   13  C   UNL     1      61.656  11.963   2.087  1.00  0.00     0.210 C 
ENDBRANCH   3  12
TORSDOF 4
ENDMDL
MODEL 4
REMARK VINA RESULT:      -4.2      2.603      4.694
REMARK  4 active torsions:
REMARK  status: ('A' for Active; 'I' for Inactive)
REMARK    1  A    between atoms: C_1  and  C_4 
REMARK    2  A    between atoms: C_1  and  O_7 
REMARK    3  A    between atoms: C_3  and  C_4 
REMARK    4  A    between atoms: C_6  and  O_8 
ROOT
HETATM    1  C   UNL     1      61.724   9.570   2.935  1.00  0.00    -0.046 A 
HETATM    2  C   UNL     1      60.923   8.473   3.291  1.00  0.00     0.044 A 
HETATM    3  C   UNL     1      60.563   7.507   2.349  1.00  0.00     0.068 A 
HETATM    4  C   UNL     1      61.787   8.737   0.657  1.00  0.00     0.003 A 
HETATM    5  C   UNL     1      62.147   9.697   1.604  1.00  0.00     0.008 A 
HETATM    6  C   UNL     1      61.001   7.648   1.030  1.00  0.00     0.037 A 
ENDROOT
BRANCH   1   7
HETATM    7  C   UNL     1      62.080  10.624   3.959  1.00  0.00     0.149 C 
BRANCH   7   8
HETATM    8  C   UNL     1      63.022  10.163   5.054  1.00  0.00     0.262 C 
HETATM    9  O   UNL     1      63.053  10.569   6.208  1.00  0.00    -0.265 OA
BRANCH   8  10
HETATM   10  O   UNL     1      63.859   9.207   4.550  1.00  0.00    -0.326 OA
HETATM   11  C   UNL     1      64.053   8.085   5.414  1.00  0.00     0.213 C 
ENDBRANCH   8  10
ENDBRANCH   7   8
ENDBRANCH   1   7
BRANCH   3  12
HETATM   12  O   UNL     1      59.796   6.401   2.590  1.00  0.00    -0.356 OA
HETATM   13  C   UNL     1      59.016   6.416   3.780  1.00  0.00     0.210 C 
ENDBRANCH   3  12
TORSDOF 4
ENDMDL
MODEL 5
REMARK VINA RESULT:      -4.1      1.537      5.126
REMARK  4 active torsions:
REMARK  status: ('A' for Active; 'I' for Inactive)
REMARK    1  A    between atoms: C_1  and  C_4 
REMARK    2  A    between atoms: C_1  and  O_7 
REMARK    3  A    between atoms: C_3  and  C_4 
REMARK    4  A    between atoms: C_6  and  O_8 
ROOT
HETATM    1  C   UNL     1      64.213   7.617   4.689  1.00  0.00    -0.046 A 
HETATM    2  C   UNL     1      63.493   8.705   4.169  1.00  0.00     0.044 A 
HETATM    3  C   UNL     1      62.102   8.658   4.054  1.00  0.00     0.068 A 
HETATM    4  C   UNL     1      62.126   6.411   4.961  1.00  0.00     0.003 A 
HETATM    5  C   UNL     1      63.515   6.465   5.078  1.00  0.00     0.008 A 
HETATM    6  C   UNL     1      61.425   7.504   4.454  1.00  0.00     0.037 A 
ENDROOT
BRANCH   1   7
HETATM    7  C   UNL     1      65.722   7.670   4.779  1.00  0.00     0.149 C 
BRANCH   7   8
HETATM    8  C   UNL     1      66.274   7.966   6.159  1.00  0.00     0.262 C 
HETATM    9  O   UNL     1      66.349   9.062   6.695  1.00  0.00    -0.265 OA
BRANCH   8  10
HETATM   10  O   UNL     1      66.692   6.796   6.732  1.00  0.00    -0.326 OA
HETATM   11  C   UNL     1      65.989   6.447   7.926  1.00  0.00     0.213 C 
ENDBRANCH   8  10
ENDBRANCH   7   8
ENDBRANCH   1   7
BRANCH   3  12
HETATM   12  O   UNL     1      61.305   9.660   3.570  1.00  0.00    -0.356 OA
HETATM   13  C   UNL     1      61.946  10.896   3.279  1.00  0.00     0.210 C 
ENDBRANCH   3  12
TORSDOF 4
ENDMDL
MODEL 6
REMARK VINA RESULT:      -4.1      2.853      5.441
REMARK  4 active torsions:
REMARK  status: ('A' for Active; 'I' for Inactive)
REMARK    1  A    between atoms: C_1  and  C_4 
REMARK    2  A    between atoms: C_1  and  O_7 
REMARK    3  A    between atoms: C_3  and  C_4 
REMARK    4  A    between atoms: C_6  and  O_8 
ROOT
HETATM    1  C   UNL     1      65.192   7.960   4.933  1.00  0.00    -0.046 A 
HETATM    2  C   UNL     1      65.092   6.889   4.029  1.00  0.00     0.044 A 
HETATM    3  C   UNL     1      64.051   6.824   3.102  1.00  0.00     0.068 A 
HETATM    4  C   UNL     1      63.167   8.901   3.985  1.00  0.00     0.003 A 
HETATM    5  C   UNL     1      64.213   8.963   4.906  1.00  0.00     0.008 A 
HETATM    6  C   UNL     1      63.089   7.837   3.087  1.00  0.00     0.037 A 
ENDROOT
BRANCH   1   7
HETATM    7  C   UNL     1      66.308   8.000   5.952  1.00  0.00     0.149 C 
BRANCH   7   8
HETATM    8  C   UNL     1      66.109   7.105   7.159  1.00  0.00     0.262 C 
HETATM    9  O   UNL     1      65.060   6.909   7.757  1.00  0.00    -0.265 OA
BRANCH   8  10
HETATM   10  O   UNL     1      67.307   6.537   7.497  1.00  0.00    -0.326 OA
HETATM   11  C   UNL     1      67.759   5.540   6.578  1.00  0.00     0.213 C 
ENDBRANCH   8  10
ENDBRANCH   7   8
ENDBRANCH   1   7
BRANCH   3  12
HETATM   12  O   UNL     1      63.865   5.834   2.176  1.00  0.00    -0.356 OA
HETATM   13  C   UNL     1      64.891   4.854   2.080  1.00  0.00     0.210 C 
ENDBRANCH   3  12
TORSDOF 4
ENDMDL
MODEL 7
REMARK VINA RESULT:      -4.0      2.159      5.369
REMARK  4 active torsions:
REMARK  status: ('A' for Active; 'I' for Inactive)
REMARK    1  A    between atoms: C_1  and  C_4 
REMARK    2  A    between atoms: C_1  and  O_7 
REMARK    3  A    between atoms: C_3  and  C_4 
REMARK    4  A    between atoms: C_6  and  O_8 
ROOT
HETATM    1  C   UNL     1      63.636   8.097   3.811  1.00  0.00    -0.046 A 
HETATM    2  C   UNL     1      63.219   7.426   2.649  1.00  0.00     0.044 A 
HETATM    3  C   UNL     1      62.242   7.972   1.814  1.00  0.00     0.068 A 
HETATM    4  C   UNL     1      62.059   9.870   3.309  1.00  0.00     0.003 A 
HETATM    5  C   UNL     1      63.040   9.323   4.137  1.00  0.00     0.008 A 
HETATM    6  C   UNL     1      61.665   9.198   2.153  1.00  0.00     0.037 A 
ENDROOT
BRANCH   1   7
HETATM    7  C   UNL     1      64.674   7.479   4.720  1.00  0.00     0.149 C 
BRANCH   7   8
HETATM    8  C   UNL     1      64.299   7.437   6.189  1.00  0.00     0.262 C 
HETATM    9  O   UNL     1      63.168   7.369   6.650  1.00  0.00    -0.265 OA
BRANCH   8  10
HETATM   10  O   UNL     1      65.438   7.494   6.943  1.00  0.00    -0.326 OA
HETATM   11  C   UNL     1      65.751   6.275   7.620  1.00  0.00     0.213 C 
ENDBRANCH   8  10
ENDBRANCH   7   8
ENDBRANCH   1   7
BRANCH   3  12
HETATM   12  O   UNL     1      61.770   7.408   0.660  1.00  0.00    -0.356 OA
HETATM   13  C   UNL     1      61.799   5.988   0.590  1.00  0.00     0.210 C 
ENDBRANCH   3  12
TORSDOF 4
ENDMDL
MODEL 8
REMARK VINA RESULT:      -3.9      2.355      3.788
REMARK  4 active torsions:
REMARK  status: ('A' for Active; 'I' for Inactive)
REMARK    1  A    between atoms: C_1  and  C_4 
REMARK    2  A    between atoms: C_1  and  O_7 
REMARK    3  A    between atoms: C_3  and  C_4 
REMARK    4  A    between atoms: C_6  and  O_8 
ROOT
HETATM    1  C   UNL     1      65.545   7.768   5.195  1.00  0.00    -0.046 A 
HETATM    2  C   UNL     1      65.801   6.824   4.187  1.00  0.00     0.044 A 
HETATM    3  C   UNL     1      66.840   5.900   4.314  1.00  0.00     0.068 A 
HETATM    4  C   UNL     1      67.406   6.866   6.463  1.00  0.00     0.003 A 
HETATM    5  C   UNL     1      66.363   7.785   6.333  1.00  0.00     0.008 A 
HETATM    6  C   UNL     1      67.640   5.928   5.458  1.00  0.00     0.037 A 
ENDROOT
BRANCH   1   7
HETATM    7  C   UNL     1      64.436   8.783   5.029  1.00  0.00     0.149 C 
BRANCH   7   8
HETATM    8  C   UNL     1      63.081   8.345   5.550  1.00  0.00     0.262 C 
HETATM    9  O   UNL     1      62.845   7.854   6.645  1.00  0.00    -0.265 OA
BRANCH   8  10
HETATM   10  O   UNL     1      62.136   8.581   4.589  1.00  0.00    -0.326 OA
HETATM   11  C   UNL     1      62.673   8.800   3.283  1.00  0.00     0.213 C 
ENDBRANCH   8  10
ENDBRANCH   7   8
ENDBRANCH   1   7
BRANCH   3  12
HETATM   12  O   UNL     1      67.170   4.937   3.399  1.00  0.00    -0.356 OA
HETATM   13  C   UNL     1      66.152   4.556   2.482  1.00  0.00     0.210 C 
ENDBRANCH   3  12
TORSDOF 4
ENDMDL
MODEL 9
REMARK VINA RESULT:      -3.9     11.212     11.759
REMARK  4 active torsions:
REMARK  status: ('A' for Active; 'I' for Inactive)
REMARK    1  A    between atoms: C_1  and  C_4 
REMARK    2  A    between atoms: C_1  and  O_7 
REMARK    3  A    between atoms: C_3  and  C_4 
REMARK    4  A    between atoms: C_6  and  O_8 
ROOT
HETATM    1  C   UNL     1      58.430   2.262  11.443  1.00  0.00    -0.046 A 
HETATM    2  C   UNL     1      57.190   2.562  12.031  1.00  0.00     0.044 A 
HETATM    3  C   UNL     1      56.939   2.266  13.373  1.00  0.00     0.068 A 
HETATM    4  C   UNL     1      59.169   1.334  13.559  1.00  0.00     0.003 A 
HETATM    5  C   UNL     1      59.416   1.637  12.220  1.00  0.00     0.008 A 
HETATM    6  C   UNL     1      57.937   1.650  14.131  1.00  0.00     0.037 A 
ENDROOT
BRANCH   1   7
HETATM    7  C   UNL     1      58.676   2.562   9.981  1.00  0.00     0.149 C 
BRANCH   7   8
HETATM    8  C   UNL     1      58.002   3.815   9.460  1.00  0.00     0.262 C 
HETATM    9  O   UNL     1      56.920   3.880   8.894  1.00  0.00    -0.265 OA
BRANCH   8  10
HETATM   10  O   UNL     1      58.804   4.893   9.716  1.00  0.00    -0.326 OA
HETATM   11  C   UNL     1      59.011   5.748   8.590  1.00  0.00     0.213 C 
ENDBRANCH   8  10
ENDBRANCH   7   8
ENDBRANCH   1   7
BRANCH   3  12
HETATM   12  O   UNL     1      55.775   2.521  14.044  1.00  0.00    -0.356 OA
HETATM   13  C   UNL     1      54.723   3.111  13.289  1.00  0.00     0.210 C 
ENDBRANCH   3  12
TORSDOF 4
ENDMDL
