MODEL 1
REMARK VINA RESULT:      -5.9      0.000      0.000
REMARK  3 active torsions:
REMARK  status: ('A' for Active; 'I' for Inactive)
REMARK    1  A    between atoms: C_1  and  C_2 
REMARK    2  A    between atoms: C_1  and  C_5 
REMARK    3  A    between atoms: C_6  and  N_7 
ROOT
HETATM    1  C   UNL     1      64.596   7.421   4.570  1.00  0.00     0.017 A 
HETATM    2  C   UNL     1      65.110   7.999   5.739  1.00  0.00     0.044 A 
HETATM    3  C   UNL     1      66.464   7.874   6.060  1.00  0.00     0.026 A 
HETATM    4  C   UNL     1      65.436   6.677   3.735  1.00  0.00     0.015 A 
HETATM    5  C   UNL     1      66.793   6.577   4.032  1.00  0.00     0.003 A 
HETATM    6  C   UNL     1      67.306   7.203   5.170  1.00  0.00     0.029 A 
ENDROOT
BRANCH   1   7
HETATM    7  C   UNL     1      63.168   7.572   4.183  1.00  0.00     0.192 C 
HETATM    8  O   UNL     1      62.369   6.696   4.509  1.00  0.00    -0.287 OA
BRANCH   7   9
HETATM    9  C   UNL     1      62.683   8.746   3.406  1.00  0.00     0.015 A 
HETATM   10  C   UNL     1      62.394   9.927   4.101  1.00  0.00     0.015 A 
HETATM   11  C   UNL     1      61.945  11.056   3.412  1.00  0.00     0.001 A 
HETATM   12  C   UNL     1      61.778  11.008   2.029  1.00  0.00     0.000 A 
HETATM   13  C   UNL     1      62.038   9.827   1.334  1.00  0.00     0.001 A 
HETATM   14  C   UNL     1      62.474   8.693   2.022  1.00  0.00     0.015 A 
ENDBRANCH   7   9
ENDBRANCH   1   7
BRANCH   3  15
HETATM   15  N   UNL     1      67.002   8.614   7.118  1.00  0.00    -0.399 N 
HETATM   16  H   UNL     1      66.737   9.553   7.247  1.00  0.00     0.156 HD
HETATM   17  H   UNL     1      67.647   8.196   7.733  1.00  0.00     0.156 HD
ENDBRANCH   3  15
TORSDOF 3
ENDMDL
MODEL 2
REMARK VINA RESULT:      -5.8      1.356      1.837
REMARK  3 active torsions:
REMARK  status: ('A' for Active; 'I' for Inactive)
REMARK    1  A    between atoms: C_1  and  C_2 
REMARK    2  A    between atoms: C_1  and  C_5 
REMARK    3  A    between atoms: C_6  and  N_7 
ROOT
HETATM    1  C   UNL     1      64.693   7.599   4.601  1.00  0.00     0.017 A 
HETATM    2  C   UNL     1      65.342   6.683   3.763  1.00  0.00     0.044 A 
HETATM    3  C   UNL     1      66.703   6.410   3.924  1.00  0.00     0.026 A 
HETATM    4  C   UNL     1      65.420   8.279   5.583  1.00  0.00     0.015 A 
HETATM    5  C   UNL     1      66.769   7.987   5.771  1.00  0.00     0.003 A 
HETATM    6  C   UNL     1      67.394   7.031   4.968  1.00  0.00     0.029 A 
ENDROOT
BRANCH   1   7
HETATM    7  C   UNL     1      63.238   7.880   4.477  1.00  0.00     0.192 C 
HETATM    8  O   UNL     1      62.442   7.175   5.095  1.00  0.00    -0.287 OA
BRANCH   7   9
HETATM    9  C   UNL     1      62.719   8.983   3.621  1.00  0.00     0.015 A 
HETATM   10  C   UNL     1      62.411  10.206   4.229  1.00  0.00     0.015 A 
HETATM   11  C   UNL     1      61.931  11.270   3.464  1.00  0.00     0.001 A 
HETATM   12  C   UNL     1      61.751  11.115   2.090  1.00  0.00     0.000 A 
HETATM   13  C   UNL     1      62.030   9.893   1.482  1.00  0.00     0.001 A 
HETATM   14  C   UNL     1      62.498   8.822   2.247  1.00  0.00     0.015 A 
ENDBRANCH   7   9
ENDBRANCH   1   7
BRANCH   3  15
HETATM   15  N   UNL     1      67.293   5.356   3.217  1.00  0.00    -0.399 N 
HETATM   16  H   UNL     1      66.773   4.866   2.540  1.00  0.00     0.156 HD
HETATM   17  H   UNL     1      68.227   5.104   3.398  1.00  0.00     0.156 HD
ENDBRANCH   3  15
TORSDOF 3
ENDMDL
MODEL 3
REMARK VINA RESULT:      -5.8      1.335      1.520
REMARK  3 active torsions:
REMARK  status: ('A' for Active; 'I' for Inactive)
REMARK    1  A    between atoms: C_1  and  C_2 
REMARK    2  A    between atoms: C_1  and  C_5 
REMARK    3  A    between atoms: C_6  and  N_7 
ROOT
HETATM    1  C   UNL     1      65.050   7.446   5.719  1.00  0.00     0.017 A 
HETATM    2  C   UNL     1      65.819   7.087   6.834  1.00  0.00     0.044 A 
HETATM    3  C   UNL     1      67.151   6.690   6.684  1.00  0.00     0.026 A 
HETATM    4  C   UNL     1      65.605   7.368   4.438  1.00  0.00     0.015 A 
HETATM    5  C   UNL     1      66.941   7.006   4.283  1.00  0.00     0.003 A 
HETATM    6  C   UNL     1      67.716   6.703   5.406  1.00  0.00     0.029 A 
ENDROOT
BRANCH   1   7
HETATM    7  C   UNL     1      63.644   7.910   5.853  1.00  0.00     0.192 C 
HETATM    8  O   UNL     1      62.959   7.472   6.775  1.00  0.00    -0.287 OA
BRANCH   7   9
HETATM    9  C   UNL     1      63.041   8.881   4.898  1.00  0.00     0.015 A 
HETATM   10  C   UNL     1      62.913  10.215   5.302  1.00  0.00     0.015 A 
HETATM   11  C   UNL     1      62.362  11.162   4.435  1.00  0.00     0.001 A 
HETATM   12  C   UNL     1      61.933  10.779   3.166  1.00  0.00     0.000 A 
HETATM   13  C   UNL     1      62.032   9.447   2.767  1.00  0.00     0.001 A 
HETATM   14  C   UNL     1      62.570   8.495   3.637  1.00  0.00     0.015 A 
ENDBRANCH   7   9
ENDBRANCH   1   7
BRANCH   3  15
HETATM   15  N   UNL     1      67.962   6.524   7.812  1.00  0.00    -0.399 N 
HETATM   16  H   UNL     1      68.938   6.452   7.710  1.00  0.00     0.156 HD
HETATM   17  H   UNL     1      67.556   6.479   8.707  1.00  0.00     0.156 HD
ENDBRANCH   3  15
TORSDOF 3
ENDMDL
MODEL 4
REMARK VINA RESULT:      -5.6      2.285      5.411
REMARK  3 active torsions:
REMARK  status: ('A' for Active; 'I' for Inactive)
REMARK    1  A    between atoms: C_1  and  C_2 
REMARK    2  A    between atoms: C_1  and  C_5 
REMARK    3  A    between atoms: C_6  and  N_7 
ROOT
HETATM    1  C   UNL     1      62.951   9.162   4.439  1.00  0.00     0.017 A 
HETATM    2  C   UNL     1      62.654   8.760   3.130  1.00  0.00     0.044 A 
HETATM    3  C   UNL     1      62.064   9.649   2.227  1.00  0.00     0.026 A 
HETATM    4  C   UNL     1      62.617  10.453   4.862  1.00  0.00     0.015 A 
HETATM    5  C   UNL     1      62.060  11.355   3.958  1.00  0.00     0.003 A 
HETATM    6  C   UNL     1      61.820  10.961   2.639  1.00  0.00     0.029 A 
ENDROOT
BRANCH   1   7
HETATM    7  C   UNL     1      63.614   8.250   5.408  1.00  0.00     0.192 C 
HETATM    8  O   UNL     1      63.004   7.916   6.422  1.00  0.00    -0.287 OA
BRANCH   7   9
HETATM    9  C   UNL     1      64.995   7.739   5.189  1.00  0.00     0.015 A 
HETATM   10  C   UNL     1      66.018   8.217   6.017  1.00  0.00     0.015 A 
HETATM   11  C   UNL     1      67.327   7.758   5.855  1.00  0.00     0.001 A 
HETATM   12  C   UNL     1      67.619   6.824   4.861  1.00  0.00     0.000 A 
HETATM   13  C   UNL     1      66.611   6.364   4.016  1.00  0.00     0.001 A 
HETATM   14  C   UNL     1      65.304   6.831   4.168  1.00  0.00     0.015 A 
ENDBRANCH   7   9
ENDBRANCH   1   7
BRANCH   3  15
HETATM   15  N   UNL     1      61.954   9.302   0.876  1.00  0.00    -0.399 N 
HETATM   16  H   UNL     1      62.751   9.018   0.374  1.00  0.00     0.156 HD
HETATM   17  H   UNL     1      61.078   9.343   0.428  1.00  0.00     0.156 HD
ENDBRANCH   3  15
TORSDOF 3
ENDMDL
MODEL 5
REMARK VINA RESULT:      -5.5      2.308      5.382
REMARK  3 active torsions:
REMARK  status: ('A' for Active; 'I' for Inactive)
REMARK    1  A    between atoms: C_1  and  C_2 
REMARK    2  A    between atoms: C_1  and  C_5 
REMARK    3  A    between atoms: C_6  and  N_7 
ROOT
HETATM    1  C   UNL     1      63.102   8.264   4.454  1.00  0.00     0.017 A 
HETATM    2  C   UNL     1      62.695   9.587   4.237  1.00  0.00     0.044 A 
HETATM    3  C   UNL     1      62.180   9.981   3.000  1.00  0.00     0.026 A 
HETATM    4  C   UNL     1      63.032   7.335   3.411  1.00  0.00     0.015 A 
HETATM    5  C   UNL     1      62.489   7.712   2.185  1.00  0.00     0.003 A 
HETATM    6  C   UNL     1      62.034   9.019   1.996  1.00  0.00     0.029 A 
ENDROOT
BRANCH   1   7
HETATM    7  C   UNL     1      63.617   7.808   5.772  1.00  0.00     0.192 C 
HETATM    8  O   UNL     1      62.866   7.836   6.746  1.00  0.00    -0.287 OA
BRANCH   7   9
HETATM    9  C   UNL     1      65.015   7.327   5.948  1.00  0.00     0.015 A 
HETATM   10  C   UNL     1      66.046   8.048   5.332  1.00  0.00     0.015 A 
HETATM   11  C   UNL     1      67.374   7.639   5.478  1.00  0.00     0.001 A 
HETATM   12  C   UNL     1      67.675   6.507   6.233  1.00  0.00     0.000 A 
HETATM   13  C   UNL     1      66.652   5.769   6.826  1.00  0.00     0.001 A 
HETATM   14  C   UNL     1      65.323   6.168   6.671  1.00  0.00     0.015 A 
ENDBRANCH   7   9
ENDBRANCH   1   7
BRANCH   3  15
HETATM   15  N   UNL     1      61.598  11.245   2.855  1.00  0.00    -0.399 N 
HETATM   16  H   UNL     1      61.933  12.005   3.383  1.00  0.00     0.156 HD
HETATM   17  H   UNL     1      60.850  11.373   2.227  1.00  0.00     0.156 HD
ENDBRANCH   3  15
TORSDOF 3
ENDMDL
MODEL 6
REMARK VINA RESULT:      -5.4      1.818      5.180
REMARK  3 active torsions:
REMARK  status: ('A' for Active; 'I' for Inactive)
REMARK    1  A    between atoms: C_1  and  C_2 
REMARK    2  A    between atoms: C_1  and  C_5 
REMARK    3  A    between atoms: C_6  and  N_7 
ROOT
HETATM    1  C   UNL     1      63.583   8.511   4.038  1.00  0.00     0.017 A 
HETATM    2  C   UNL     1      63.836   9.398   5.093  1.00  0.00     0.044 A 
HETATM    3  C   UNL     1      63.142  10.607   5.189  1.00  0.00     0.026 A 
HETATM    4  C   UNL     1      62.657   8.854   3.048  1.00  0.00     0.015 A 
HETATM    5  C   UNL     1      61.938  10.042   3.156  1.00  0.00     0.003 A 
HETATM    6  C   UNL     1      62.157  10.894   4.240  1.00  0.00     0.029 A 
ENDROOT
BRANCH   1   7
HETATM    7  C   UNL     1      64.278   7.201   3.933  1.00  0.00     0.192 C 
HETATM    8  O   UNL     1      63.872   6.377   3.116  1.00  0.00    -0.287 OA
BRANCH   7   9
HETATM    9  C   UNL     1      65.444   6.856   4.794  1.00  0.00     0.015 A 
HETATM   10  C   UNL     1      65.214   6.101   5.950  1.00  0.00     0.015 A 
HETATM   11  C   UNL     1      66.279   5.747   6.781  1.00  0.00     0.001 A 
HETATM   12  C   UNL     1      67.575   6.150   6.464  1.00  0.00     0.000 A 
HETATM   13  C   UNL     1      67.808   6.925   5.329  1.00  0.00     0.001 A 
HETATM   14  C   UNL     1      66.743   7.293   4.503  1.00  0.00     0.015 A 
ENDBRANCH   7   9
ENDBRANCH   1   7
BRANCH   3  15
HETATM   15  N   UNL     1      63.258  11.390   6.343  1.00  0.00    -0.399 N 
HETATM   16  H   UNL     1      64.148  11.642   6.680  1.00  0.00     0.156 HD
HETATM   17  H   UNL     1      62.450  11.688   6.819  1.00  0.00     0.156 HD
ENDBRANCH   3  15
TORSDOF 3
ENDMDL
MODEL 7
REMARK VINA RESULT:      -5.3      2.040      2.634
REMARK  3 active torsions:
REMARK  status: ('A' for Active; 'I' for Inactive)
REMARK    1  A    between atoms: C_1  and  C_2 
REMARK    2  A    between atoms: C_1  and  C_5 
REMARK    3  A    between atoms: C_6  and  N_7 
ROOT
HETATM    1  C   UNL     1      65.563   7.384   5.552  1.00  0.00     0.017 A 
HETATM    2  C   UNL     1      65.130   6.438   6.490  1.00  0.00     0.044 A 
HETATM    3  C   UNL     1      65.895   5.300   6.760  1.00  0.00     0.026 A 
HETATM    4  C   UNL     1      66.752   7.171   4.847  1.00  0.00     0.015 A 
HETATM    5  C   UNL     1      67.536   6.056   5.136  1.00  0.00     0.003 A 
HETATM    6  C   UNL     1      67.124   5.147   6.113  1.00  0.00     0.029 A 
ENDROOT
BRANCH   1   7
HETATM    7  C   UNL     1      64.790   8.623   5.273  1.00  0.00     0.192 C 
HETATM    8  O   UNL     1      65.079   9.653   5.878  1.00  0.00    -0.287 OA
BRANCH   7   9
HETATM    9  C   UNL     1      63.671   8.648   4.290  1.00  0.00     0.015 A 
HETATM   10  C   UNL     1      63.602   7.623   3.338  1.00  0.00     0.015 A 
HETATM   11  C   UNL     1      62.565   7.600   2.403  1.00  0.00     0.001 A 
HETATM   12  C   UNL     1      61.597   8.604   2.412  1.00  0.00     0.000 A 
HETATM   13  C   UNL     1      61.674   9.641   3.339  1.00  0.00     0.001 A 
HETATM   14  C   UNL     1      62.718   9.674   4.267  1.00  0.00     0.015 A 
ENDBRANCH   7   9
ENDBRANCH   1   7
BRANCH   3  15
HETATM   15  N   UNL     1      65.555   4.468   7.832  1.00  0.00    -0.399 N 
HETATM   16  H   UNL     1      65.459   4.844   8.737  1.00  0.00     0.156 HD
HETATM   17  H   UNL     1      65.412   3.505   7.682  1.00  0.00     0.156 HD
ENDBRANCH   3  15
TORSDOF 3
ENDMDL
MODEL 8
REMARK VINA RESULT:      -5.0      2.902      5.443
REMARK  3 active torsions:
REMARK  status: ('A' for Active; 'I' for Inactive)
REMARK    1  A    between atoms: C_1  and  C_2 
REMARK    2  A    between atoms: C_1  and  C_5 
REMARK    3  A    between atoms: C_6  and  N_7 
ROOT
HETATM    1  C   UNL     1      62.609   9.150   3.878  1.00  0.00     0.017 A 
HETATM    2  C   UNL     1      62.253  10.455   3.509  1.00  0.00     0.044 A 
HETATM    3  C   UNL     1      61.944  10.761   2.182  1.00  0.00     0.026 A 
HETATM    4  C   UNL     1      62.697   8.152   2.902  1.00  0.00     0.015 A 
HETATM    5  C   UNL     1      62.358   8.443   1.583  1.00  0.00     0.003 A 
HETATM    6  C   UNL     1      61.950   9.733   1.236  1.00  0.00     0.029 A 
ENDROOT
BRANCH   1   7
HETATM    7  C   UNL     1      62.905   8.787   5.289  1.00  0.00     0.192 C 
HETATM    8  O   UNL     1      62.960   9.679   6.133  1.00  0.00    -0.287 OA
BRANCH   7   9
HETATM    9  C   UNL     1      63.144   7.378   5.705  1.00  0.00     0.015 A 
HETATM   10  C   UNL     1      62.033   6.560   5.947  1.00  0.00     0.015 A 
HETATM   11  C   UNL     1      62.210   5.229   6.330  1.00  0.00     0.001 A 
HETATM   12  C   UNL     1      63.496   4.711   6.478  1.00  0.00     0.000 A 
HETATM   13  C   UNL     1      64.607   5.527   6.265  1.00  0.00     0.001 A 
HETATM   14  C   UNL     1      64.433   6.862   5.895  1.00  0.00     0.015 A 
ENDBRANCH   7   9
ENDBRANCH   1   7
BRANCH   3  15
HETATM   15  N   UNL     1      61.403  12.011   1.861  1.00  0.00    -0.399 N 
HETATM   16  H   UNL     1      61.260  12.259   0.920  1.00  0.00     0.156 HD
HETATM   17  H   UNL     1      61.166  12.643   2.578  1.00  0.00     0.156 HD
ENDBRANCH   3  15
TORSDOF 3
ENDMDL
MODEL 9
REMARK VINA RESULT:      -4.9      3.042      3.899
REMARK  3 active torsions:
REMARK  status: ('A' for Active; 'I' for Inactive)
REMARK    1  A    between atoms: C_1  and  C_2 
REMARK    2  A    between atoms: C_1  and  C_5 
REMARK    3  A    between atoms: C_6  and  N_7 
ROOT
HETATM    1  C   UNL     1      62.491   8.864   3.136  1.00  0.00     0.017 A 
HETATM    2  C   UNL     1      62.399   9.934   4.037  1.00  0.00     0.044 A 
HETATM    3  C   UNL     1      63.265  10.021   5.130  1.00  0.00     0.026 A 
HETATM    4  C   UNL     1      63.431   7.852   3.353  1.00  0.00     0.015 A 
HETATM    5  C   UNL     1      64.319   7.950   4.421  1.00  0.00     0.003 A 
HETATM    6  C   UNL     1      64.256   9.048   5.282  1.00  0.00     0.029 A 
ENDROOT
BRANCH   1   7
HETATM    7  C   UNL     1      61.609   8.766   1.943  1.00  0.00     0.192 C 
HETATM    8  O   UNL     1      62.000   9.233   0.875  1.00  0.00    -0.287 OA
BRANCH   7   9
HETATM    9  C   UNL     1      60.266   8.127   2.008  1.00  0.00     0.015 A 
HETATM   10  C   UNL     1      59.807   7.673   3.250  1.00  0.00     0.015 A 
HETATM   11  C   UNL     1      58.549   7.076   3.360  1.00  0.00     0.001 A 
HETATM   12  C   UNL     1      57.748   6.925   2.229  1.00  0.00     0.000 A 
HETATM   13  C   UNL     1      58.210   7.350   0.984  1.00  0.00     0.001 A 
HETATM   14  C   UNL     1      59.473   7.935   0.869  1.00  0.00     0.015 A 
ENDBRANCH   7   9
ENDBRANCH   1   7
BRANCH   3  15
HETATM   15  N   UNL     1      63.294  11.186   5.905  1.00  0.00    -0.399 N 
HETATM   16  H   UNL     1      63.399  12.063   5.473  1.00  0.00     0.156 HD
HETATM   17  H   UNL     1      63.212  11.127   6.885  1.00  0.00     0.156 HD
ENDBRANCH   3  15
TORSDOF 3
ENDMDL
