MODEL 1
REMARK VINA RESULT:      -6.7      0.000      0.000
REMARK  3 active torsions:
REMARK  status: ('A' for Active; 'I' for Inactive)
REMARK    1  A    between atoms: C_1  and  O_4 
REMARK    2  A    between atoms: C_3  and  O_4 
REMARK    3  A    between atoms: C_9  and  N_12 
ROOT
HETATM    1  O   UNL     1      65.292   8.448   6.071  1.00  0.00    -0.291 OA
ENDROOT
BRANCH   1   2
HETATM    2  C   UNL     1      66.072   7.432   6.579  1.00  0.00     0.174 A 
HETATM    3  N   UNL     1      65.521   6.896   7.700  1.00  0.00    -0.345 N 
HETATM    4  C   UNL     1      66.207   5.928   8.340  1.00  0.00     0.090 A 
ATOM      5  HN  UNL     1      64.617   7.216   8.047  1.00  0.00     0.167 HD
HETATM    6  C   UNL     1      67.421   5.436   7.907  1.00  0.00     0.019 A 
HETATM    7  C   UNL     1      67.983   5.999   6.767  1.00  0.00     0.035 A 
HETATM    8  C   UNL     1      67.326   7.023   6.070  1.00  0.00     0.077 A 
BRANCH   8   9
HETATM    9  N   UNL     1      68.075   7.698   5.087  1.00  0.00    -0.396 N 
HETATM   10  H   UNL     1      69.059   7.695   5.130  1.00  0.00     0.156 HD
HETATM   11  H   UNL     1      67.617   8.174   4.357  1.00  0.00     0.156 HD
ENDBRANCH   8   9
ENDBRANCH   1   2
BRANCH   1  12
HETATM   12  C   UNL     1      64.425   8.236   5.032  1.00  0.00     0.084 C 
HETATM   13  C   UNL     1      63.570   9.291   4.714  1.00  0.00    -0.017 C 
HETATM   14  C   UNL     1      62.788   9.259   3.559  1.00  0.00    -0.043 C 
HETATM   15  C   UNL     1      63.384  10.561   5.477  1.00  0.00     0.042 C 
HETATM   16  C   UNL     1      62.822   8.164   2.701  1.00  0.00    -0.055 C 
HETATM   17  C   UNL     1      62.019  10.532   3.391  1.00  0.00     0.040 C 
HETATM   18  C   UNL     1      63.570   7.047   3.097  1.00  0.00     0.010 C 
HETATM   19  C   UNL     1      62.078   8.169   1.399  1.00  0.00     0.049 C 
HETATM   20  C   UNL     1      64.345   7.070   4.269  1.00  0.00     0.038 C 
HETATM   21  C   UNL     1      62.271  11.280   4.706  1.00  0.00     0.009 C 
ENDBRANCH   1  12
TORSDOF 3
ENDMDL
MODEL 2
REMARK VINA RESULT:      -6.2      1.409      3.051
REMARK  3 active torsions:
REMARK  status: ('A' for Active; 'I' for Inactive)
REMARK    1  A    between atoms: C_1  and  O_4 
REMARK    2  A    between atoms: C_3  and  O_4 
REMARK    3  A    between atoms: C_9  and  N_12 
ROOT
HETATM    1  O   UNL     1      63.244   7.935   6.048  1.00  0.00    -0.291 OA
ENDROOT
BRANCH   1   2
HETATM    2  C   UNL     1      64.509   7.424   6.239  1.00  0.00     0.174 A 
HETATM    3  N   UNL     1      65.449   8.407   6.237  1.00  0.00    -0.345 N 
HETATM    4  C   UNL     1      66.741   8.045   6.355  1.00  0.00     0.090 A 
ATOM      5  HN  UNL     1      65.182   9.387   6.147  1.00  0.00     0.167 HD
HETATM    6  C   UNL     1      67.161   6.739   6.504  1.00  0.00     0.019 A 
HETATM    7  C   UNL     1      66.195   5.740   6.493  1.00  0.00     0.035 A 
HETATM    8  C   UNL     1      64.835   6.053   6.353  1.00  0.00     0.077 A 
BRANCH   8   9
HETATM    9  N   UNL     1      63.963   4.976   6.101  1.00  0.00    -0.396 N 
HETATM   10  H   UNL     1      64.245   4.056   6.312  1.00  0.00     0.156 HD
HETATM   11  H   UNL     1      63.072   5.141   5.716  1.00  0.00     0.156 HD
ENDBRANCH   8   9
ENDBRANCH   1   2
BRANCH   1  12
HETATM   12  C   UNL     1      63.002   8.924   5.131  1.00  0.00     0.084 C 
HETATM   13  C   UNL     1      62.839   8.515   3.809  1.00  0.00    -0.017 C 
HETATM   14  C   UNL     1      62.397   9.407   2.829  1.00  0.00    -0.043 C 
HETATM   15  C   UNL     1      63.056   7.146   3.256  1.00  0.00     0.042 C 
HETATM   16  C   UNL     1      62.127  10.736   3.140  1.00  0.00    -0.055 C 
HETATM   17  C   UNL     1      62.223   8.720   1.512  1.00  0.00     0.040 C 
HETATM   18  C   UNL     1      62.429  11.177   4.436  1.00  0.00     0.010 C 
HETATM   19  C   UNL     1      61.540  11.671   2.127  1.00  0.00     0.049 C 
HETATM   20  C   UNL     1      62.891  10.286   5.419  1.00  0.00     0.038 C 
HETATM   21  C   UNL     1      62.812   7.324   1.752  1.00  0.00     0.009 C 
ENDBRANCH   1  12
TORSDOF 3
ENDMDL
MODEL 3
REMARK VINA RESULT:      -5.7      1.672      3.304
REMARK  3 active torsions:
REMARK  status: ('A' for Active; 'I' for Inactive)
REMARK    1  A    between atoms: C_1  and  O_4 
REMARK    2  A    between atoms: C_3  and  O_4 
REMARK    3  A    between atoms: C_9  and  N_12 
ROOT
HETATM    1  O   UNL     1      63.523   6.725   4.574  1.00  0.00    -0.291 OA
ENDROOT
BRANCH   1   2
HETATM    2  C   UNL     1      64.824   6.349   4.831  1.00  0.00     0.174 A 
HETATM    3  N   UNL     1      65.358   5.661   3.788  1.00  0.00    -0.345 N 
HETATM    4  C   UNL     1      66.609   5.179   3.923  1.00  0.00     0.090 A 
ATOM      5  HN  UNL     1      64.827   5.514   2.928  1.00  0.00     0.167 HD
HETATM    6  C   UNL     1      67.384   5.366   5.049  1.00  0.00     0.019 A 
HETATM    7  C   UNL     1      66.826   6.060   6.116  1.00  0.00     0.035 A 
HETATM    8  C   UNL     1      65.521   6.568   6.041  1.00  0.00     0.077 A 
BRANCH   8   9
HETATM    9  N   UNL     1      64.955   7.031   7.245  1.00  0.00    -0.396 N 
HETATM   10  H   UNL     1      64.473   6.405   7.834  1.00  0.00     0.156 HD
HETATM   11  H   UNL     1      65.041   7.978   7.499  1.00  0.00     0.156 HD
ENDBRANCH   8   9
ENDBRANCH   1   2
BRANCH   1  12
HETATM   12  C   UNL     1      63.221   7.959   4.063  1.00  0.00     0.084 C 
HETATM   13  C   UNL     1      62.856   7.999   2.718  1.00  0.00    -0.017 C 
HETATM   14  C   UNL     1      62.341   9.164   2.146  1.00  0.00    -0.043 C 
HETATM   15  C   UNL     1      62.910   6.875   1.736  1.00  0.00     0.042 C 
HETATM   16  C   UNL     1      62.199  10.327   2.897  1.00  0.00    -0.055 C 
HETATM   17  C   UNL     1      61.948   8.939   0.721  1.00  0.00     0.040 C 
HETATM   18  C   UNL     1      62.700  10.325   4.206  1.00  0.00     0.010 C 
HETATM   19  C   UNL     1      61.538  11.547   2.328  1.00  0.00     0.049 C 
HETATM   20  C   UNL     1      63.235   9.158   4.778  1.00  0.00     0.038 C 
HETATM   21  C   UNL     1      62.476   7.530   0.419  1.00  0.00     0.009 C 
ENDBRANCH   1  12
TORSDOF 3
ENDMDL
MODEL 4
REMARK VINA RESULT:      -5.7      2.140      2.647
REMARK  3 active torsions:
REMARK  status: ('A' for Active; 'I' for Inactive)
REMARK    1  A    between atoms: C_1  and  O_4 
REMARK    2  A    between atoms: C_3  and  O_4 
REMARK    3  A    between atoms: C_9  and  N_12 
ROOT
HETATM    1  O   UNL     1      64.107   7.286   6.953  1.00  0.00    -0.291 OA
ENDROOT
BRANCH   1   2
HETATM    2  C   UNL     1      65.287   6.582   7.056  1.00  0.00     0.174 A 
HETATM    3  N   UNL     1      65.059   5.253   7.230  1.00  0.00    -0.345 N 
HETATM    4  C   UNL     1      66.124   4.447   7.405  1.00  0.00     0.090 A 
ATOM      5  HN  UNL     1      64.110   4.878   7.228  1.00  0.00     0.167 HD
HETATM    6  C   UNL     1      67.430   4.891   7.392  1.00  0.00     0.019 A 
HETATM    7  C   UNL     1      67.654   6.253   7.226  1.00  0.00     0.035 A 
HETATM    8  C   UNL     1      66.583   7.143   7.059  1.00  0.00     0.077 A 
BRANCH   8   9
HETATM    9  N   UNL     1      66.886   8.516   7.150  1.00  0.00    -0.396 N 
HETATM   10  H   UNL     1      66.703   9.006   7.985  1.00  0.00     0.156 HD
HETATM   11  H   UNL     1      67.281   8.986   6.381  1.00  0.00     0.156 HD
ENDBRANCH   8   9
ENDBRANCH   1   2
BRANCH   1  12
HETATM   12  C   UNL     1      63.508   7.509   5.741  1.00  0.00     0.084 C 
HETATM   13  C   UNL     1      62.242   6.954   5.565  1.00  0.00    -0.017 C 
HETATM   14  C   UNL     1      61.462   7.278   4.454  1.00  0.00    -0.043 C 
HETATM   15  C   UNL     1      61.534   6.014   6.485  1.00  0.00     0.042 C 
HETATM   16  C   UNL     1      61.935   8.149   3.477  1.00  0.00    -0.055 C 
HETATM   17  C   UNL     1      60.118   6.625   4.527  1.00  0.00     0.040 C 
HETATM   18  C   UNL     1      63.261   8.591   3.583  1.00  0.00     0.010 C 
HETATM   19  C   UNL     1      61.063   8.598   2.343  1.00  0.00     0.049 C 
HETATM   20  C   UNL     1      64.054   8.251   4.692  1.00  0.00     0.038 C 
HETATM   21  C   UNL     1      60.239   5.685   5.733  1.00  0.00     0.009 C 
ENDBRANCH   1  12
TORSDOF 3
ENDMDL
MODEL 5
REMARK VINA RESULT:      -5.1      5.085      6.951
REMARK  3 active torsions:
REMARK  status: ('A' for Active; 'I' for Inactive)
REMARK    1  A    between atoms: C_1  and  O_4 
REMARK    2  A    between atoms: C_3  and  O_4 
REMARK    3  A    between atoms: C_9  and  N_12 
ROOT
HETATM    1  O   UNL     1      60.876   6.907   3.708  1.00  0.00    -0.291 OA
ENDROOT
BRANCH   1   2
HETATM    2  C   UNL     1      61.273   8.069   3.084  1.00  0.00     0.174 A 
HETATM    3  N   UNL     1      61.523   9.056   3.985  1.00  0.00    -0.345 N 
HETATM    4  C   UNL     1      61.864  10.271   3.513  1.00  0.00     0.090 A 
ATOM      5  HN  UNL     1      61.455   8.882   4.988  1.00  0.00     0.167 HD
HETATM    6  C   UNL     1      61.997  10.561   2.171  1.00  0.00     0.019 A 
HETATM    7  C   UNL     1      61.727   9.550   1.256  1.00  0.00     0.035 A 
HETATM    8  C   UNL     1      61.348   8.271   1.687  1.00  0.00     0.077 A 
BRANCH   8   9
HETATM    9  N   UNL     1      60.855   7.394   0.701  1.00  0.00    -0.396 N 
HETATM   10  H   UNL     1      60.497   6.514   0.961  1.00  0.00     0.156 HD
HETATM   11  H   UNL     1      60.867   7.660  -0.247  1.00  0.00     0.156 HD
ENDBRANCH   8   9
ENDBRANCH   1   2
BRANCH   1  12
HETATM   12  C   UNL     1      59.645   6.793   4.299  1.00  0.00     0.084 C 
HETATM   13  C   UNL     1      59.616   6.190   5.555  1.00  0.00    -0.017 C 
HETATM   14  C   UNL     1      58.455   6.197   6.329  1.00  0.00    -0.043 C 
HETATM   15  C   UNL     1      60.747   5.514   6.257  1.00  0.00     0.042 C 
HETATM   16  C   UNL     1      57.285   6.788   5.860  1.00  0.00    -0.055 C 
HETATM   17  C   UNL     1      58.690   5.564   7.664  1.00  0.00     0.040 C 
HETATM   18  C   UNL     1      57.278   7.264   4.542  1.00  0.00     0.010 C 
HETATM   19  C   UNL     1      56.068   6.907   6.728  1.00  0.00     0.049 C 
HETATM   20  C   UNL     1      58.441   7.241   3.754  1.00  0.00     0.038 C 
HETATM   21  C   UNL     1      60.102   4.977   7.540  1.00  0.00     0.009 C 
ENDBRANCH   1  12
TORSDOF 3
ENDMDL
MODEL 6
REMARK VINA RESULT:      -5.0      2.300      3.040
REMARK  3 active torsions:
REMARK  status: ('A' for Active; 'I' for Inactive)
REMARK    1  A    between atoms: C_1  and  O_4 
REMARK    2  A    between atoms: C_3  and  O_4 
REMARK    3  A    between atoms: C_9  and  N_12 
ROOT
HETATM    1  O   UNL     1      63.417   7.761   6.138  1.00  0.00    -0.291 OA
ENDROOT
BRANCH   1   2
HETATM    2  C   UNL     1      64.686   7.265   6.340  1.00  0.00     0.174 A 
HETATM    3  N   UNL     1      65.612   8.260   6.358  1.00  0.00    -0.345 N 
HETATM    4  C   UNL     1      66.909   7.915   6.489  1.00  0.00     0.090 A 
ATOM      5  HN  UNL     1      65.334   9.238   6.275  1.00  0.00     0.167 HD
HETATM    6  C   UNL     1      67.343   6.613   6.630  1.00  0.00     0.019 A 
HETATM    7  C   UNL     1      66.391   5.601   6.598  1.00  0.00     0.035 A 
HETATM    8  C   UNL     1      65.029   5.898   6.444  1.00  0.00     0.077 A 
BRANCH   8   9
HETATM    9  N   UNL     1      64.175   4.811   6.173  1.00  0.00    -0.396 N 
HETATM   10  H   UNL     1      64.164   4.032   6.774  1.00  0.00     0.156 HD
HETATM   11  H   UNL     1      63.587   4.831   5.383  1.00  0.00     0.156 HD
ENDBRANCH   8   9
ENDBRANCH   1   2
BRANCH   1  12
HETATM   12  C   UNL     1      62.852   7.801   4.890  1.00  0.00     0.084 C 
HETATM   13  C   UNL     1      61.615   7.174   4.752  1.00  0.00    -0.017 C 
HETATM   14  C   UNL     1      60.862   7.319   3.586  1.00  0.00    -0.043 C 
HETATM   15  C   UNL     1      60.913   6.331   5.765  1.00  0.00     0.042 C 
HETATM   16  C   UNL     1      61.334   8.076   2.518  1.00  0.00    -0.055 C 
HETATM   17  C   UNL     1      59.542   6.624   3.704  1.00  0.00     0.040 C 
HETATM   18  C   UNL     1      62.638   8.584   2.604  1.00  0.00     0.010 C 
HETATM   19  C   UNL     1      60.485   8.337   1.310  1.00  0.00     0.049 C 
HETATM   20  C   UNL     1      63.405   8.424   3.770  1.00  0.00     0.038 C 
HETATM   21  C   UNL     1      59.658   5.853   5.025  1.00  0.00     0.009 C 
ENDBRANCH   1  12
TORSDOF 3
ENDMDL
MODEL 7
REMARK VINA RESULT:      -4.9      2.125      2.491
REMARK  3 active torsions:
REMARK  status: ('A' for Active; 'I' for Inactive)
REMARK    1  A    between atoms: C_1  and  O_4 
REMARK    2  A    between atoms: C_3  and  O_4 
REMARK    3  A    between atoms: C_9  and  N_12 
ROOT
HETATM    1  O   UNL     1      65.588   6.619   5.729  1.00  0.00    -0.291 OA
ENDROOT
BRANCH   1   2
HETATM    2  C   UNL     1      66.360   6.233   6.803  1.00  0.00     0.174 A 
HETATM    3  N   UNL     1      66.211   7.084   7.854  1.00  0.00    -0.345 N 
HETATM    4  C   UNL     1      66.953   6.862   8.957  1.00  0.00     0.090 A 
ATOM      5  HN  UNL     1      65.557   7.866   7.808  1.00  0.00     0.167 HD
HETATM    6  C   UNL     1      67.834   5.808   9.087  1.00  0.00     0.019 A 
HETATM    7  C   UNL     1      67.990   4.951   8.004  1.00  0.00     0.035 A 
HETATM    8  C   UNL     1      67.259   5.143   6.822  1.00  0.00     0.077 A 
BRANCH   8   9
HETATM    9  N   UNL     1      67.662   4.388   5.703  1.00  0.00    -0.396 N 
HETATM   10  H   UNL     1      68.267   4.784   5.035  1.00  0.00     0.156 HD
HETATM   11  H   UNL     1      67.339   3.465   5.589  1.00  0.00     0.156 HD
ENDBRANCH   8   9
ENDBRANCH   1   2
BRANCH   1  12
HETATM   12  C   UNL     1      64.229   6.443   5.722  1.00  0.00     0.084 C 
HETATM   13  C   UNL     1      63.484   7.415   5.056  1.00  0.00    -0.017 C 
HETATM   14  C   UNL     1      62.120   7.237   4.818  1.00  0.00    -0.043 C 
HETATM   15  C   UNL     1      63.983   8.703   4.490  1.00  0.00     0.042 C 
HETATM   16  C   UNL     1      61.460   6.093   5.258  1.00  0.00    -0.055 C 
HETATM   17  C   UNL     1      61.557   8.370   4.021  1.00  0.00     0.040 C 
HETATM   18  C   UNL     1      62.179   5.188   6.051  1.00  0.00     0.010 C 
HETATM   19  C   UNL     1      60.025   5.835   4.906  1.00  0.00     0.049 C 
HETATM   20  C   UNL     1      63.548   5.375   6.307  1.00  0.00     0.038 C 
HETATM   21  C   UNL     1      62.710   9.381   3.968  1.00  0.00     0.009 C 
ENDBRANCH   1  12
TORSDOF 3
ENDMDL
MODEL 8
REMARK VINA RESULT:      -4.9      2.289      3.143
REMARK  3 active torsions:
REMARK  status: ('A' for Active; 'I' for Inactive)
REMARK    1  A    between atoms: C_1  and  O_4 
REMARK    2  A    between atoms: C_3  and  O_4 
REMARK    3  A    between atoms: C_9  and  N_12 
ROOT
HETATM    1  O   UNL     1      64.286   8.342   4.322  1.00  0.00    -0.291 OA
ENDROOT
BRANCH   1   2
HETATM    2  C   UNL     1      65.367   7.505   4.490  1.00  0.00     0.174 A 
HETATM    3  N   UNL     1      65.369   6.504   3.570  1.00  0.00    -0.345 N 
HETATM    4  C   UNL     1      66.340   5.573   3.650  1.00  0.00     0.090 A 
ATOM      5  HN  UNL     1      64.656   6.459   2.841  1.00  0.00     0.167 HD
HETATM    6  C   UNL     1      67.344   5.595   4.596  1.00  0.00     0.019 A 
HETATM    7  C   UNL     1      67.328   6.614   5.541  1.00  0.00     0.035 A 
HETATM    8  C   UNL     1      66.330   7.600   5.520  1.00  0.00     0.077 A 
BRANCH   8   9
HETATM    9  N   UNL     1      66.248   8.436   6.650  1.00  0.00    -0.396 N 
HETATM   10  H   UNL     1      65.532   8.299   7.312  1.00  0.00     0.156 HD
HETATM   11  H   UNL     1      66.905   9.158   6.779  1.00  0.00     0.156 HD
ENDBRANCH   8   9
ENDBRANCH   1   2
BRANCH   1  12
HETATM   12  C   UNL     1      62.999   7.883   4.437  1.00  0.00     0.084 C 
HETATM   13  C   UNL     1      62.164   8.106   3.343  1.00  0.00    -0.017 C 
HETATM   14  C   UNL     1      60.902   7.514   3.270  1.00  0.00    -0.043 C 
HETATM   15  C   UNL     1      62.465   8.923   2.130  1.00  0.00     0.042 C 
HETATM   16  C   UNL     1      60.431   6.703   4.298  1.00  0.00    -0.055 C 
HETATM   17  C   UNL     1      60.229   7.833   1.973  1.00  0.00     0.040 C 
HETATM   18  C   UNL     1      61.212   6.598   5.457  1.00  0.00     0.010 C 
HETATM   19  C   UNL     1      59.130   5.968   4.179  1.00  0.00     0.049 C 
HETATM   20  C   UNL     1      62.475   7.208   5.540  1.00  0.00     0.038 C 
HETATM   21  C   UNL     1      61.158   8.872   1.331  1.00  0.00     0.009 C 
ENDBRANCH   1  12
TORSDOF 3
ENDMDL
MODEL 9
REMARK VINA RESULT:      -4.9      1.974      6.034
REMARK  3 active torsions:
REMARK  status: ('A' for Active; 'I' for Inactive)
REMARK    1  A    between atoms: C_1  and  O_4 
REMARK    2  A    between atoms: C_3  and  O_4 
REMARK    3  A    between atoms: C_9  and  N_12 
ROOT
HETATM    1  O   UNL     1      66.462   7.213   4.632  1.00  0.00    -0.291 OA
ENDROOT
BRANCH   1   2
HETATM    2  C   UNL     1      65.149   7.324   4.231  1.00  0.00     0.174 A 
HETATM    3  N   UNL     1      64.874   6.490   3.194  1.00  0.00    -0.345 N 
HETATM    4  C   UNL     1      63.638   6.534   2.658  1.00  0.00     0.090 A 
ATOM      5  HN  UNL     1      65.581   5.850   2.832  1.00  0.00     0.167 HD
HETATM    6  C   UNL     1      62.633   7.359   3.120  1.00  0.00     0.019 A 
HETATM    7  C   UNL     1      62.926   8.218   4.172  1.00  0.00     0.035 A 
HETATM    8  C   UNL     1      64.201   8.231   4.757  1.00  0.00     0.077 A 
BRANCH   8   9
HETATM    9  N   UNL     1      64.479   9.295   5.637  1.00  0.00    -0.396 N 
HETATM   10  H   UNL     1      65.245   9.889   5.463  1.00  0.00     0.156 HD
HETATM   11  H   UNL     1      63.908   9.446   6.425  1.00  0.00     0.156 HD
ENDBRANCH   8   9
ENDBRANCH   1   2
BRANCH   1  12
HETATM   12  C   UNL     1      66.938   6.073   5.225  1.00  0.00     0.084 C 
HETATM   13  C   UNL     1      67.007   6.083   6.617  1.00  0.00    -0.017 C 
HETATM   14  C   UNL     1      67.288   4.917   7.331  1.00  0.00    -0.043 C 
HETATM   15  C   UNL     1      66.773   7.246   7.523  1.00  0.00     0.042 C 
HETATM   16  C   UNL     1      67.529   3.714   6.673  1.00  0.00    -0.055 C 
HETATM   17  C   UNL     1      67.228   5.158   8.807  1.00  0.00     0.040 C 
HETATM   18  C   UNL     1      67.601   3.740   5.273  1.00  0.00     0.010 C 
HETATM   19  C   UNL     1      67.714   2.434   7.430  1.00  0.00     0.049 C 
HETATM   20  C   UNL     1      67.336   4.917   4.553  1.00  0.00     0.038 C 
HETATM   21  C   UNL     1      67.073   6.680   8.916  1.00  0.00     0.009 C 
ENDBRANCH   1  12
TORSDOF 3
ENDMDL
