MODEL 1
REMARK VINA RESULT:      -4.8      0.000      0.000
REMARK  1 active torsions:
REMARK  status: ('A' for Active; 'I' for Inactive)
REMARK    1  A    between atoms: C_4  and  N_6 
ROOT
HETATM    1  C   UNL     1      62.632  10.088   4.013  1.00  0.00     0.109 A 
HETATM    2  C   UNL     1      62.910  10.700   5.275  1.00  0.00     0.105 C 
HETATM    3  N   UNL     1      63.123  11.156   6.323  1.00  0.00    -0.191 NA
HETATM    4  C   UNL     1      62.910   8.728   3.780  1.00  0.00     0.049 A 
HETATM    5  C   UNL     1      62.041  10.859   3.009  1.00  0.00     0.139 A 
HETATM    6  F   UNL     1      61.758  12.153   3.224  1.00  0.00    -0.204 F 
HETATM    7  C   UNL     1      62.049   8.985   1.507  1.00  0.00     0.005 A 
HETATM    8  C   UNL     1      62.650   8.207   2.501  1.00  0.00     0.031 A 
HETATM    9  C   UNL     1      61.742  10.316   1.764  1.00  0.00     0.044 A 
ENDROOT
BRANCH   4  10
HETATM   10  N   UNL     1      63.638   7.937   4.684  1.00  0.00    -0.398 N 
HETATM   11  H   UNL     1      63.898   7.021   4.439  1.00  0.00     0.156 HD
HETATM   12  H   UNL     1      63.888   8.300   5.565  1.00  0.00     0.156 HD
ENDBRANCH   4  10
TORSDOF 1
ENDMDL
MODEL 2
REMARK VINA RESULT:      -4.7      1.824      2.939
REMARK  1 active torsions:
REMARK  status: ('A' for Active; 'I' for Inactive)
REMARK    1  A    between atoms: C_4  and  N_6 
ROOT
HETATM    1  C   UNL     1      63.192   9.312   4.596  1.00  0.00     0.109 A 
HETATM    2  C   UNL     1      63.918   8.413   5.437  1.00  0.00     0.105 C 
HETATM    3  N   UNL     1      64.534   7.720   6.139  1.00  0.00    -0.191 NA
HETATM    4  C   UNL     1      62.840  10.603   5.031  1.00  0.00     0.049 A 
HETATM    5  C   UNL     1      62.859   8.900   3.303  1.00  0.00     0.139 A 
HETATM    6  F   UNL     1      63.202   7.676   2.871  1.00  0.00    -0.204 F 
HETATM    7  C   UNL     1      61.770  10.996   2.870  1.00  0.00     0.005 A 
HETATM    8  C   UNL     1      62.088  11.414   4.166  1.00  0.00     0.031 A 
HETATM    9  C   UNL     1      62.159   9.733   2.437  1.00  0.00     0.044 A 
ENDROOT
BRANCH   4  10
HETATM   10  N   UNL     1      63.007  11.026   6.361  1.00  0.00    -0.398 N 
HETATM   11  H   UNL     1      63.042  10.363   7.087  1.00  0.00     0.156 HD
HETATM   12  H   UNL     1      63.086  11.985   6.567  1.00  0.00     0.156 HD
ENDBRANCH   4  10
TORSDOF 1
ENDMDL
MODEL 3
REMARK VINA RESULT:      -4.5      2.099      2.709
REMARK  1 active torsions:
REMARK  status: ('A' for Active; 'I' for Inactive)
REMARK    1  A    between atoms: C_4  and  N_6 
ROOT
HETATM    1  C   UNL     1      62.636   9.680   3.724  1.00  0.00     0.109 A 
HETATM    2  C   UNL     1      62.837  10.387   4.951  1.00  0.00     0.105 C 
HETATM    3  N   UNL     1      63.012  11.002   5.922  1.00  0.00    -0.191 NA
HETATM    4  C   UNL     1      62.100  10.316   2.589  1.00  0.00     0.049 A 
HETATM    5  C   UNL     1      63.015   8.337   3.655  1.00  0.00     0.139 A 
HETATM    6  F   UNL     1      63.541   7.724   4.726  1.00  0.00    -0.204 F 
HETATM    7  C   UNL     1      62.283   8.206   1.371  1.00  0.00     0.005 A 
HETATM    8  C   UNL     1      61.890   9.546   1.433  1.00  0.00     0.031 A 
HETATM    9  C   UNL     1      62.850   7.600   2.487  1.00  0.00     0.044 A 
ENDROOT
BRANCH   4  10
HETATM   10  N   UNL     1      61.558  11.612   2.632  1.00  0.00    -0.398 N 
HETATM   11  H   UNL     1      60.666  11.760   3.020  1.00  0.00     0.156 HD
HETATM   12  H   UNL     1      62.070  12.372   2.272  1.00  0.00     0.156 HD
ENDBRANCH   4  10
TORSDOF 1
ENDMDL
MODEL 4
REMARK VINA RESULT:      -4.5      2.691      4.126
REMARK  1 active torsions:
REMARK  status: ('A' for Active; 'I' for Inactive)
REMARK    1  A    between atoms: C_4  and  N_6 
ROOT
HETATM    1  C   UNL     1      62.455   9.474   2.764  1.00  0.00     0.109 A 
HETATM    2  C   UNL     1      62.243   8.922   1.462  1.00  0.00     0.105 C 
HETATM    3  N   UNL     1      62.026   8.495   0.402  1.00  0.00    -0.191 NA
HETATM    4  C   UNL     1      61.971  10.750   3.108  1.00  0.00     0.049 A 
HETATM    5  C   UNL     1      63.130   8.706   3.715  1.00  0.00     0.139 A 
HETATM    6  F   UNL     1      63.583   7.481   3.403  1.00  0.00    -0.204 F 
HETATM    7  C   UNL     1      62.923  10.462   5.340  1.00  0.00     0.005 A 
HETATM    8  C   UNL     1      62.256  11.244   4.392  1.00  0.00     0.031 A 
HETATM    9  C   UNL     1      63.360   9.187   5.000  1.00  0.00     0.044 A 
ENDROOT
BRANCH   4  10
HETATM   10  N   UNL     1      61.422  11.633   2.163  1.00  0.00    -0.398 N 
HETATM   11  H   UNL     1      60.517  11.476   1.811  1.00  0.00     0.156 HD
HETATM   12  H   UNL     1      61.944  12.407   1.851  1.00  0.00     0.156 HD
ENDBRANCH   4  10
TORSDOF 1
ENDMDL
MODEL 5
REMARK VINA RESULT:      -4.4      1.622      2.120
REMARK  1 active torsions:
REMARK  status: ('A' for Active; 'I' for Inactive)
REMARK    1  A    between atoms: C_4  and  N_6 
ROOT
HETATM    1  C   UNL     1      62.619   9.490   3.403  1.00  0.00     0.109 A 
HETATM    2  C   UNL     1      62.216  10.810   3.777  1.00  0.00     0.105 C 
HETATM    3  N   UNL     1      61.884  11.868   4.128  1.00  0.00    -0.191 NA
HETATM    4  C   UNL     1      63.398   8.690   4.259  1.00  0.00     0.049 A 
HETATM    5  C   UNL     1      62.196   8.984   2.172  1.00  0.00     0.139 A 
HETATM    6  F   UNL     1      61.440   9.733   1.353  1.00  0.00    -0.204 F 
HETATM    7  C   UNL     1      63.354   6.919   2.575  1.00  0.00     0.005 A 
HETATM    8  C   UNL     1      63.792   7.420   3.805  1.00  0.00     0.031 A 
HETATM    9  C   UNL     1      62.550   7.705   1.757  1.00  0.00     0.044 A 
ENDROOT
BRANCH   4  10
HETATM   10  N   UNL     1      63.983   9.186   5.436  1.00  0.00    -0.398 N 
HETATM   11  H   UNL     1      64.624   9.931   5.391  1.00  0.00     0.156 HD
HETATM   12  H   UNL     1      63.753   8.787   6.307  1.00  0.00     0.156 HD
ENDBRANCH   4  10
TORSDOF 1
ENDMDL
MODEL 6
REMARK VINA RESULT:      -4.4      1.666      3.123
REMARK  1 active torsions:
REMARK  status: ('A' for Active; 'I' for Inactive)
REMARK    1  A    between atoms: C_4  and  N_6 
ROOT
HETATM    1  C   UNL     1      62.967   8.857   3.561  1.00  0.00     0.109 A 
HETATM    2  C   UNL     1      63.335   7.571   3.055  1.00  0.00     0.105 C 
HETATM    3  N   UNL     1      63.676   6.530   2.667  1.00  0.00    -0.191 NA
HETATM    4  C   UNL     1      63.337   9.271   4.854  1.00  0.00     0.049 A 
HETATM    5  C   UNL     1      62.253   9.725   2.731  1.00  0.00     0.139 A 
HETATM    6  F   UNL     1      61.906   9.347   1.490  1.00  0.00    -0.204 F 
HETATM    7  C   UNL     1      62.197  11.395   4.456  1.00  0.00     0.005 A 
HETATM    8  C   UNL     1      62.903  10.530   5.299  1.00  0.00     0.031 A 
HETATM    9  C   UNL     1      61.873  10.990   3.166  1.00  0.00     0.044 A 
ENDROOT
BRANCH   4  10
HETATM   10  N   UNL     1      63.918   8.399   5.791  1.00  0.00    -0.398 N 
HETATM   11  H   UNL     1      63.361   7.979   6.484  1.00  0.00     0.156 HD
HETATM   12  H   UNL     1      64.884   8.210   5.755  1.00  0.00     0.156 HD
ENDBRANCH   4  10
TORSDOF 1
ENDMDL
MODEL 7
REMARK VINA RESULT:      -4.3      1.756      3.164
REMARK  1 active torsions:
REMARK  status: ('A' for Active; 'I' for Inactive)
REMARK    1  A    between atoms: C_4  and  N_6 
ROOT
HETATM    1  C   UNL     1      62.357   9.603   2.729  1.00  0.00     0.109 A 
HETATM    2  C   UNL     1      62.127   9.078   1.419  1.00  0.00     0.105 C 
HETATM    3  N   UNL     1      61.984   8.628   0.357  1.00  0.00    -0.191 NA
HETATM    4  C   UNL     1      63.022   8.851   3.715  1.00  0.00     0.049 A 
HETATM    5  C   UNL     1      61.937  10.905   3.013  1.00  0.00     0.139 A 
HETATM    6  F   UNL     1      61.315  11.637   2.075  1.00  0.00    -0.204 F 
HETATM    7  C   UNL     1      62.757  10.724   5.263  1.00  0.00     0.005 A 
HETATM    8  C   UNL     1      63.172   9.416   4.992  1.00  0.00     0.031 A 
HETATM    9  C   UNL     1      62.139  11.471   4.267  1.00  0.00     0.044 A 
ENDROOT
BRANCH   4  10
HETATM   10  N   UNL     1      63.333   7.491   3.550  1.00  0.00    -0.398 N 
HETATM   11  H   UNL     1      64.234   7.161   3.771  1.00  0.00     0.156 HD
HETATM   12  H   UNL     1      62.651   6.867   3.211  1.00  0.00     0.156 HD
ENDBRANCH   4  10
TORSDOF 1
ENDMDL
MODEL 8
REMARK VINA RESULT:      -4.3      2.271      2.892
REMARK  1 active torsions:
REMARK  status: ('A' for Active; 'I' for Inactive)
REMARK    1  A    between atoms: C_4  and  N_6 
ROOT
HETATM    1  C   UNL     1      62.621   9.422   3.497  1.00  0.00     0.109 A 
HETATM    2  C   UNL     1      62.235  10.736   3.906  1.00  0.00     0.105 C 
HETATM    3  N   UNL     1      61.917  11.818   4.191  1.00  0.00    -0.191 NA
HETATM    4  C   UNL     1      62.065   8.815   2.356  1.00  0.00     0.049 A 
HETATM    5  C   UNL     1      63.597   8.749   4.236  1.00  0.00     0.139 A 
HETATM    6  F   UNL     1      64.145   9.324   5.319  1.00  0.00    -0.204 F 
HETATM    7  C   UNL     1      63.446   6.844   2.782  1.00  0.00     0.005 A 
HETATM    8  C   UNL     1      62.461   7.504   2.041  1.00  0.00     0.031 A 
HETATM    9  C   UNL     1      64.018   7.472   3.883  1.00  0.00     0.044 A 
ENDROOT
BRANCH   4  10
HETATM   10  N   UNL     1      60.976   9.366   1.659  1.00  0.00    -0.398 N 
HETATM   11  H   UNL     1      60.173   8.823   1.493  1.00  0.00     0.156 HD
HETATM   12  H   UNL     1      61.018  10.294   1.335  1.00  0.00     0.156 HD
ENDBRANCH   4  10
TORSDOF 1
ENDMDL
MODEL 9
REMARK VINA RESULT:      -4.0      4.195      5.027
REMARK  1 active torsions:
REMARK  status: ('A' for Active; 'I' for Inactive)
REMARK    1  A    between atoms: C_4  and  N_6 
ROOT
HETATM    1  C   UNL     1      65.535   7.788   5.088  1.00  0.00     0.109 A 
HETATM    2  C   UNL     1      64.559   8.822   5.244  1.00  0.00     0.105 C 
HETATM    3  N   UNL     1      63.768   9.656   5.419  1.00  0.00    -0.191 NA
HETATM    4  C   UNL     1      66.584   7.622   6.011  1.00  0.00     0.049 A 
HETATM    5  C   UNL     1      65.413   6.909   4.009  1.00  0.00     0.139 A 
HETATM    6  F   UNL     1      64.408   7.048   3.129  1.00  0.00    -0.204 F 
HETATM    7  C   UNL     1      67.392   5.732   4.691  1.00  0.00     0.005 A 
HETATM    8  C   UNL     1      67.529   6.613   5.768  1.00  0.00     0.031 A 
HETATM    9  C   UNL     1      66.328   5.880   3.809  1.00  0.00     0.044 A 
ENDROOT
BRANCH   4  10
HETATM   10  N   UNL     1      66.854   8.556   7.026  1.00  0.00    -0.398 N 
HETATM   11  H   UNL     1      67.782   8.822   7.216  1.00  0.00     0.156 HD
HETATM   12  H   UNL     1      66.115   8.943   7.549  1.00  0.00     0.156 HD
ENDBRANCH   4  10
TORSDOF 1
ENDMDL
