MODEL 1
REMARK VINA RESULT:      -5.7      0.000      0.000
REMARK  1 active torsions:
REMARK  status: ('A' for Active; 'I' for Inactive)
REMARK    1  A    between atoms: N_1  and  C_2 
ROOT
HETATM    1  C   UNL     1      62.879   8.483   3.348  1.00  0.00     0.051 A 
HETATM    2  N   UNL     1      61.978  11.822   4.319  1.00  0.00    -0.191 NA
HETATM    3  C   UNL     1      62.138  10.859   3.684  1.00  0.00     0.102 C 
HETATM    4  C   UNL     1      62.276   9.678   2.882  1.00  0.00     0.071 A 
HETATM    5  C   UNL     1      62.973   7.437   2.406  1.00  0.00     0.031 A 
HETATM    6  C   UNL     1      61.803   9.792   1.558  1.00  0.00     0.025 A 
HETATM    7  C   UNL     1      62.503   7.553   1.091  1.00  0.00     0.002 A 
HETATM    8  C   UNL     1      61.916   8.733   0.667  1.00  0.00     0.002 A 
ENDROOT
BRANCH   1   9
HETATM    9  N   UNL     1      63.365   8.289   4.634  1.00  0.00    -0.380 N 
HETATM   10  C   UNL     1      62.556   7.681   5.699  1.00  0.00     0.123 C 
HETATM   11  C   UNL     1      63.291   6.452   6.242  1.00  0.00     0.020 C 
HETATM   12  C   UNL     1      64.720   6.786   6.673  1.00  0.00     0.003 C 
HETATM   13  C   UNL     1      65.482   7.513   5.565  1.00  0.00     0.020 C 
HETATM   14  C   UNL     1      64.694   8.728   5.074  1.00  0.00     0.123 C 
ENDBRANCH   1   9
TORSDOF 1
ENDMDL
MODEL 2
REMARK VINA RESULT:      -5.3      1.242      2.608
REMARK  1 active torsions:
REMARK  status: ('A' for Active; 'I' for Inactive)
REMARK    1  A    between atoms: N_1  and  C_2 
ROOT
HETATM    1  C   UNL     1      62.897   9.184   4.040  1.00  0.00     0.051 A 
HETATM    2  N   UNL     1      63.348   6.283   1.971  1.00  0.00    -0.191 NA
HETATM    3  C   UNL     1      63.048   7.349   2.334  1.00  0.00     0.102 C 
HETATM    4  C   UNL     1      62.707   8.684   2.727  1.00  0.00     0.071 A 
HETATM    5  C   UNL     1      62.458  10.507   4.262  1.00  0.00     0.031 A 
HETATM    6  C   UNL     1      62.119   9.477   1.720  1.00  0.00     0.025 A 
HETATM    7  C   UNL     1      61.874  11.292   3.259  1.00  0.00     0.002 A 
HETATM    8  C   UNL     1      61.705  10.776   1.986  1.00  0.00     0.002 A 
ENDROOT
BRANCH   1   9
HETATM    9  N   UNL     1      63.470   8.472   5.086  1.00  0.00    -0.380 N 
HETATM   10  C   UNL     1      62.668   7.726   6.064  1.00  0.00     0.123 C 
HETATM   11  C   UNL     1      63.114   6.261   6.060  1.00  0.00     0.020 C 
HETATM   12  C   UNL     1      64.622   6.123   6.272  1.00  0.00     0.003 C 
HETATM   13  C   UNL     1      65.405   7.003   5.297  1.00  0.00     0.020 C 
HETATM   14  C   UNL     1      64.912   8.449   5.356  1.00  0.00     0.123 C 
ENDBRANCH   1   9
TORSDOF 1
ENDMDL
MODEL 3
REMARK VINA RESULT:      -5.0      1.677      2.951
REMARK  1 active torsions:
REMARK  status: ('A' for Active; 'I' for Inactive)
REMARK    1  A    between atoms: N_1  and  C_2 
ROOT
HETATM    1  C   UNL     1      63.569   8.835   4.624  1.00  0.00     0.051 A 
HETATM    2  N   UNL     1      63.387   6.414   1.977  1.00  0.00    -0.191 NA
HETATM    3  C   UNL     1      63.211   7.373   2.614  1.00  0.00     0.102 C 
HETATM    4  C   UNL     1      63.006   8.588   3.346  1.00  0.00     0.071 A 
HETATM    5  C   UNL     1      63.221  10.067   5.219  1.00  0.00     0.031 A 
HETATM    6  C   UNL     1      62.157   9.529   2.726  1.00  0.00     0.025 A 
HETATM    7  C   UNL     1      62.377  10.998   4.600  1.00  0.00     0.002 A 
HETATM    8  C   UNL     1      61.845  10.729   3.351  1.00  0.00     0.002 A 
ENDROOT
BRANCH   1   9
HETATM    9  N   UNL     1      64.415   7.966   5.300  1.00  0.00    -0.380 N 
HETATM   10  C   UNL     1      63.921   6.994   6.285  1.00  0.00     0.123 C 
HETATM   11  C   UNL     1      64.351   5.589   5.856  1.00  0.00     0.020 C 
HETATM   12  C   UNL     1      65.858   5.502   5.611  1.00  0.00     0.003 C 
HETATM   13  C   UNL     1      66.334   6.602   4.662  1.00  0.00     0.020 C 
HETATM   14  C   UNL     1      65.874   7.975   5.153  1.00  0.00     0.123 C 
ENDBRANCH   1   9
TORSDOF 1
ENDMDL
MODEL 4
REMARK VINA RESULT:      -4.9      2.080      3.318
REMARK  1 active torsions:
REMARK  status: ('A' for Active; 'I' for Inactive)
REMARK    1  A    between atoms: N_1  and  C_2 
ROOT
HETATM    1  C   UNL     1      62.343   8.540   2.993  1.00  0.00     0.051 A 
HETATM    2  N   UNL     1      62.975   8.113   6.503  1.00  0.00    -0.191 NA
HETATM    3  C   UNL     1      62.748   8.602   5.471  1.00  0.00     0.102 C 
HETATM    4  C   UNL     1      62.419   9.235   4.227  1.00  0.00     0.071 A 
HETATM    5  C   UNL     1      62.055   9.332   1.861  1.00  0.00     0.031 A 
HETATM    6  C   UNL     1      62.212  10.628   4.297  1.00  0.00     0.025 A 
HETATM    7  C   UNL     1      61.851  10.717   1.934  1.00  0.00     0.002 A 
HETATM    8  C   UNL     1      61.929  11.365   3.154  1.00  0.00     0.002 A 
ENDROOT
BRANCH   1   9
HETATM    9  N   UNL     1      62.529   7.173   2.839  1.00  0.00    -0.380 N 
HETATM   10  C   UNL     1      63.841   6.586   2.536  1.00  0.00     0.123 C 
HETATM   11  C   UNL     1      64.193   5.564   3.621  1.00  0.00     0.020 C 
HETATM   12  C   UNL     1      63.085   4.527   3.809  1.00  0.00     0.003 C 
HETATM   13  C   UNL     1      61.725   5.193   4.014  1.00  0.00     0.020 C 
HETATM   14  C   UNL     1      61.438   6.194   2.895  1.00  0.00     0.123 C 
ENDBRANCH   1   9
TORSDOF 1
ENDMDL
MODEL 5
REMARK VINA RESULT:      -4.9      3.214      4.778
REMARK  1 active torsions:
REMARK  status: ('A' for Active; 'I' for Inactive)
REMARK    1  A    between atoms: N_1  and  C_2 
ROOT
HETATM    1  C   UNL     1      64.938   6.846   6.460  1.00  0.00     0.051 A 
HETATM    2  N   UNL     1      68.073   8.081   5.214  1.00  0.00    -0.191 NA
HETATM    3  C   UNL     1      66.930   7.923   5.374  1.00  0.00     0.102 C 
HETATM    4  C   UNL     1      65.516   7.792   5.577  1.00  0.00     0.071 A 
HETATM    5  C   UNL     1      63.528   6.824   6.497  1.00  0.00     0.031 A 
HETATM    6  C   UNL     1      64.714   8.649   4.795  1.00  0.00     0.025 A 
HETATM    7  C   UNL     1      62.734   7.677   5.719  1.00  0.00     0.002 A 
HETATM    8  C   UNL     1      63.329   8.592   4.867  1.00  0.00     0.002 A 
ENDROOT
BRANCH   1   9
HETATM    9  N   UNL     1      65.655   5.970   7.265  1.00  0.00    -0.380 N 
HETATM   10  C   UNL     1      65.957   4.592   6.855  1.00  0.00     0.123 C 
HETATM   11  C   UNL     1      67.474   4.385   6.888  1.00  0.00     0.020 C 
HETATM   12  C   UNL     1      68.074   4.767   8.241  1.00  0.00     0.003 C 
HETATM   13  C   UNL     1      67.640   6.169   8.668  1.00  0.00     0.020 C 
HETATM   14  C   UNL     1      66.118   6.304   8.616  1.00  0.00     0.123 C 
ENDBRANCH   1   9
TORSDOF 1
ENDMDL
MODEL 6
REMARK VINA RESULT:      -4.9      1.589      4.257
REMARK  1 active torsions:
REMARK  status: ('A' for Active; 'I' for Inactive)
REMARK    1  A    between atoms: N_1  and  C_2 
ROOT
HETATM    1  C   UNL     1      63.286   7.621   3.391  1.00  0.00     0.051 A 
HETATM    2  N   UNL     1      61.683  10.768   4.045  1.00  0.00    -0.191 NA
HETATM    3  C   UNL     1      62.424   9.871   4.098  1.00  0.00     0.102 C 
HETATM    4  C   UNL     1      63.384   8.808   4.160  1.00  0.00     0.071 A 
HETATM    5  C   UNL     1      64.295   6.660   3.616  1.00  0.00     0.031 A 
HETATM    6  C   UNL     1      64.435   8.998   5.082  1.00  0.00     0.025 A 
HETATM    7  C   UNL     1      65.337   6.852   4.533  1.00  0.00     0.002 A 
HETATM    8  C   UNL     1      65.407   8.024   5.267  1.00  0.00     0.002 A 
ENDROOT
BRANCH   1   9
HETATM    9  N   UNL     1      62.288   7.357   2.462  1.00  0.00    -0.380 N 
HETATM   10  C   UNL     1      61.040   6.672   2.820  1.00  0.00     0.123 C 
HETATM   11  C   UNL     1      59.855   7.566   2.444  1.00  0.00     0.020 C 
HETATM   12  C   UNL     1      59.914   8.008   0.981  1.00  0.00     0.003 C 
HETATM   13  C   UNL     1      61.273   8.616   0.636  1.00  0.00     0.020 C 
HETATM   14  C   UNL     1      62.407   7.670   1.034  1.00  0.00     0.123 C 
ENDBRANCH   1   9
TORSDOF 1
ENDMDL
MODEL 7
REMARK VINA RESULT:      -4.8      1.333      4.924
REMARK  1 active torsions:
REMARK  status: ('A' for Active; 'I' for Inactive)
REMARK    1  A    between atoms: N_1  and  C_2 
ROOT
HETATM    1  C   UNL     1      63.553   8.013   4.811  1.00  0.00     0.051 A 
HETATM    2  N   UNL     1      60.971   6.150   6.474  1.00  0.00    -0.191 NA
HETATM    3  C   UNL     1      62.013   6.585   6.187  1.00  0.00     0.102 C 
HETATM    4  C   UNL     1      63.305   7.135   5.896  1.00  0.00     0.071 A 
HETATM    5  C   UNL     1      64.895   8.417   4.645  1.00  0.00     0.031 A 
HETATM    6  C   UNL     1      64.346   6.708   6.745  1.00  0.00     0.025 A 
HETATM    7  C   UNL     1      65.927   7.991   5.490  1.00  0.00     0.002 A 
HETATM    8  C   UNL     1      65.652   7.135   6.543  1.00  0.00     0.002 A 
ENDROOT
BRANCH   1   9
HETATM    9  N   UNL     1      62.585   8.483   3.933  1.00  0.00    -0.380 N 
HETATM   10  C   UNL     1      61.838   9.724   4.175  1.00  0.00     0.123 C 
HETATM   11  C   UNL     1      62.038  10.666   2.984  1.00  0.00     0.020 C 
HETATM   12  C   UNL     1      61.690   9.990   1.657  1.00  0.00     0.003 C 
HETATM   13  C   UNL     1      62.414   8.652   1.505  1.00  0.00     0.020 C 
HETATM   14  C   UNL     1      62.168   7.763   2.725  1.00  0.00     0.123 C 
ENDBRANCH   1   9
TORSDOF 1
ENDMDL
MODEL 8
REMARK VINA RESULT:      -4.5      2.051      3.349
REMARK  1 active torsions:
REMARK  status: ('A' for Active; 'I' for Inactive)
REMARK    1  A    between atoms: N_1  and  C_2 
ROOT
HETATM    1  C   UNL     1      62.699   8.806   3.906  1.00  0.00     0.051 A 
HETATM    2  N   UNL     1      61.495   8.409   0.545  1.00  0.00    -0.191 NA
HETATM    3  C   UNL     1      61.765   8.879   1.576  1.00  0.00     0.102 C 
HETATM    4  C   UNL     1      62.126   9.506   2.814  1.00  0.00     0.071 A 
HETATM    5  C   UNL     1      62.944   9.574   5.064  1.00  0.00     0.031 A 
HETATM    6  C   UNL     1      61.831  10.883   2.900  1.00  0.00     0.025 A 
HETATM    7  C   UNL     1      62.650  10.941   5.147  1.00  0.00     0.002 A 
HETATM    8  C   UNL     1      62.093  11.597   4.061  1.00  0.00     0.002 A 
ENDROOT
BRANCH   1   9
HETATM    9  N   UNL     1      63.022   7.456   3.901  1.00  0.00    -0.380 N 
HETATM   10  C   UNL     1      62.107   6.426   4.412  1.00  0.00     0.123 C 
HETATM   11  C   UNL     1      61.837   5.406   3.303  1.00  0.00     0.020 C 
HETATM   12  C   UNL     1      63.132   4.840   2.719  1.00  0.00     0.003 C 
HETATM   13  C   UNL     1      64.090   5.956   2.302  1.00  0.00     0.020 C 
HETATM   14  C   UNL     1      64.318   6.933   3.456  1.00  0.00     0.123 C 
ENDBRANCH   1   9
TORSDOF 1
ENDMDL
MODEL 9
REMARK VINA RESULT:      -4.5      2.222      3.402
REMARK  1 active torsions:
REMARK  status: ('A' for Active; 'I' for Inactive)
REMARK    1  A    between atoms: N_1  and  C_2 
ROOT
HETATM    1  C   UNL     1      64.800   6.210   4.243  1.00  0.00     0.051 A 
HETATM    2  N   UNL     1      64.778   9.484   5.719  1.00  0.00    -0.191 NA
HETATM    3  C   UNL     1      64.566   8.592   5.000  1.00  0.00     0.102 C 
HETATM    4  C   UNL     1      64.243   7.508   4.120  1.00  0.00     0.071 A 
HETATM    5  C   UNL     1      64.406   5.278   3.258  1.00  0.00     0.031 A 
HETATM    6  C   UNL     1      63.350   7.826   3.075  1.00  0.00     0.025 A 
HETATM    7  C   UNL     1      63.519   5.598   2.221  1.00  0.00     0.002 A 
HETATM    8  C   UNL     1      62.990   6.874   2.131  1.00  0.00     0.002 A 
ENDROOT
BRANCH   1   9
HETATM    9  N   UNL     1      65.681   5.815   5.241  1.00  0.00    -0.380 N 
HETATM   10  C   UNL     1      67.136   5.790   5.043  1.00  0.00     0.123 C 
HETATM   11  C   UNL     1      67.797   6.673   6.106  1.00  0.00     0.020 C 
HETATM   12  C   UNL     1      67.365   6.285   7.520  1.00  0.00     0.003 C 
HETATM   13  C   UNL     1      65.842   6.222   7.640  1.00  0.00     0.020 C 
HETATM   14  C   UNL     1      65.250   5.323   6.555  1.00  0.00     0.123 C 
ENDBRANCH   1   9
TORSDOF 1
ENDMDL
