MODEL 1
REMARK VINA RESULT:      -4.3      0.000      0.000
REMARK  1 active torsions:
REMARK  status: ('A' for Active; 'I' for Inactive)
REMARK    1  A    between atoms: N_4  and  O_11 
ROOT
HETATM    1  C   UNL     1      63.689   9.379   5.402  1.00  0.00     0.040 C 
HETATM    2  N   UNL     1      64.747   7.229   4.934  1.00  0.00    -0.066 N 
HETATM    3  C   UNL     1      64.982   8.592   5.484  1.00  0.00     0.289 C 
HETATM    4  N   UNL     1      63.563  10.596   5.804  1.00  0.00    -0.275 N 
ATOM      5  HN  UNL     1      62.660  11.061   5.712  1.00  0.00     0.193 HD
HETATM    6  C   UNL     1      62.545   8.622   4.794  1.00  0.00     0.038 C 
HETATM    7  C   UNL     1      62.350   7.372   5.678  1.00  0.00     0.038 C 
HETATM    8  C   UNL     1      63.029   8.212   3.388  1.00  0.00     0.038 C 
HETATM    9  C   UNL     1      64.294   7.316   3.519  1.00  0.00     0.236 C 
HETATM   10  C   UNL     1      63.675   6.554   5.714  1.00  0.00     0.236 C 
HETATM   11  H   UNL     1      65.619   6.704   4.992  1.00  0.00     0.280 HD
ENDROOT
BRANCH   4  12
HETATM   12  O   UNL     1      64.572  11.251   6.331  1.00  0.00    -0.290 OA
HETATM   13  H   UNL     1      65.062  11.854   5.807  1.00  0.00     0.244 HD
ENDBRANCH   4  12
TORSDOF 1
ENDMDL
MODEL 2
REMARK VINA RESULT:      -4.2      1.942      2.219
REMARK  1 active torsions:
REMARK  status: ('A' for Active; 'I' for Inactive)
REMARK    1  A    between atoms: N_4  and  O_11 
ROOT
HETATM    1  C   UNL     1      62.196   9.283   3.981  1.00  0.00     0.040 C 
HETATM    2  N   UNL     1      63.738   8.541   5.722  1.00  0.00    -0.066 N 
HETATM    3  C   UNL     1      63.057   9.732   5.145  1.00  0.00     0.289 C 
HETATM    4  N   UNL     1      61.473  10.080   3.273  1.00  0.00    -0.275 N 
ATOM      5  HN  UNL     1      60.923   9.703   2.502  1.00  0.00     0.193 HD
HETATM    6  C   UNL     1      62.259   7.810   3.701  1.00  0.00     0.038 C 
HETATM    7  C   UNL     1      61.799   7.115   4.998  1.00  0.00     0.038 C 
HETATM    8  C   UNL     1      63.748   7.510   3.431  1.00  0.00     0.038 C 
HETATM    9  C   UNL     1      64.584   7.883   4.689  1.00  0.00     0.236 C 
HETATM   10  C   UNL     1      62.721   7.554   6.174  1.00  0.00     0.236 C 
HETATM   11  H   UNL     1      64.315   8.848   6.505  1.00  0.00     0.280 HD
ENDROOT
BRANCH   4  12
HETATM   12  O   UNL     1      61.429  11.369   3.524  1.00  0.00    -0.290 OA
HETATM   13  H   UNL     1      61.576  11.680   4.395  1.00  0.00     0.244 HD
ENDBRANCH   4  12
TORSDOF 1
ENDMDL
MODEL 3
REMARK VINA RESULT:      -4.2      1.767      2.929
REMARK  1 active torsions:
REMARK  status: ('A' for Active; 'I' for Inactive)
REMARK    1  A    between atoms: N_4  and  O_11 
ROOT
HETATM    1  C   UNL     1      63.085   9.318   4.680  1.00  0.00     0.040 C 
HETATM    2  N   UNL     1      61.304   9.375   3.011  1.00  0.00    -0.066 N 
HETATM    3  C   UNL     1      62.087  10.207   3.964  1.00  0.00     0.289 C 
HETATM    4  N   UNL     1      63.917   9.742   5.567  1.00  0.00    -0.275 N 
ATOM      5  HN  UNL     1      64.555   9.080   6.008  1.00  0.00     0.193 HD
HETATM    6  C   UNL     1      63.021   7.874   4.278  1.00  0.00     0.038 C 
HETATM    7  C   UNL     1      63.284   7.848   2.758  1.00  0.00     0.038 C 
HETATM    8  C   UNL     1      61.574   7.431   4.578  1.00  0.00     0.038 C 
HETATM    9  C   UNL     1      60.587   8.294   3.742  1.00  0.00     0.236 C 
HETATM   10  C   UNL     1      62.224   8.731   2.036  1.00  0.00     0.236 C 
HETATM   11  H   UNL     1      60.635   9.978   2.532  1.00  0.00     0.280 HD
ENDROOT
BRANCH   4  12
HETATM   12  O   UNL     1      63.961  11.007   5.915  1.00  0.00    -0.290 OA
HETATM   13  H   UNL     1      63.200  11.546   5.816  1.00  0.00     0.244 HD
ENDBRANCH   4  12
TORSDOF 1
ENDMDL
MODEL 4
REMARK VINA RESULT:      -4.1      2.957      3.663
REMARK  1 active torsions:
REMARK  status: ('A' for Active; 'I' for Inactive)
REMARK    1  A    between atoms: N_4  and  O_11 
ROOT
HETATM    1  C   UNL     1      61.872  10.038   2.664  1.00  0.00     0.040 C 
HETATM    2  N   UNL     1      62.163   7.883   1.553  1.00  0.00    -0.066 N 
HETATM    3  C   UNL     1      62.137   9.355   1.336  1.00  0.00     0.289 C 
HETATM    4  N   UNL     1      61.795  11.315   2.812  1.00  0.00    -0.275 N 
ATOM      5  HN  UNL     1      61.609  11.699   3.739  1.00  0.00     0.193 HD
HETATM    6  C   UNL     1      61.692   9.093   3.816  1.00  0.00     0.038 C 
HETATM    7  C   UNL     1      62.994   8.270   3.893  1.00  0.00     0.038 C 
HETATM    8  C   UNL     1      60.508   8.187   3.418  1.00  0.00     0.038 C 
HETATM    9  C   UNL     1      60.862   7.423   2.110  1.00  0.00     0.236 C 
HETATM   10  C   UNL     1      63.226   7.542   2.536  1.00  0.00     0.236 C 
HETATM   11  H   UNL     1      62.341   7.430   0.657  1.00  0.00     0.280 HD
ENDROOT
BRANCH   4  12
HETATM   12  O   UNL     1      61.950  12.132   1.796  1.00  0.00    -0.290 OA
HETATM   13  H   UNL     1      61.373  12.864   1.692  1.00  0.00     0.244 HD
ENDBRANCH   4  12
TORSDOF 1
ENDMDL
MODEL 5
REMARK VINA RESULT:      -3.9      3.217      4.116
REMARK  1 active torsions:
REMARK  status: ('A' for Active; 'I' for Inactive)
REMARK    1  A    between atoms: N_4  and  O_11 
ROOT
HETATM    1  C   UNL     1      65.769   7.240   6.594  1.00  0.00     0.040 C 
HETATM    2  N   UNL     1      68.032   6.387   6.932  1.00  0.00    -0.066 N 
HETATM    3  C   UNL     1      67.244   7.536   6.407  1.00  0.00     0.289 C 
HETATM    4  N   UNL     1      64.826   8.044   6.245  1.00  0.00    -0.275 N 
ATOM      5  HN  UNL     1      63.855   7.772   6.400  1.00  0.00     0.193 HD
HETATM    6  C   UNL     1      65.484   5.907   7.220  1.00  0.00     0.038 C 
HETATM    7  C   UNL     1      66.199   5.921   8.587  1.00  0.00     0.038 C 
HETATM    8  C   UNL     1      66.138   4.869   6.285  1.00  0.00     0.038 C 
HETATM    9  C   UNL     1      67.667   5.140   6.205  1.00  0.00     0.236 C 
HETATM   10  C   UNL     1      67.719   6.182   8.371  1.00  0.00     0.236 C 
HETATM   11  H   UNL     1      69.023   6.591   6.803  1.00  0.00     0.280 HD
ENDROOT
BRANCH   4  12
HETATM   12  O   UNL     1      65.087   9.207   5.694  1.00  0.00    -0.290 OA
HETATM   13  H   UNL     1      64.395   9.710   5.312  1.00  0.00     0.244 HD
ENDBRANCH   4  12
TORSDOF 1
ENDMDL
MODEL 6
REMARK VINA RESULT:      -3.9      2.851      3.479
REMARK  1 active torsions:
REMARK  status: ('A' for Active; 'I' for Inactive)
REMARK    1  A    between atoms: N_4  and  O_11 
ROOT
HETATM    1  C   UNL     1      61.667   9.858   2.533  1.00  0.00     0.040 C 
HETATM    2  N   UNL     1      62.204   7.625   3.361  1.00  0.00    -0.066 N 
HETATM    3  C   UNL     1      62.241   9.074   3.697  1.00  0.00     0.289 C 
HETATM    4  N   UNL     1      61.555  11.141   2.516  1.00  0.00    -0.275 N 
ATOM      5  HN  UNL     1      61.162  11.596   1.693  1.00  0.00     0.193 HD
HETATM    6  C   UNL     1      61.240   9.009   1.372  1.00  0.00     0.038 C 
HETATM    7  C   UNL     1      60.181   8.035   1.928  1.00  0.00     0.038 C 
HETATM    8  C   UNL     1      62.506   8.237   0.944  1.00  0.00     0.038 C 
HETATM    9  C   UNL     1      63.000   7.362   2.131  1.00  0.00     0.236 C 
HETATM   10  C   UNL     1      60.802   7.209   3.093  1.00  0.00     0.236 C 
HETATM   11  H   UNL     1      62.591   7.103   4.148  1.00  0.00     0.280 HD
ENDROOT
BRANCH   4  12
HETATM   12  O   UNL     1      61.936  11.874   3.537  1.00  0.00    -0.290 OA
HETATM   13  H   UNL     1      61.736  11.600   4.410  1.00  0.00     0.244 HD
ENDBRANCH   4  12
TORSDOF 1
ENDMDL
MODEL 7
REMARK VINA RESULT:      -3.9      4.248      5.072
REMARK  1 active torsions:
REMARK  status: ('A' for Active; 'I' for Inactive)
REMARK    1  A    between atoms: N_4  and  O_11 
ROOT
HETATM    1  C   UNL     1      60.276   8.396   1.544  1.00  0.00     0.040 C 
HETATM    2  N   UNL     1      61.878   8.109   3.364  1.00  0.00    -0.066 N 
HETATM    3  C   UNL     1      60.445   7.968   2.989  1.00  0.00     0.289 C 
HETATM    4  N   UNL     1      59.150   8.384   0.919  1.00  0.00    -0.275 N 
ATOM      5  HN  UNL     1      59.117   8.692  -0.053  1.00  0.00     0.193 HD
HETATM    6  C   UNL     1      61.544   8.854   0.887  1.00  0.00     0.038 C 
HETATM    7  C   UNL     1      62.520   7.663   0.976  1.00  0.00     0.038 C 
HETATM    8  C   UNL     1      62.051  10.027   1.752  1.00  0.00     0.038 C 
HETATM    9  C   UNL     1      62.316   9.521   3.199  1.00  0.00     0.236 C 
HETATM   10  C   UNL     1      62.715   7.265   2.469  1.00  0.00     0.236 C 
HETATM   11  H   UNL     1      61.986   7.820   4.337  1.00  0.00     0.280 HD
ENDROOT
BRANCH   4  12
HETATM   12  O   UNL     1      58.046   7.985   1.506  1.00  0.00    -0.290 OA
HETATM   13  H   UNL     1      57.436   8.617   1.834  1.00  0.00     0.244 HD
ENDBRANCH   4  12
TORSDOF 1
ENDMDL
MODEL 8
REMARK VINA RESULT:      -3.8      4.016      4.843
REMARK  1 active torsions:
REMARK  status: ('A' for Active; 'I' for Inactive)
REMARK    1  A    between atoms: N_4  and  O_11 
ROOT
HETATM    1  C   UNL     1      66.929   6.764   6.900  1.00  0.00     0.040 C 
HETATM    2  N   UNL     1      65.841   4.980   8.162  1.00  0.00    -0.066 N 
HETATM    3  C   UNL     1      66.081   6.448   8.116  1.00  0.00     0.289 C 
HETATM    4  N   UNL     1      67.306   7.953   6.577  1.00  0.00    -0.275 N 
ATOM      5  HN  UNL     1      67.880   8.085   5.745  1.00  0.00     0.193 HD
HETATM    6  C   UNL     1      67.314   5.562   6.089  1.00  0.00     0.038 C 
HETATM    7  C   UNL     1      65.988   4.905   5.654  1.00  0.00     0.038 C 
HETATM    8  C   UNL     1      68.074   4.639   7.064  1.00  0.00     0.038 C 
HETATM    9  C   UNL     1      67.135   4.250   8.241  1.00  0.00     0.236 C 
HETATM   10  C   UNL     1      65.150   4.548   6.917  1.00  0.00     0.236 C 
HETATM   11  H   UNL     1      65.270   4.772   8.981  1.00  0.00     0.280 HD
ENDROOT
BRANCH   4  12
HETATM   12  O   UNL     1      66.967   8.997   7.297  1.00  0.00    -0.290 OA
HETATM   13  H   UNL     1      66.487   9.700   6.904  1.00  0.00     0.244 HD
ENDBRANCH   4  12
TORSDOF 1
ENDMDL
MODEL 9
REMARK VINA RESULT:      -3.8      2.448      3.133
REMARK  1 active torsions:
REMARK  status: ('A' for Active; 'I' for Inactive)
REMARK    1  A    between atoms: N_4  and  O_11 
ROOT
HETATM    1  C   UNL     1      66.089   7.588   6.460  1.00  0.00     0.040 C 
HETATM    2  N   UNL     1      63.999   6.420   5.981  1.00  0.00    -0.066 N 
HETATM    3  C   UNL     1      65.055   6.624   7.009  1.00  0.00     0.289 C 
HETATM    4  N   UNL     1      67.130   7.973   7.113  1.00  0.00    -0.275 N 
ATOM      5  HN  UNL     1      67.783   8.621   6.673  1.00  0.00     0.193 HD
HETATM    6  C   UNL     1      65.808   8.061   5.064  1.00  0.00     0.038 C 
HETATM    7  C   UNL     1      64.425   8.743   5.121  1.00  0.00     0.038 C 
HETATM    8  C   UNL     1      65.739   6.781   4.206  1.00  0.00     0.038 C 
HETATM    9  C   UNL     1      64.595   5.869   4.734  1.00  0.00     0.236 C 
HETATM   10  C   UNL     1      63.369   7.726   5.646  1.00  0.00     0.236 C 
HETATM   11  H   UNL     1      63.306   5.772   6.356  1.00  0.00     0.280 HD
ENDROOT
BRANCH   4  12
HETATM   12  O   UNL     1      67.369   7.548   8.332  1.00  0.00    -0.290 OA
HETATM   13  H   UNL     1      66.986   6.747   8.632  1.00  0.00     0.244 HD
ENDBRANCH   4  12
TORSDOF 1
ENDMDL
