MODEL 1
REMARK VINA RESULT:      -4.9      0.000      0.000
REMARK  2 active torsions:
REMARK  status: ('A' for Active; 'I' for Inactive)
REMARK    1  A    between atoms: S_1  and  C_2 
REMARK    2  A    between atoms: S_1  and  N_9 
ROOT
HETATM    1  C   UNL     1      63.645   8.472   4.598  1.00  0.00     0.077 A 
HETATM    2  C   UNL     1      63.224   9.759   4.944  1.00  0.00     0.048 A 
HETATM    3  C   UNL     1      63.310   7.914   3.363  1.00  0.00     0.048 A 
HETATM    4  C   UNL     1      62.448  10.482   4.041  1.00  0.00     0.037 A 
HETATM    5  C   UNL     1      62.534   8.654   2.475  1.00  0.00     0.037 A 
HETATM    6  C   UNL     1      62.099   9.937   2.806  1.00  0.00     0.047 A 
HETATM    7 CL   UNL     1      61.918  12.065   4.452  1.00  0.00    -0.084 Cl
HETATM    8 CL   UNL     1      62.109   7.978   0.950  1.00  0.00    -0.084 Cl
ENDROOT
BRANCH   1   9
HETATM    9  S   UNL     1      64.673   7.566   5.713  1.00  0.00     0.239 S 
HETATM   10  O   UNL     1      65.374   6.540   4.979  1.00  0.00    -0.206 OA
HETATM   11  O   UNL     1      63.933   7.294   6.921  1.00  0.00    -0.206 OA
BRANCH   9  12
HETATM   12  N   UNL     1      65.823   8.718   6.120  1.00  0.00    -0.225 NA
HETATM   13  H   UNL     1      65.916   9.390   5.358  1.00  0.00     0.136 HD
HETATM   14  H   UNL     1      66.720   8.260   6.282  1.00  0.00     0.136 HD
ENDBRANCH   9  12
ENDBRANCH   1   9
TORSDOF 2
ENDMDL
MODEL 2
REMARK VINA RESULT:      -4.7      0.188      2.609
REMARK  2 active torsions:
REMARK  status: ('A' for Active; 'I' for Inactive)
REMARK    1  A    between atoms: S_1  and  C_2 
REMARK    2  A    between atoms: S_1  and  N_9 
ROOT
HETATM    1  C   UNL     1      63.693   8.512   4.672  1.00  0.00     0.077 A 
HETATM    2  C   UNL     1      63.252   7.980   3.457  1.00  0.00     0.048 A 
HETATM    3  C   UNL     1      63.325   9.800   5.068  1.00  0.00     0.048 A 
HETATM    4  C   UNL     1      62.446   8.759   2.631  1.00  0.00     0.037 A 
HETATM    5  C   UNL     1      62.518  10.561   4.227  1.00  0.00     0.037 A 
HETATM    6  C   UNL     1      62.075  10.048   3.009  1.00  0.00     0.047 A 
HETATM    7 CL   UNL     1      61.899   8.121   1.131  1.00  0.00    -0.084 Cl
HETATM    8 CL   UNL     1      62.059  12.150   4.700  1.00  0.00    -0.084 Cl
ENDROOT
BRANCH   1   9
HETATM    9  S   UNL     1      64.672   7.515   5.752  1.00  0.00     0.239 S 
HETATM   10  O   UNL     1      65.320   6.481   4.981  1.00  0.00    -0.206 OA
HETATM   11  O   UNL     1      63.918   7.236   6.950  1.00  0.00    -0.206 OA
BRANCH   9  12
HETATM   12  N   UNL     1      65.879   8.590   6.200  1.00  0.00    -0.225 NA
HETATM   13  H   UNL     1      66.718   8.409   5.648  1.00  0.00     0.136 HD
HETATM   14  H   UNL     1      66.091   8.470   7.190  1.00  0.00     0.136 HD
ENDBRANCH   9  12
ENDBRANCH   1   9
TORSDOF 2
ENDMDL
MODEL 3
REMARK VINA RESULT:      -4.5      1.549      3.077
REMARK  2 active torsions:
REMARK  status: ('A' for Active; 'I' for Inactive)
REMARK    1  A    between atoms: S_1  and  C_2 
REMARK    2  A    between atoms: S_1  and  N_9 
ROOT
HETATM    1  C   UNL     1      63.080   8.561   4.041  1.00  0.00     0.077 A 
HETATM    2  C   UNL     1      62.801   7.526   3.144  1.00  0.00     0.048 A 
HETATM    3  C   UNL     1      62.717   9.878   3.753  1.00  0.00     0.048 A 
HETATM    4  C   UNL     1      62.163   7.826   1.943  1.00  0.00     0.037 A 
HETATM    5  C   UNL     1      62.080  10.156   2.548  1.00  0.00     0.037 A 
HETATM    6  C   UNL     1      61.800   9.137   1.638  1.00  0.00     0.047 A 
HETATM    7 CL   UNL     1      61.816   6.566   0.827  1.00  0.00    -0.084 Cl
HETATM    8 CL   UNL     1      61.629  11.775   2.177  1.00  0.00    -0.084 Cl
ENDROOT
BRANCH   1   9
HETATM    9  S   UNL     1      63.841   8.185   5.590  1.00  0.00     0.239 S 
HETATM   10  O   UNL     1      62.814   7.996   6.586  1.00  0.00    -0.206 OA
HETATM   11  O   UNL     1      64.966   9.066   5.788  1.00  0.00    -0.206 OA
BRANCH   9  12
HETATM   12  N   UNL     1      64.485   6.665   5.288  1.00  0.00    -0.225 NA
HETATM   13  H   UNL     1      65.135   6.721   4.504  1.00  0.00     0.136 HD
HETATM   14  H   UNL     1      63.732   6.017   5.060  1.00  0.00     0.136 HD
ENDBRANCH   9  12
ENDBRANCH   1   9
TORSDOF 2
ENDMDL
MODEL 4
REMARK VINA RESULT:      -4.4      1.381      1.716
REMARK  2 active torsions:
REMARK  status: ('A' for Active; 'I' for Inactive)
REMARK    1  A    between atoms: S_1  and  C_2 
REMARK    2  A    between atoms: S_1  and  N_9 
ROOT
HETATM    1  C   UNL     1      62.972   8.361   4.406  1.00  0.00     0.077 A 
HETATM    2  C   UNL     1      62.737   9.671   4.832  1.00  0.00     0.048 A 
HETATM    3  C   UNL     1      62.740   7.982   3.082  1.00  0.00     0.048 A 
HETATM    4  C   UNL     1      62.250  10.601   3.917  1.00  0.00     0.037 A 
HETATM    5  C   UNL     1      62.254   8.928   2.184  1.00  0.00     0.037 A 
HETATM    6  C   UNL     1      62.007  10.238   2.593  1.00  0.00     0.047 A 
HETATM    7 CL   UNL     1      61.950  12.216   4.425  1.00  0.00    -0.084 Cl
HETATM    8 CL   UNL     1      61.960   8.477   0.550  1.00  0.00    -0.084 Cl
ENDROOT
BRANCH   1   9
HETATM    9  S   UNL     1      63.639   7.185   5.544  1.00  0.00     0.239 S 
HETATM   10  O   UNL     1      63.145   7.479   6.868  1.00  0.00    -0.206 OA
HETATM   11  O   UNL     1      65.041   6.996   5.259  1.00  0.00    -0.206 OA
BRANCH   9  12
HETATM   12  N   UNL     1      62.869   5.775   5.060  1.00  0.00    -0.225 NA
HETATM   13  H   UNL     1      63.545   5.011   5.033  1.00  0.00     0.136 HD
HETATM   14  H   UNL     1      62.469   5.909   4.132  1.00  0.00     0.136 HD
ENDBRANCH   9  12
ENDBRANCH   1   9
TORSDOF 2
ENDMDL
MODEL 5
REMARK VINA RESULT:      -4.3      2.178      2.750
REMARK  2 active torsions:
REMARK  status: ('A' for Active; 'I' for Inactive)
REMARK    1  A    between atoms: S_1  and  C_2 
REMARK    2  A    between atoms: S_1  and  N_9 
ROOT
HETATM    1  C   UNL     1      63.246   7.867   4.601  1.00  0.00     0.077 A 
HETATM    2  C   UNL     1      62.149   7.140   5.072  1.00  0.00     0.048 A 
HETATM    3  C   UNL     1      63.149   8.647   3.446  1.00  0.00     0.048 A 
HETATM    4  C   UNL     1      60.951   7.190   4.363  1.00  0.00     0.037 A 
HETATM    5  C   UNL     1      61.942   8.684   2.754  1.00  0.00     0.037 A 
HETATM    6  C   UNL     1      60.840   7.959   3.205  1.00  0.00     0.047 A 
HETATM    7 CL   UNL     1      59.593   6.298   4.926  1.00  0.00    -0.084 Cl
HETATM    8 CL   UNL     1      61.809   9.637   1.328  1.00  0.00    -0.084 Cl
ENDROOT
BRANCH   1   9
HETATM    9  S   UNL     1      64.755   7.853   5.519  1.00  0.00     0.239 S 
HETATM   10  O   UNL     1      65.156   9.214   5.786  1.00  0.00    -0.206 OA
HETATM   11  O   UNL     1      65.647   6.876   4.945  1.00  0.00    -0.206 OA
BRANCH   9  12
HETATM   12  N   UNL     1      64.248   7.218   6.988  1.00  0.00    -0.225 NA
HETATM   13  H   UNL     1      63.369   7.656   7.262  1.00  0.00     0.136 HD
HETATM   14  H   UNL     1      64.956   7.401   7.698  1.00  0.00     0.136 HD
ENDBRANCH   9  12
ENDBRANCH   1   9
TORSDOF 2
ENDMDL
MODEL 6
REMARK VINA RESULT:      -4.1      2.129      3.358
REMARK  2 active torsions:
REMARK  status: ('A' for Active; 'I' for Inactive)
REMARK    1  A    between atoms: S_1  and  C_2 
REMARK    2  A    between atoms: S_1  and  N_9 
ROOT
HETATM    1  C   UNL     1      63.666   7.960   4.056  1.00  0.00     0.077 A 
HETATM    2  C   UNL     1      64.234   6.742   3.670  1.00  0.00     0.048 A 
HETATM    3  C   UNL     1      62.795   8.648   3.208  1.00  0.00     0.048 A 
HETATM    4  C   UNL     1      63.929   6.223   2.414  1.00  0.00     0.037 A 
HETATM    5  C   UNL     1      62.504   8.110   1.957  1.00  0.00     0.037 A 
HETATM    6  C   UNL     1      63.066   6.899   1.554  1.00  0.00     0.047 A 
HETATM    7 CL   UNL     1      64.622   4.728   1.923  1.00  0.00    -0.084 Cl
HETATM    8 CL   UNL     1      61.435   8.946   0.900  1.00  0.00    -0.084 Cl
ENDROOT
BRANCH   1   9
HETATM    9  S   UNL     1      64.004   8.604   5.666  1.00  0.00     0.239 S 
HETATM   10  O   UNL     1      65.390   9.000   5.734  1.00  0.00    -0.206 OA
HETATM   11  O   UNL     1      63.387   7.750   6.653  1.00  0.00    -0.206 OA
BRANCH   9  12
HETATM   12  N   UNL     1      63.111  10.024   5.654  1.00  0.00    -0.225 NA
HETATM   13  H   UNL     1      62.612  10.120   6.538  1.00  0.00     0.136 HD
HETATM   14  H   UNL     1      62.441   9.997   4.885  1.00  0.00     0.136 HD
ENDBRANCH   9  12
ENDBRANCH   1   9
TORSDOF 2
ENDMDL
MODEL 7
REMARK VINA RESULT:      -4.0      2.157      2.689
REMARK  2 active torsions:
REMARK  status: ('A' for Active; 'I' for Inactive)
REMARK    1  A    between atoms: S_1  and  C_2 
REMARK    2  A    between atoms: S_1  and  N_9 
ROOT
HETATM    1  C   UNL     1      63.609   7.386   5.236  1.00  0.00     0.077 A 
HETATM    2  C   UNL     1      63.566   8.100   4.035  1.00  0.00     0.048 A 
HETATM    3  C   UNL     1      62.481   6.713   5.712  1.00  0.00     0.048 A 
HETATM    4  C   UNL     1      62.372   8.145   3.318  1.00  0.00     0.037 A 
HETATM    5  C   UNL     1      61.299   6.771   4.980  1.00  0.00     0.037 A 
HETATM    6  C   UNL     1      61.237   7.484   3.783  1.00  0.00     0.047 A 
HETATM    7 CL   UNL     1      62.301   9.023   1.841  1.00  0.00    -0.084 Cl
HETATM    8 CL   UNL     1      59.901   5.950   5.556  1.00  0.00    -0.084 Cl
ENDROOT
BRANCH   1   9
HETATM    9  S   UNL     1      65.130   7.277   6.127  1.00  0.00     0.239 S 
HETATM   10  O   UNL     1      66.064   6.480   5.368  1.00  0.00    -0.206 OA
HETATM   11  O   UNL     1      64.844   7.029   7.519  1.00  0.00    -0.206 OA
BRANCH   9  12
HETATM   12  N   UNL     1      65.685   8.858   6.039  1.00  0.00    -0.225 NA
HETATM   13  H   UNL     1      64.909   9.478   5.806  1.00  0.00     0.136 HD
HETATM   14  H   UNL     1      66.403   8.926   5.318  1.00  0.00     0.136 HD
ENDBRANCH   9  12
ENDBRANCH   1   9
TORSDOF 2
ENDMDL
MODEL 8
REMARK VINA RESULT:      -3.8      7.294      7.490
REMARK  2 active torsions:
REMARK  status: ('A' for Active; 'I' for Inactive)
REMARK    1  A    between atoms: S_1  and  C_2 
REMARK    2  A    between atoms: S_1  and  N_9 
ROOT
HETATM    1  C   UNL     1      57.587   6.149   7.149  1.00  0.00     0.077 A 
HETATM    2  C   UNL     1      56.227   6.343   7.406  1.00  0.00     0.048 A 
HETATM    3  C   UNL     1      58.049   5.936   5.848  1.00  0.00     0.048 A 
HETATM    4  C   UNL     1      55.327   6.307   6.345  1.00  0.00     0.037 A 
HETATM    5  C   UNL     1      57.132   5.905   4.801  1.00  0.00     0.037 A 
HETATM    6  C   UNL     1      55.770   6.089   5.041  1.00  0.00     0.047 A 
HETATM    7 CL   UNL     1      53.650   6.539   6.645  1.00  0.00    -0.084 Cl
HETATM    8 CL   UNL     1      57.685   5.640   3.193  1.00  0.00    -0.084 Cl
ENDROOT
BRANCH   1   9
HETATM    9  S   UNL     1      58.745   6.244   8.479  1.00  0.00     0.239 S 
HETATM   10  O   UNL     1      58.351   7.309   9.371  1.00  0.00    -0.206 OA
HETATM   11  O   UNL     1      60.082   6.124   7.951  1.00  0.00    -0.206 OA
BRANCH   9  12
HETATM   12  N   UNL     1      58.436   4.812   9.296  1.00  0.00    -0.225 NA
HETATM   13  H   UNL     1      58.483   4.030   8.642  1.00  0.00     0.136 HD
HETATM   14  H   UNL     1      57.505   4.852   9.712  1.00  0.00     0.136 HD
ENDBRANCH   9  12
ENDBRANCH   1   9
TORSDOF 2
ENDMDL
MODEL 9
REMARK VINA RESULT:      -3.8      2.229      2.872
REMARK  2 active torsions:
REMARK  status: ('A' for Active; 'I' for Inactive)
REMARK    1  A    between atoms: S_1  and  C_2 
REMARK    2  A    between atoms: S_1  and  N_9 
ROOT
HETATM    1  C   UNL     1      62.334   8.166   4.371  1.00  0.00     0.077 A 
HETATM    2  C   UNL     1      62.706   8.731   3.149  1.00  0.00     0.048 A 
HETATM    3  C   UNL     1      61.256   7.281   4.456  1.00  0.00     0.048 A 
HETATM    4  C   UNL     1      61.976   8.411   2.006  1.00  0.00     0.037 A 
HETATM    5  C   UNL     1      60.541   6.975   3.302  1.00  0.00     0.037 A 
HETATM    6  C   UNL     1      60.894   7.535   2.075  1.00  0.00     0.047 A 
HETATM    7 CL   UNL     1      62.418   9.101   0.495  1.00  0.00    -0.084 Cl
HETATM    8 CL   UNL     1      59.209   5.890   3.390  1.00  0.00    -0.084 Cl
ENDROOT
BRANCH   1   9
HETATM    9  S   UNL     1      63.283   8.523   5.817  1.00  0.00     0.239 S 
HETATM   10  O   UNL     1      64.687   8.465   5.485  1.00  0.00    -0.206 OA
HETATM   11  O   UNL     1      62.718   7.814   6.939  1.00  0.00    -0.206 OA
BRANCH   9  12
HETATM   12  N   UNL     1      62.927  10.144   6.062  1.00  0.00    -0.225 NA
HETATM   13  H   UNL     1      62.798  10.317   7.058  1.00  0.00     0.136 HD
HETATM   14  H   UNL     1      62.072  10.382   5.561  1.00  0.00     0.136 HD
ENDBRANCH   9  12
ENDBRANCH   1   9
TORSDOF 2
ENDMDL
