MODEL 1
REMARK VINA RESULT:      -5.1      0.000      0.000
REMARK  2 active torsions:
REMARK  status: ('A' for Active; 'I' for Inactive)
REMARK    1  A    between atoms: N_1  and  C_2 
REMARK    2  A    between atoms: C_3  and  N_5 
ROOT
HETATM    1  C   UNL     1      62.892   9.289   4.220  1.00  0.00     0.056 C 
HETATM    2  C   UNL     1      62.679  10.649   4.583  1.00  0.00     0.052 C 
HETATM    3  C   UNL     1      62.530   8.922   2.910  1.00  0.00     0.031 C 
HETATM    4  C   UNL     1      62.011  11.523   3.718  1.00  0.00     0.031 C 
HETATM    5  C   UNL     1      61.952   9.832   2.017  1.00  0.00     0.002 C 
HETATM    6  C   UNL     1      61.684  11.133   2.424  1.00  0.00     0.002 C 
ENDROOT
BRANCH   1   7
HETATM    7  N   UNL     1      63.517   8.389   5.071  1.00  0.00    -0.375 N 
HETATM    8  C   UNL     1      62.793   7.679   6.134  1.00  0.00     0.149 C 
HETATM    9  C   UNL     1      63.337   6.239   6.187  1.00  0.00     0.187 C 
HETATM   10  O   UNL     1      64.762   6.207   6.398  1.00  0.00    -0.388 OA
HETATM   11  C   UNL     1      65.451   6.953   5.367  1.00  0.00     0.187 C 
HETATM   12  C   UNL     1      64.969   8.410   5.315  1.00  0.00     0.149 C 
ENDBRANCH   1   7
BRANCH   2  13
HETATM   13  N   UNL     1      63.019  11.127   5.872  1.00  0.00    -0.397 N 
HETATM   14  H   UNL     1      62.355  11.620   6.405  1.00  0.00     0.156 HD
HETATM   15  H   UNL     1      63.921  10.965   6.235  1.00  0.00     0.156 HD
ENDBRANCH   2  13
TORSDOF 2
ENDMDL
MODEL 2
REMARK VINA RESULT:      -4.9      0.907      1.993
REMARK  2 active torsions:
REMARK  status: ('A' for Active; 'I' for Inactive)
REMARK    1  A    between atoms: N_1  and  C_2 
REMARK    2  A    between atoms: C_3  and  N_5 
ROOT
HETATM    1  C   UNL     1      62.927   9.152   3.963  1.00  0.00     0.056 C 
HETATM    2  C   UNL     1      62.686   8.659   2.649  1.00  0.00     0.052 C 
HETATM    3  C   UNL     1      62.481  10.459   4.237  1.00  0.00     0.031 C 
HETATM    4  C   UNL     1      62.163   9.496   1.657  1.00  0.00     0.031 C 
HETATM    5  C   UNL     1      61.868  11.255   3.262  1.00  0.00     0.002 C 
HETATM    6  C   UNL     1      61.717  10.776   1.967  1.00  0.00     0.002 C 
ENDROOT
BRANCH   1   7
HETATM    7  N   UNL     1      63.479   8.358   4.958  1.00  0.00    -0.375 N 
HETATM    8  C   UNL     1      62.662   7.731   6.006  1.00  0.00     0.149 C 
HETATM    9  C   UNL     1      63.228   6.320   6.256  1.00  0.00     0.187 C 
HETATM   10  O   UNL     1      64.624   6.354   6.613  1.00  0.00    -0.388 OA
HETATM   11  C   UNL     1      65.401   7.018   5.591  1.00  0.00     0.187 C 
HETATM   12  C   UNL     1      64.896   8.448   5.346  1.00  0.00     0.149 C 
ENDBRANCH   1   7
BRANCH   2  13
HETATM   13  N   UNL     1      63.082   7.353   2.271  1.00  0.00    -0.397 N 
HETATM   14  H   UNL     1      63.628   7.219   1.464  1.00  0.00     0.156 HD
HETATM   15  H   UNL     1      62.812   6.579   2.817  1.00  0.00     0.156 HD
ENDBRANCH   2  13
TORSDOF 2
ENDMDL
MODEL 3
REMARK VINA RESULT:      -4.8      1.188      1.864
REMARK  2 active torsions:
REMARK  status: ('A' for Active; 'I' for Inactive)
REMARK    1  A    between atoms: N_1  and  C_2 
REMARK    2  A    between atoms: C_3  and  N_5 
ROOT
HETATM    1  C   UNL     1      63.573   8.495   4.228  1.00  0.00     0.056 C 
HETATM    2  C   UNL     1      63.005   9.740   4.618  1.00  0.00     0.052 C 
HETATM    3  C   UNL     1      63.238   8.024   2.944  1.00  0.00     0.031 C 
HETATM    4  C   UNL     1      62.052  10.375   3.812  1.00  0.00     0.031 C 
HETATM    5  C   UNL     1      62.360   8.718   2.104  1.00  0.00     0.002 C 
HETATM    6  C   UNL     1      61.759   9.891   2.542  1.00  0.00     0.002 C 
ENDROOT
BRANCH   1   7
HETATM    7  N   UNL     1      64.491   7.823   5.022  1.00  0.00    -0.375 N 
HETATM    8  C   UNL     1      65.939   8.055   4.918  1.00  0.00     0.149 C 
HETATM    9  C   UNL     1      66.518   8.031   6.346  1.00  0.00     0.187 C 
HETATM   10  O   UNL     1      66.221   6.798   7.029  1.00  0.00    -0.388 OA
HETATM   11  C   UNL     1      64.794   6.566   7.076  1.00  0.00     0.187 C 
HETATM   12  C   UNL     1      64.186   6.535   5.667  1.00  0.00     0.149 C 
ENDBRANCH   1   7
BRANCH   2  13
HETATM   13  N   UNL     1      63.286  10.312   5.883  1.00  0.00    -0.397 N 
HETATM   14  H   UNL     1      62.549  10.552   6.489  1.00  0.00     0.156 HD
HETATM   15  H   UNL     1      64.219  10.467   6.157  1.00  0.00     0.156 HD
ENDBRANCH   2  13
TORSDOF 2
ENDMDL
MODEL 4
REMARK VINA RESULT:      -4.4      1.571      2.708
REMARK  2 active torsions:
REMARK  status: ('A' for Active; 'I' for Inactive)
REMARK    1  A    between atoms: N_1  and  C_2 
REMARK    2  A    between atoms: C_3  and  N_5 
ROOT
HETATM    1  C   UNL     1      62.397   8.988   3.502  1.00  0.00     0.056 C 
HETATM    2  C   UNL     1      62.308   8.889   2.085  1.00  0.00     0.052 C 
HETATM    3  C   UNL     1      62.116  10.248   4.064  1.00  0.00     0.031 C 
HETATM    4  C   UNL     1      62.094  10.027   1.300  1.00  0.00     0.031 C 
HETATM    5  C   UNL     1      61.805  11.361   3.273  1.00  0.00     0.002 C 
HETATM    6  C   UNL     1      61.802  11.253   1.889  1.00  0.00     0.002 C 
ENDROOT
BRANCH   1   7
HETATM    7  N   UNL     1      62.645   7.884   4.304  1.00  0.00    -0.375 N 
HETATM    8  C   UNL     1      63.948   7.204   4.324  1.00  0.00     0.149 C 
HETATM    9  C   UNL     1      64.245   6.808   5.783  1.00  0.00     0.187 C 
HETATM   10  O   UNL     1      63.203   5.985   6.342  1.00  0.00    -0.388 OA
HETATM   11  C   UNL     1      61.923   6.654   6.268  1.00  0.00     0.187 C 
HETATM   12  C   UNL     1      61.568   7.023   4.820  1.00  0.00     0.149 C 
ENDBRANCH   1   7
BRANCH   2  13
HETATM   13  N   UNL     1      62.558   7.664   1.418  1.00  0.00    -0.397 N 
HETATM   14  H   UNL     1      63.218   7.626   0.689  1.00  0.00     0.156 HD
HETATM   15  H   UNL     1      62.072   6.849   1.685  1.00  0.00     0.156 HD
ENDBRANCH   2  13
TORSDOF 2
ENDMDL
MODEL 5
REMARK VINA RESULT:      -4.3      2.673      3.723
REMARK  2 active torsions:
REMARK  status: ('A' for Active; 'I' for Inactive)
REMARK    1  A    between atoms: N_1  and  C_2 
REMARK    2  A    between atoms: C_3  and  N_5 
ROOT
HETATM    1  C   UNL     1      61.159   8.581   2.951  1.00  0.00     0.056 C 
HETATM    2  C   UNL     1      61.114   8.631   1.528  1.00  0.00     0.052 C 
HETATM    3  C   UNL     1      60.110   7.894   3.590  1.00  0.00     0.031 C 
HETATM    4  C   UNL     1      60.003   8.143   0.831  1.00  0.00     0.031 C 
HETATM    5  C   UNL     1      59.051   7.322   2.874  1.00  0.00     0.002 C 
HETATM    6  C   UNL     1      58.993   7.453   1.493  1.00  0.00     0.002 C 
ENDROOT
BRANCH   1   7
HETATM    7  N   UNL     1      62.229   9.090   3.672  1.00  0.00    -0.375 N 
HETATM    8  C   UNL     1      62.347  10.517   4.000  1.00  0.00     0.149 C 
HETATM    9  C   UNL     1      62.903  10.622   5.434  1.00  0.00     0.187 C 
HETATM   10  O   UNL     1      64.160   9.933   5.577  1.00  0.00    -0.388 OA
HETATM   11  C   UNL     1      64.031   8.542   5.202  1.00  0.00     0.187 C 
HETATM   12  C   UNL     1      63.525   8.397   3.760  1.00  0.00     0.149 C 
ENDBRANCH   1   7
BRANCH   2  13
HETATM   13  N   UNL     1      62.126   9.286   0.785  1.00  0.00    -0.397 N 
HETATM   14  H   UNL     1      62.410  10.194   1.034  1.00  0.00     0.156 HD
HETATM   15  H   UNL     1      62.547   8.832   0.018  1.00  0.00     0.156 HD
ENDBRANCH   2  13
TORSDOF 2
ENDMDL
MODEL 6
REMARK VINA RESULT:      -4.0      2.375      2.780
REMARK  2 active torsions:
REMARK  status: ('A' for Active; 'I' for Inactive)
REMARK    1  A    between atoms: N_1  and  C_2 
REMARK    2  A    between atoms: C_3  and  N_5 
ROOT
HETATM    1  C   UNL     1      62.554   8.658   3.756  1.00  0.00     0.056 C 
HETATM    2  C   UNL     1      63.037   9.188   4.986  1.00  0.00     0.052 C 
HETATM    3  C   UNL     1      61.989   9.577   2.853  1.00  0.00     0.031 C 
HETATM    4  C   UNL     1      62.820  10.529   5.320  1.00  0.00     0.031 C 
HETATM    5  C   UNL     1      61.866  10.938   3.156  1.00  0.00     0.002 C 
HETATM    6  C   UNL     1      62.275  11.414   4.396  1.00  0.00     0.002 C 
ENDROOT
BRANCH   1   7
HETATM    7  N   UNL     1      62.720   7.323   3.413  1.00  0.00    -0.375 N 
HETATM    8  C   UNL     1      61.805   6.272   3.879  1.00  0.00     0.149 C 
HETATM    9  C   UNL     1      61.598   5.285   2.714  1.00  0.00     0.187 C 
HETATM   10  O   UNL     1      62.844   4.739   2.241  1.00  0.00    -0.388 OA
HETATM   11  C   UNL     1      63.747   5.793   1.834  1.00  0.00     0.187 C 
HETATM   12  C   UNL     1      64.017   6.773   2.984  1.00  0.00     0.149 C 
ENDBRANCH   1   7
BRANCH   2  13
HETATM   13  N   UNL     1      63.635   8.352   5.961  1.00  0.00    -0.397 N 
HETATM   14  H   UNL     1      63.876   8.719   6.842  1.00  0.00     0.156 HD
HETATM   15  H   UNL     1      63.810   7.404   5.757  1.00  0.00     0.156 HD
ENDBRANCH   2  13
TORSDOF 2
ENDMDL
MODEL 7
REMARK VINA RESULT:      -4.0      2.858      4.111
REMARK  2 active torsions:
REMARK  status: ('A' for Active; 'I' for Inactive)
REMARK    1  A    between atoms: N_1  and  C_2 
REMARK    2  A    between atoms: C_3  and  N_5 
ROOT
HETATM    1  C   UNL     1      65.038   7.096   5.946  1.00  0.00     0.056 C 
HETATM    2  C   UNL     1      63.765   6.458   5.914  1.00  0.00     0.052 C 
HETATM    3  C   UNL     1      65.106   8.394   5.407  1.00  0.00     0.031 C 
HETATM    4  C   UNL     1      62.686   7.049   5.247  1.00  0.00     0.031 C 
HETATM    5  C   UNL     1      63.993   9.018   4.829  1.00  0.00     0.002 C 
HETATM    6  C   UNL     1      62.784   8.341   4.741  1.00  0.00     0.002 C 
ENDROOT
BRANCH   1   7
HETATM    7  N   UNL     1      66.136   6.518   6.567  1.00  0.00    -0.375 N 
HETATM    8  C   UNL     1      66.458   6.761   7.980  1.00  0.00     0.149 C 
HETATM    9  C   UNL     1      66.949   5.430   8.582  1.00  0.00     0.187 C 
HETATM   10  O   UNL     1      68.075   4.894   7.860  1.00  0.00    -0.388 OA
HETATM   11  C   UNL     1      67.750   4.708   6.463  1.00  0.00     0.187 C 
HETATM   12  C   UNL     1      67.301   6.025   5.814  1.00  0.00     0.149 C 
ENDBRANCH   1   7
BRANCH   2  13
HETATM   13  N   UNL     1      63.583   5.156   6.441  1.00  0.00    -0.397 N 
HETATM   14  H   UNL     1      62.689   4.744   6.436  1.00  0.00     0.156 HD
HETATM   15  H   UNL     1      64.350   4.663   6.812  1.00  0.00     0.156 HD
ENDBRANCH   2  13
TORSDOF 2
ENDMDL
MODEL 8
REMARK VINA RESULT:      -3.9      2.410      4.457
REMARK  2 active torsions:
REMARK  status: ('A' for Active; 'I' for Inactive)
REMARK    1  A    between atoms: N_1  and  C_2 
REMARK    2  A    between atoms: C_3  and  N_5 
ROOT
HETATM    1  C   UNL     1      64.615   7.285   4.080  1.00  0.00     0.056 C 
HETATM    2  C   UNL     1      65.234   8.080   5.086  1.00  0.00     0.052 C 
HETATM    3  C   UNL     1      65.405   6.272   3.504  1.00  0.00     0.031 C 
HETATM    4  C   UNL     1      66.598   7.942   5.368  1.00  0.00     0.031 C 
HETATM    5  C   UNL     1      66.743   6.077   3.866  1.00  0.00     0.002 C 
HETATM    6  C   UNL     1      67.343   6.918   4.793  1.00  0.00     0.002 C 
ENDROOT
BRANCH   1   7
HETATM    7  N   UNL     1      63.275   7.425   3.751  1.00  0.00    -0.375 N 
HETATM    8  C   UNL     1      62.295   6.353   3.974  1.00  0.00     0.149 C 
HETATM    9  C   UNL     1      60.989   7.009   4.462  1.00  0.00     0.187 C 
HETATM   10  O   UNL     1      60.501   7.996   3.533  1.00  0.00    -0.388 OA
HETATM   11  C   UNL     1      61.499   9.014   3.292  1.00  0.00     0.187 C 
HETATM   12  C   UNL     1      62.802   8.403   2.757  1.00  0.00     0.149 C 
ENDBRANCH   1   7
BRANCH   2  13
HETATM   13  N   UNL     1      64.526   9.119   5.739  1.00  0.00    -0.397 N 
HETATM   14  H   UNL     1      63.666   8.927   6.179  1.00  0.00     0.156 HD
HETATM   15  H   UNL     1      64.894  10.032   5.755  1.00  0.00     0.156 HD
ENDBRANCH   2  13
TORSDOF 2
ENDMDL
MODEL 9
REMARK VINA RESULT:      -3.9      2.716      5.779
REMARK  2 active torsions:
REMARK  status: ('A' for Active; 'I' for Inactive)
REMARK    1  A    between atoms: N_1  and  C_2 
REMARK    2  A    between atoms: C_3  and  N_5 
ROOT
HETATM    1  C   UNL     1      65.922   6.733   6.117  1.00  0.00     0.056 C 
HETATM    2  C   UNL     1      67.343   6.671   6.058  1.00  0.00     0.052 C 
HETATM    3  C   UNL     1      65.320   6.272   7.303  1.00  0.00     0.031 C 
HETATM    4  C   UNL     1      68.074   6.049   7.076  1.00  0.00     0.031 C 
HETATM    5  C   UNL     1      66.070   5.741   8.359  1.00  0.00     0.002 C 
HETATM    6  C   UNL     1      67.449   5.621   8.242  1.00  0.00     0.002 C 
ENDROOT
BRANCH   1   7
HETATM    7  N   UNL     1      65.167   7.310   5.106  1.00  0.00    -0.375 N 
HETATM    8  C   UNL     1      65.038   6.700   3.776  1.00  0.00     0.149 C 
HETATM    9  C   UNL     1      63.581   6.897   3.312  1.00  0.00     0.187 C 
HETATM   10  O   UNL     1      63.202   8.287   3.303  1.00  0.00    -0.388 OA
HETATM   11  C   UNL     1      63.383   8.879   4.610  1.00  0.00     0.187 C 
HETATM   12  C   UNL     1      64.836   8.745   5.087  1.00  0.00     0.149 C 
ENDBRANCH   1   7
BRANCH   2  13
HETATM   13  N   UNL     1      68.050   7.121   4.916  1.00  0.00    -0.397 N 
HETATM   14  H   UNL     1      69.034   7.159   4.929  1.00  0.00     0.156 HD
HETATM   15  H   UNL     1      67.558   7.394   4.108  1.00  0.00     0.156 HD
ENDBRANCH   2  13
TORSDOF 2
ENDMDL
