MODEL 1
REMARK VINA RESULT:      -4.2      0.000      0.000
REMARK  1 active torsions:
REMARK  status: ('A' for Active; 'I' for Inactive)
REMARK    1  A    between atoms: C_5  and  N_9 
ROOT
HETATM    1  N   UNL     1      62.848   9.027   3.439  1.00  0.00    -0.359 N 
ATOM      2  HN  UNL     1      63.059   8.088   3.100  1.00  0.00     0.165 HD
HETATM    3  N   UNL     1      62.238  11.612   4.407  1.00  0.00    -0.349 N 
ATOM      4  HN  UNL     1      62.003  12.543   4.751  1.00  0.00     0.167 HD
HETATM    5  C   UNL     1      62.995  10.759   5.120  1.00  0.00     0.121 A 
HETATM    6  C   UNL     1      63.294   9.476   4.645  1.00  0.00     0.049 A 
HETATM    7  C   UNL     1      62.106   9.900   2.717  1.00  0.00     0.021 A 
HETATM    8  C   UNL     1      61.806  11.160   3.206  1.00  0.00     0.114 A 
HETATM    9  C   UNL     1      64.114   8.520   5.456  1.00  0.00     0.072 C 
HETATM   10  C   UNL     1      61.640   9.468   1.361  1.00  0.00     0.069 C 
ENDROOT
BRANCH   5  11
HETATM   11  N   UNL     1      63.518  11.266   6.309  1.00  0.00    -0.384 N 
HETATM   12  H   UNL     1      63.059  12.002   6.774  1.00  0.00     0.157 HD
HETATM   13  H   UNL     1      64.347  10.889   6.684  1.00  0.00     0.157 HD
ENDBRANCH   5  11
TORSDOF 1
ENDMDL
MODEL 2
REMARK VINA RESULT:      -3.9      1.793      2.747
REMARK  1 active torsions:
REMARK  status: ('A' for Active; 'I' for Inactive)
REMARK    1  A    between atoms: C_5  and  N_9 
ROOT
HETATM    1  N   UNL     1      61.648   9.037   3.530  1.00  0.00    -0.359 N 
ATOM      2  HN  UNL     1      61.113   9.053   2.661  1.00  0.00     0.165 HD
HETATM    3  N   UNL     1      63.164   9.003   5.916  1.00  0.00    -0.349 N 
ATOM      4  HN  UNL     1      63.719   8.977   6.772  1.00  0.00     0.167 HD
HETATM    5  C   UNL     1      62.903  10.154   5.270  1.00  0.00     0.121 A 
HETATM    6  C   UNL     1      62.156  10.173   4.085  1.00  0.00     0.049 A 
HETATM    7  C   UNL     1      61.896   7.886   4.198  1.00  0.00     0.021 A 
HETATM    8  C   UNL     1      62.648   7.881   5.361  1.00  0.00     0.114 A 
HETATM    9  C   UNL     1      61.892  11.453   3.355  1.00  0.00     0.072 C 
HETATM   10  C   UNL     1      61.311   6.620   3.654  1.00  0.00     0.069 C 
ENDROOT
BRANCH   5  11
HETATM   11  N   UNL     1      63.353  11.313   5.899  1.00  0.00    -0.384 N 
HETATM   12  H   UNL     1      63.985  11.252   6.650  1.00  0.00     0.157 HD
HETATM   13  H   UNL     1      63.036  12.195   5.593  1.00  0.00     0.157 HD
ENDBRANCH   5  11
TORSDOF 1
ENDMDL
MODEL 3
REMARK VINA RESULT:      -3.9      1.023      3.200
REMARK  1 active torsions:
REMARK  status: ('A' for Active; 'I' for Inactive)
REMARK    1  A    between atoms: C_5  and  N_9 
ROOT
HETATM    1  N   UNL     1      62.804   8.495   3.308  1.00  0.00    -0.359 N 
ATOM      2  HN  UNL     1      63.016   7.554   2.974  1.00  0.00     0.165 HD
HETATM    3  N   UNL     1      62.246  11.115   4.212  1.00  0.00    -0.349 N 
ATOM      4  HN  UNL     1      62.058  12.060   4.546  1.00  0.00     0.167 HD
HETATM    5  C   UNL     1      62.021  10.753   2.935  1.00  0.00     0.121 A 
HETATM    6  C   UNL     1      62.302   9.457   2.484  1.00  0.00     0.049 A 
HETATM    7  C   UNL     1      63.005   8.861   4.596  1.00  0.00     0.021 A 
HETATM    8  C   UNL     1      62.737  10.150   5.025  1.00  0.00     0.114 A 
HETATM    9  C   UNL     1      62.077   9.067   1.056  1.00  0.00     0.072 C 
HETATM   10  C   UNL     1      63.504   7.820   5.550  1.00  0.00     0.069 C 
ENDROOT
BRANCH   5  11
HETATM   11  N   UNL     1      61.424  11.721   2.130  1.00  0.00    -0.384 N 
HETATM   12  H   UNL     1      61.983  12.351   1.621  1.00  0.00     0.157 HD
HETATM   13  H   UNL     1      60.442  11.776   2.071  1.00  0.00     0.157 HD
ENDBRANCH   5  11
TORSDOF 1
ENDMDL
MODEL 4
REMARK VINA RESULT:      -3.8      1.720      2.120
REMARK  1 active torsions:
REMARK  status: ('A' for Active; 'I' for Inactive)
REMARK    1  A    between atoms: C_5  and  N_9 
ROOT
HETATM    1  N   UNL     1      62.063   9.181   3.132  1.00  0.00    -0.359 N 
ATOM      2  HN  UNL     1      61.737   8.857   2.221  1.00  0.00     0.165 HD
HETATM    3  N   UNL     1      62.933  10.064   5.673  1.00  0.00    -0.349 N 
ATOM      4  HN  UNL     1      63.236  10.392   6.590  1.00  0.00     0.167 HD
HETATM    5  C   UNL     1      62.900   8.755   5.361  1.00  0.00     0.121 A 
HETATM    6  C   UNL     1      62.464   8.315   4.104  1.00  0.00     0.049 A 
HETATM    7  C   UNL     1      62.122  10.497   3.446  1.00  0.00     0.021 A 
HETATM    8  C   UNL     1      62.541  10.917   4.697  1.00  0.00     0.114 A 
HETATM    9  C   UNL     1      62.401   6.857   3.771  1.00  0.00     0.072 C 
HETATM   10  C   UNL     1      61.742  11.487   2.389  1.00  0.00     0.069 C 
ENDROOT
BRANCH   5  11
HETATM   11  N   UNL     1      63.398   7.890   6.333  1.00  0.00    -0.384 N 
HETATM   12  H   UNL     1      62.793   7.506   7.008  1.00  0.00     0.157 HD
HETATM   13  H   UNL     1      64.357   7.664   6.347  1.00  0.00     0.157 HD
ENDBRANCH   5  11
TORSDOF 1
ENDMDL
MODEL 5
REMARK VINA RESULT:      -3.5      1.729      3.065
REMARK  1 active torsions:
REMARK  status: ('A' for Active; 'I' for Inactive)
REMARK    1  A    between atoms: C_5  and  N_9 
ROOT
HETATM    1  N   UNL     1      63.233   8.858   4.259  1.00  0.00    -0.359 N 
ATOM      2  HN  UNL     1      63.660   8.684   5.169  1.00  0.00     0.165 HD
HETATM    3  N   UNL     1      62.014   9.339   1.754  1.00  0.00    -0.349 N 
ATOM      4  HN  UNL     1      61.569   9.499   0.850  1.00  0.00     0.167 HD
HETATM    5  C   UNL     1      62.023  10.277   2.719  1.00  0.00     0.121 A 
HETATM    6  C   UNL     1      62.622  10.039   3.963  1.00  0.00     0.049 A 
HETATM    7  C   UNL     1      63.241   7.928   3.274  1.00  0.00     0.021 A 
HETATM    8  C   UNL     1      62.631   8.172   2.054  1.00  0.00     0.114 A 
HETATM    9  C   UNL     1      62.605  11.074   5.044  1.00  0.00     0.072 C 
HETATM   10  C   UNL     1      63.949   6.636   3.536  1.00  0.00     0.069 C 
ENDROOT
BRANCH   5  11
HETATM   11  N   UNL     1      61.474  11.509   2.368  1.00  0.00    -0.384 N 
HETATM   12  H   UNL     1      62.047  12.306   2.314  1.00  0.00     0.157 HD
HETATM   13  H   UNL     1      60.510  11.581   2.175  1.00  0.00     0.157 HD
ENDBRANCH   5  11
TORSDOF 1
ENDMDL
MODEL 6
REMARK VINA RESULT:      -3.4      2.904      3.759
REMARK  1 active torsions:
REMARK  status: ('A' for Active; 'I' for Inactive)
REMARK    1  A    between atoms: C_5  and  N_9 
ROOT
HETATM    1  N   UNL     1      65.323   6.809   3.988  1.00  0.00    -0.359 N 
ATOM      2  HN  UNL     1      65.501   6.047   3.332  1.00  0.00     0.165 HD
HETATM    3  N   UNL     1      64.825   8.892   5.833  1.00  0.00    -0.349 N 
ATOM      4  HN  UNL     1      64.630   9.639   6.500  1.00  0.00     0.167 HD
HETATM    5  C   UNL     1      65.934   8.134   5.916  1.00  0.00     0.121 A 
HETATM    6  C   UNL     1      66.181   7.098   5.006  1.00  0.00     0.049 A 
HETATM    7  C   UNL     1      64.222   7.591   3.897  1.00  0.00     0.021 A 
HETATM    8  C   UNL     1      63.983   8.602   4.813  1.00  0.00     0.114 A 
HETATM    9  C   UNL     1      67.402   6.240   5.120  1.00  0.00     0.072 C 
HETATM   10  C   UNL     1      63.279   7.343   2.761  1.00  0.00     0.069 C 
ENDROOT
BRANCH   5  11
HETATM   11  N   UNL     1      66.842   8.502   6.907  1.00  0.00    -0.384 N 
HETATM   12  H   UNL     1      67.705   8.035   6.982  1.00  0.00     0.157 HD
HETATM   13  H   UNL     1      66.620   9.229   7.534  1.00  0.00     0.157 HD
ENDBRANCH   5  11
TORSDOF 1
ENDMDL
MODEL 7
REMARK VINA RESULT:      -3.4      6.042      7.292
REMARK  1 active torsions:
REMARK  status: ('A' for Active; 'I' for Inactive)
REMARK    1  A    between atoms: C_5  and  N_9 
ROOT
HETATM    1  N   UNL     1      67.333   7.212   7.103  1.00  0.00    -0.359 N 
ATOM      2  HN  UNL     1      67.353   8.191   7.390  1.00  0.00     0.165 HD
HETATM    3  N   UNL     1      67.314   4.493   6.329  1.00  0.00    -0.349 N 
ATOM      4  HN  UNL     1      67.320   3.515   6.040  1.00  0.00     0.167 HD
HETATM    5  C   UNL     1      67.082   4.859   7.603  1.00  0.00     0.121 A 
HETATM    6  C   UNL     1      67.096   6.206   7.989  1.00  0.00     0.049 A 
HETATM    7  C   UNL     1      67.543   6.837   5.819  1.00  0.00     0.021 A 
HETATM    8  C   UNL     1      67.541   5.501   5.454  1.00  0.00     0.114 A 
HETATM    9  C   UNL     1      66.865   6.606   9.414  1.00  0.00     0.072 C 
HETATM   10  C   UNL     1      67.754   7.914   4.800  1.00  0.00     0.069 C 
ENDROOT
BRANCH   5  11
HETATM   11  N   UNL     1      66.752   3.825   8.476  1.00  0.00    -0.384 N 
HETATM   12  H   UNL     1      65.967   3.908   9.064  1.00  0.00     0.157 HD
HETATM   13  H   UNL     1      67.305   3.010   8.507  1.00  0.00     0.157 HD
ENDBRANCH   5  11
TORSDOF 1
ENDMDL
MODEL 8
REMARK VINA RESULT:      -3.3      4.251      5.897
REMARK  1 active torsions:
REMARK  status: ('A' for Active; 'I' for Inactive)
REMARK    1  A    between atoms: C_5  and  N_9 
ROOT
HETATM    1  N   UNL     1      65.842   7.650   6.942  1.00  0.00    -0.359 N 
ATOM      2  HN  UNL     1      66.201   8.574   7.184  1.00  0.00     0.165 HD
HETATM    3  N   UNL     1      64.883   5.080   6.261  1.00  0.00    -0.349 N 
ATOM      4  HN  UNL     1      64.540   4.155   6.001  1.00  0.00     0.167 HD
HETATM    5  C   UNL     1      65.657   5.273   7.345  1.00  0.00     0.121 A 
HETATM    6  C   UNL     1      66.138   6.545   7.681  1.00  0.00     0.049 A 
HETATM    7  C   UNL     1      65.043   7.451   5.867  1.00  0.00     0.021 A 
HETATM    8  C   UNL     1      64.588   6.185   5.538  1.00  0.00     0.114 A 
HETATM    9  C   UNL     1      67.022   6.751   8.872  1.00  0.00     0.072 C 
HETATM   10  C   UNL     1      64.648   8.647   5.057  1.00  0.00     0.069 C 
ENDROOT
BRANCH   5  11
HETATM   11  N   UNL     1      65.875   4.148   8.139  1.00  0.00    -0.384 N 
HETATM   12  H   UNL     1      65.321   3.345   8.016  1.00  0.00     0.157 HD
HETATM   13  H   UNL     1      66.584   4.158   8.823  1.00  0.00     0.157 HD
ENDBRANCH   5  11
TORSDOF 1
ENDMDL
MODEL 9
REMARK VINA RESULT:      -3.3      2.672      4.489
REMARK  1 active torsions:
REMARK  status: ('A' for Active; 'I' for Inactive)
REMARK    1  A    between atoms: C_5  and  N_9 
ROOT
HETATM    1  N   UNL     1      65.253   6.836   3.957  1.00  0.00    -0.359 N 
ATOM      2  HN  UNL     1      65.184   6.183   3.176  1.00  0.00     0.165 HD
HETATM    3  N   UNL     1      65.454   8.674   6.096  1.00  0.00    -0.349 N 
ATOM      4  HN  UNL     1      65.541   9.338   6.865  1.00  0.00     0.167 HD
HETATM    5  C   UNL     1      64.426   8.720   5.228  1.00  0.00     0.121 A 
HETATM    6  C   UNL     1      64.328   7.814   4.164  1.00  0.00     0.049 A 
HETATM    7  C   UNL     1      66.271   6.781   4.849  1.00  0.00     0.021 A 
HETATM    8  C   UNL     1      66.364   7.693   5.887  1.00  0.00     0.114 A 
HETATM    9  C   UNL     1      63.198   7.887   3.184  1.00  0.00     0.072 C 
HETATM   10  C   UNL     1      67.282   5.688   4.691  1.00  0.00     0.069 C 
ENDROOT
BRANCH   5  11
HETATM   11  N   UNL     1      63.444   9.668   5.507  1.00  0.00    -0.384 N 
HETATM   12  H   UNL     1      63.688  10.616   5.606  1.00  0.00     0.157 HD
HETATM   13  H   UNL     1      62.504   9.389   5.607  1.00  0.00     0.157 HD
ENDBRANCH   5  11
TORSDOF 1
ENDMDL
