MODEL 1
REMARK VINA RESULT:      -5.1      0.000      0.000
REMARK  4 active torsions:
REMARK  status: ('A' for Active; 'I' for Inactive)
REMARK    1  A    between atoms: C_1  and  C_6 
REMARK    2  A    between atoms: C_2  and  C_5 
REMARK    3  A    between atoms: C_4  and  O_8 
REMARK    4  A    between atoms: C_5  and  C_6 
ROOT
HETATM    1  C   UNL     1      62.666   9.006   3.805  1.00  0.00    -0.025 A 
HETATM    2  C   UNL     1      62.523  10.222   4.484  1.00  0.00     0.071 A 
HETATM    3  C   UNL     1      62.308   8.972   2.443  1.00  0.00     0.010 A 
HETATM    4  C   UNL     1      62.086  11.370   3.819  1.00  0.00     0.037 A 
HETATM    5  C   UNL     1      61.875  10.119   1.775  1.00  0.00     0.001 A 
HETATM    6  C   UNL     1      61.770  11.323   2.463  1.00  0.00     0.003 A 
ENDROOT
BRANCH   1   7
HETATM    7  C   UNL     1      63.200   7.739   4.437  1.00  0.00     0.052 C 
BRANCH   7   8
HETATM    8  C   UNL     1      64.729   7.726   4.500  1.00  0.00     0.118 C 
BRANCH   8   9
HETATM    9  C   UNL     1      65.218   8.015   5.889  1.00  0.00     0.172 C 
HETATM   10  O   UNL     1      65.269   7.240   6.828  1.00  0.00    -0.648 OA
HETATM   11  O   UNL     1      65.588   9.302   6.035  1.00  0.00    -0.648 OA
ENDBRANCH   8   9
ENDBRANCH   7   8
ENDBRANCH   1   7
BRANCH   2  12
HETATM   12  O   UNL     1      62.798  10.393   5.811  1.00  0.00    -0.360 OA
HETATM   13  H   UNL     1      62.515   9.754   6.434  1.00  0.00     0.217 HD
ENDBRANCH   2  12
TORSDOF 4
ENDMDL
MODEL 2
REMARK VINA RESULT:      -5.0      1.522      1.885
REMARK  4 active torsions:
REMARK  status: ('A' for Active; 'I' for Inactive)
REMARK    1  A    between atoms: C_1  and  C_6 
REMARK    2  A    between atoms: C_2  and  C_5 
REMARK    3  A    between atoms: C_4  and  O_8 
REMARK    4  A    between atoms: C_5  and  C_6 
ROOT
HETATM    1  C   UNL     1      62.831   9.017   3.773  1.00  0.00    -0.025 A 
HETATM    2  C   UNL     1      62.617  10.192   4.505  1.00  0.00     0.071 A 
HETATM    3  C   UNL     1      62.439   9.010   2.420  1.00  0.00     0.010 A 
HETATM    4  C   UNL     1      62.077  11.329   3.900  1.00  0.00     0.037 A 
HETATM    5  C   UNL     1      61.904  10.147   1.811  1.00  0.00     0.001 A 
HETATM    6  C   UNL     1      61.728  11.311   2.551  1.00  0.00     0.003 A 
ENDROOT
BRANCH   1   7
HETATM    7  C   UNL     1      63.474   7.770   4.339  1.00  0.00     0.052 C 
BRANCH   7   8
HETATM    8  C   UNL     1      62.437   6.764   4.843  1.00  0.00     0.118 C 
BRANCH   8   9
HETATM    9  C   UNL     1      62.232   6.891   6.324  1.00  0.00     0.172 C 
HETATM   10  O   UNL     1      61.284   6.486   6.974  1.00  0.00    -0.648 OA
HETATM   11  O   UNL     1      63.236   7.569   6.915  1.00  0.00    -0.648 OA
ENDBRANCH   8   9
ENDBRANCH   7   8
ENDBRANCH   1   7
BRANCH   2  12
HETATM   12  O   UNL     1      62.915  10.330   5.831  1.00  0.00    -0.360 OA
HETATM   13  H   UNL     1      63.794  10.208   6.129  1.00  0.00     0.217 HD
ENDBRANCH   2  12
TORSDOF 4
ENDMDL
MODEL 3
REMARK VINA RESULT:      -5.0      1.138      1.454
REMARK  4 active torsions:
REMARK  status: ('A' for Active; 'I' for Inactive)
REMARK    1  A    between atoms: C_1  and  C_6 
REMARK    2  A    between atoms: C_2  and  C_5 
REMARK    3  A    between atoms: C_4  and  O_8 
REMARK    4  A    between atoms: C_5  and  C_6 
ROOT
HETATM    1  C   UNL     1      62.588   9.665   4.063  1.00  0.00    -0.025 A 
HETATM    2  C   UNL     1      62.158  10.967   3.778  1.00  0.00     0.071 A 
HETATM    3  C   UNL     1      62.577   8.728   3.010  1.00  0.00     0.010 A 
HETATM    4  C   UNL     1      61.777  11.333   2.485  1.00  0.00     0.037 A 
HETATM    5  C   UNL     1      62.201   9.093   1.716  1.00  0.00     0.001 A 
HETATM    6  C   UNL     1      61.807  10.400   1.451  1.00  0.00     0.003 A 
ENDROOT
BRANCH   1   7
HETATM    7  C   UNL     1      63.082   9.212   5.419  1.00  0.00     0.052 C 
BRANCH   7   8
HETATM    8  C   UNL     1      63.915   7.932   5.332  1.00  0.00     0.118 C 
BRANCH   8   9
HETATM    9  C   UNL     1      65.378   8.225   5.491  1.00  0.00     0.172 C 
HETATM   10  O   UNL     1      65.892   9.014   6.264  1.00  0.00    -0.648 OA
HETATM   11  O   UNL     1      66.130   7.520   4.622  1.00  0.00    -0.648 OA
ENDBRANCH   8   9
ENDBRANCH   7   8
ENDBRANCH   1   7
BRANCH   2  12
HETATM   12  O   UNL     1      62.084  11.966   4.706  1.00  0.00    -0.360 OA
HETATM   13  H   UNL     1      61.659  12.774   4.493  1.00  0.00     0.217 HD
ENDBRANCH   2  12
TORSDOF 4
ENDMDL
MODEL 4
REMARK VINA RESULT:      -4.7      1.526      2.061
REMARK  4 active torsions:
REMARK  status: ('A' for Active; 'I' for Inactive)
REMARK    1  A    between atoms: C_1  and  C_6 
REMARK    2  A    between atoms: C_2  and  C_5 
REMARK    3  A    between atoms: C_4  and  O_8 
REMARK    4  A    between atoms: C_5  and  C_6 
ROOT
HETATM    1  C   UNL     1      62.621   8.895   3.521  1.00  0.00    -0.025 A 
HETATM    2  C   UNL     1      62.412   8.901   2.135  1.00  0.00     0.071 A 
HETATM    3  C   UNL     1      62.412  10.101   4.219  1.00  0.00     0.010 A 
HETATM    4  C   UNL     1      61.967  10.052   1.481  1.00  0.00     0.037 A 
HETATM    5  C   UNL     1      61.962  11.250   3.567  1.00  0.00     0.001 A 
HETATM    6  C   UNL     1      61.733  11.224   2.196  1.00  0.00     0.003 A 
ENDROOT
BRANCH   1   7
HETATM    7  C   UNL     1      63.035   7.672   4.310  1.00  0.00     0.052 C 
BRANCH   7   8
HETATM    8  C   UNL     1      64.552   7.580   4.478  1.00  0.00     0.118 C 
BRANCH   8   9
HETATM    9  C   UNL     1      64.961   7.880   5.891  1.00  0.00     0.172 C 
HETATM   10  O   UNL     1      64.689   7.237   6.889  1.00  0.00    -0.648 OA
HETATM   11  O   UNL     1      65.675   9.020   5.977  1.00  0.00    -0.648 OA
ENDBRANCH   8   9
ENDBRANCH   7   8
ENDBRANCH   1   7
BRANCH   2  12
HETATM   12  O   UNL     1      62.609   7.817   1.328  1.00  0.00    -0.360 OA
HETATM   13  H   UNL     1      62.420   6.956   1.645  1.00  0.00     0.217 HD
ENDBRANCH   2  12
TORSDOF 4
ENDMDL
MODEL 5
REMARK VINA RESULT:      -4.4      2.343      4.877
REMARK  4 active torsions:
REMARK  status: ('A' for Active; 'I' for Inactive)
REMARK    1  A    between atoms: C_1  and  C_6 
REMARK    2  A    between atoms: C_2  and  C_5 
REMARK    3  A    between atoms: C_4  and  O_8 
REMARK    4  A    between atoms: C_5  and  C_6 
ROOT
HETATM    1  C   UNL     1      63.221   8.257   3.832  1.00  0.00    -0.025 A 
HETATM    2  C   UNL     1      63.668   7.105   3.173  1.00  0.00     0.071 A 
HETATM    3  C   UNL     1      64.050   8.802   4.832  1.00  0.00     0.010 A 
HETATM    4  C   UNL     1      64.914   6.546   3.467  1.00  0.00     0.037 A 
HETATM    5  C   UNL     1      65.298   8.247   5.124  1.00  0.00     0.001 A 
HETATM    6  C   UNL     1      65.734   7.121   4.436  1.00  0.00     0.003 A 
ENDROOT
BRANCH   1   7
HETATM    7  C   UNL     1      61.918   8.960   3.520  1.00  0.00     0.052 C 
BRANCH   7   8
HETATM    8  C   UNL     1      62.021   9.840   2.272  1.00  0.00     0.118 C 
BRANCH   8   9
HETATM    9  C   UNL     1      61.837  11.289   2.612  1.00  0.00     0.172 C 
HETATM   10  O   UNL     1      61.825  12.232   1.840  1.00  0.00    -0.648 OA
HETATM   11  O   UNL     1      61.714  11.483   3.940  1.00  0.00    -0.648 OA
ENDBRANCH   8   9
ENDBRANCH   7   8
ENDBRANCH   1   7
BRANCH   2  12
HETATM   12  O   UNL     1      62.955   6.451   2.209  1.00  0.00    -0.360 OA
HETATM   13  H   UNL     1      63.283   5.653   1.844  1.00  0.00     0.217 HD
ENDBRANCH   2  12
TORSDOF 4
ENDMDL
MODEL 6
REMARK VINA RESULT:      -4.4      3.268      4.769
REMARK  4 active torsions:
REMARK  status: ('A' for Active; 'I' for Inactive)
REMARK    1  A    between atoms: C_1  and  C_6 
REMARK    2  A    between atoms: C_2  and  C_5 
REMARK    3  A    between atoms: C_4  and  O_8 
REMARK    4  A    between atoms: C_5  and  C_6 
ROOT
HETATM    1  C   UNL     1      62.199   9.591   2.360  1.00  0.00    -0.025 A 
HETATM    2  C   UNL     1      61.911  10.872   2.849  1.00  0.00     0.071 A 
HETATM    3  C   UNL     1      62.811   8.678   3.240  1.00  0.00     0.010 A 
HETATM    4  C   UNL     1      62.180  11.212   4.176  1.00  0.00     0.037 A 
HETATM    5  C   UNL     1      63.076   9.014   4.569  1.00  0.00     0.001 A 
HETATM    6  C   UNL     1      62.755  10.282   5.040  1.00  0.00     0.003 A 
ENDROOT
BRANCH   1   7
HETATM    7  C   UNL     1      61.873   9.126   0.957  1.00  0.00     0.052 C 
BRANCH   7   8
HETATM    8  C   UNL     1      61.249   7.730   0.943  1.00  0.00     0.118 C 
BRANCH   8   9
HETATM    9  C   UNL     1      59.778   7.789   1.233  1.00  0.00     0.172 C 
HETATM   10  O   UNL     1      58.932   8.420   0.623  1.00  0.00    -0.648 OA
HETATM   11  O   UNL     1      59.448   7.066   2.321  1.00  0.00    -0.648 OA
ENDBRANCH   8   9
ENDBRANCH   7   8
ENDBRANCH   1   7
BRANCH   2  12
HETATM   12  O   UNL     1      61.352  11.867   2.100  1.00  0.00    -0.360 OA
HETATM   13  H   UNL     1      61.142  12.690   2.495  1.00  0.00     0.217 HD
ENDBRANCH   2  12
TORSDOF 4
ENDMDL
MODEL 7
REMARK VINA RESULT:      -4.2      3.124      6.442
REMARK  4 active torsions:
REMARK  status: ('A' for Active; 'I' for Inactive)
REMARK    1  A    between atoms: C_1  and  C_6 
REMARK    2  A    between atoms: C_2  and  C_5 
REMARK    3  A    between atoms: C_4  and  O_8 
REMARK    4  A    between atoms: C_5  and  C_6 
ROOT
HETATM    1  C   UNL     1      67.323   6.274   6.296  1.00  0.00    -0.025 A 
HETATM    2  C   UNL     1      67.274   6.824   7.584  1.00  0.00     0.071 A 
HETATM    3  C   UNL     1      67.695   4.920   6.177  1.00  0.00     0.010 A 
HETATM    4  C   UNL     1      67.539   6.041   8.710  1.00  0.00     0.037 A 
HETATM    5  C   UNL     1      67.954   4.136   7.303  1.00  0.00     0.001 A 
HETATM    6  C   UNL     1      67.870   4.695   8.572  1.00  0.00     0.003 A 
ENDROOT
BRANCH   1   7
HETATM    7  C   UNL     1      66.982   7.037   5.035  1.00  0.00     0.052 C 
BRANCH   7   8
HETATM    8  C   UNL     1      65.477   7.054   4.761  1.00  0.00     0.118 C 
BRANCH   8   9
HETATM    9  C   UNL     1      64.897   8.417   4.999  1.00  0.00     0.172 C 
HETATM   10  O   UNL     1      65.262   9.241   5.819  1.00  0.00    -0.648 OA
HETATM   11  O   UNL     1      63.840   8.661   4.199  1.00  0.00    -0.648 OA
ENDBRANCH   8   9
ENDBRANCH   7   8
ENDBRANCH   1   7
BRANCH   2  12
HETATM   12  O   UNL     1      66.964   8.128   7.846  1.00  0.00    -0.360 OA
HETATM   13  H   UNL     1      66.068   8.391   7.918  1.00  0.00     0.217 HD
ENDBRANCH   2  12
TORSDOF 4
ENDMDL
MODEL 8
REMARK VINA RESULT:      -4.2     12.445     13.840
REMARK  4 active torsions:
REMARK  status: ('A' for Active; 'I' for Inactive)
REMARK    1  A    between atoms: C_1  and  C_6 
REMARK    2  A    between atoms: C_2  and  C_5 
REMARK    3  A    between atoms: C_4  and  O_8 
REMARK    4  A    between atoms: C_5  and  C_6 
ROOT
HETATM    1  C   UNL     1      56.664   1.664  13.277  1.00  0.00    -0.025 A 
HETATM    2  C   UNL     1      57.580   2.387  12.503  1.00  0.00     0.071 A 
HETATM    3  C   UNL     1      57.160   0.595  14.048  1.00  0.00     0.010 A 
HETATM    4  C   UNL     1      58.943   2.085  12.533  1.00  0.00     0.037 A 
HETATM    5  C   UNL     1      58.523   0.294  14.083  1.00  0.00     0.001 A 
HETATM    6  C   UNL     1      59.418   1.045  13.329  1.00  0.00     0.003 A 
ENDROOT
BRANCH   1   7
HETATM    7  C   UNL     1      55.185   1.976  13.352  1.00  0.00     0.052 C 
BRANCH   7   8
HETATM    8  C   UNL     1      54.873   3.042  14.404  1.00  0.00     0.118 C 
BRANCH   8   9
HETATM    9  C   UNL     1      54.431   4.325  13.763  1.00  0.00     0.172 C 
HETATM   10  O   UNL     1      54.166   5.375  14.321  1.00  0.00    -0.648 OA
HETATM   11  O   UNL     1      54.308   4.204  12.426  1.00  0.00    -0.648 OA
ENDBRANCH   8   9
ENDBRANCH   7   8
ENDBRANCH   1   7
BRANCH   2  12
HETATM   12  O   UNL     1      57.236   3.424  11.683  1.00  0.00    -0.360 OA
HETATM   13  H   UNL     1      57.846   4.118  11.523  1.00  0.00     0.217 HD
ENDBRANCH   2  12
TORSDOF 4
ENDMDL
MODEL 9
REMARK VINA RESULT:      -4.2      1.792      4.999
REMARK  4 active torsions:
REMARK  status: ('A' for Active; 'I' for Inactive)
REMARK    1  A    between atoms: C_1  and  C_6 
REMARK    2  A    between atoms: C_2  and  C_5 
REMARK    3  A    between atoms: C_4  and  O_8 
REMARK    4  A    between atoms: C_5  and  C_6 
ROOT
HETATM    1  C   UNL     1      65.516   8.035   5.167  1.00  0.00    -0.025 A 
HETATM    2  C   UNL     1      66.620   7.849   6.010  1.00  0.00     0.071 A 
HETATM    3  C   UNL     1      65.371   7.155   4.076  1.00  0.00     0.010 A 
HETATM    4  C   UNL     1      67.516   6.798   5.799  1.00  0.00     0.037 A 
HETATM    5  C   UNL     1      66.263   6.101   3.868  1.00  0.00     0.001 A 
HETATM    6  C   UNL     1      67.335   5.919   4.735  1.00  0.00     0.003 A 
ENDROOT
BRANCH   1   7
HETATM    7  C   UNL     1      64.465   9.103   5.371  1.00  0.00     0.052 C 
BRANCH   7   8
HETATM    8  C   UNL     1      63.341   9.011   4.337  1.00  0.00     0.118 C 
BRANCH   8   9
HETATM    9  C   UNL     1      62.405  10.178   4.447  1.00  0.00     0.172 C 
HETATM   10  O   UNL     1      61.388  10.371   3.803  1.00  0.00    -0.648 OA
HETATM   11  O   UNL     1      62.827  11.079   5.356  1.00  0.00    -0.648 OA
ENDBRANCH   8   9
ENDBRANCH   7   8
ENDBRANCH   1   7
BRANCH   2  12
HETATM   12  O   UNL     1      66.905   8.645   7.082  1.00  0.00    -0.360 OA
HETATM   13  H   UNL     1      67.497   9.365   6.987  1.00  0.00     0.217 HD
ENDBRANCH   2  12
TORSDOF 4
ENDMDL
