MODEL 1
REMARK VINA RESULT:      -4.1      0.000      0.000
REMARK  1 active torsions:
REMARK  status: ('A' for Active; 'I' for Inactive)
REMARK    1  A    between atoms: C_1  and  C_2 
REMARK       I    between atoms: C_2  and  N_8 
ROOT
HETATM    1  C   UNL     1      62.484  10.215   3.985  1.00  0.00     0.072 A 
HETATM    2  S   UNL     1      62.522   8.873   2.915  1.00  0.00    -0.097 SA
HETATM    3  C   UNL     1      61.999  11.343   3.348  1.00  0.00     0.025 A 
HETATM    4  C   UNL     1      61.897   9.797   1.621  1.00  0.00     0.050 A 
HETATM    5  C   UNL     1      61.661  11.102   1.985  1.00  0.00     0.009 A 
ENDROOT
BRANCH   1   6
HETATM    6  C   UNL     1      62.917  10.118   5.370  1.00  0.00     0.256 C 
HETATM    7  O   UNL     1      62.961   9.067   6.006  1.00  0.00    -0.267 OA
HETATM    8  N   UNL     1      63.292  11.282   5.983  1.00  0.00    -0.366 N 
HETATM    9  H   UNL     1      63.262  12.131   5.485  1.00  0.00     0.159 HD
HETATM   10  H   UNL     1      63.594  11.270   6.919  1.00  0.00     0.159 HD
ENDBRANCH   1   6
TORSDOF 1
ENDMDL
MODEL 2
REMARK VINA RESULT:      -4.0      1.547      1.779
REMARK  1 active torsions:
REMARK  status: ('A' for Active; 'I' for Inactive)
REMARK    1  A    between atoms: C_1  and  C_2 
REMARK       I    between atoms: C_2  and  N_8 
ROOT
HETATM    1  C   UNL     1      62.317  10.075   3.399  1.00  0.00     0.072 A 
HETATM    2  S   UNL     1      62.825   8.437   3.485  1.00  0.00    -0.097 SA
HETATM    3  C   UNL     1      61.875  10.389   2.126  1.00  0.00     0.025 A 
HETATM    4  C   UNL     1      62.454   8.161   1.840  1.00  0.00     0.050 A 
HETATM    5  C   UNL     1      61.954   9.286   1.228  1.00  0.00     0.009 A 
ENDROOT
BRANCH   1   6
HETATM    6  C   UNL     1      62.368  10.966   4.546  1.00  0.00     0.256 C 
HETATM    7  O   UNL     1      61.888  12.097   4.561  1.00  0.00    -0.267 OA
HETATM    8  N   UNL     1      62.995  10.495   5.667  1.00  0.00    -0.366 N 
HETATM    9  H   UNL     1      63.384   9.590   5.670  1.00  0.00     0.159 HD
HETATM   10  H   UNL     1      63.056  11.059   6.471  1.00  0.00     0.159 HD
ENDBRANCH   1   6
TORSDOF 1
ENDMDL
MODEL 3
REMARK VINA RESULT:      -3.9      2.175      2.584
REMARK  1 active torsions:
REMARK  status: ('A' for Active; 'I' for Inactive)
REMARK    1  A    between atoms: C_1  and  C_2 
REMARK       I    between atoms: C_2  and  N_8 
ROOT
HETATM    1  C   UNL     1      63.042   9.709   4.488  1.00  0.00     0.072 A 
HETATM    2  S   UNL     1      64.321   8.706   5.037  1.00  0.00    -0.097 SA
HETATM    3  C   UNL     1      62.354   9.109   3.448  1.00  0.00     0.025 A 
HETATM    4  C   UNL     1      63.952   7.488   3.897  1.00  0.00     0.050 A 
HETATM    5  C   UNL     1      62.878   7.829   3.107  1.00  0.00     0.009 A 
ENDROOT
BRANCH   1   6
HETATM    6  C   UNL     1      62.765  11.010   5.076  1.00  0.00     0.256 C 
HETATM    7  O   UNL     1      61.973  11.823   4.608  1.00  0.00    -0.267 OA
HETATM    8  N   UNL     1      63.442  11.325   6.223  1.00  0.00    -0.366 N 
HETATM    9  H   UNL     1      64.080  10.682   6.610  1.00  0.00     0.159 HD
HETATM   10  H   UNL     1      63.291  12.193   6.661  1.00  0.00     0.159 HD
ENDBRANCH   1   6
TORSDOF 1
ENDMDL
MODEL 4
REMARK VINA RESULT:      -3.8      2.378      2.971
REMARK  1 active torsions:
REMARK  status: ('A' for Active; 'I' for Inactive)
REMARK    1  A    between atoms: C_1  and  C_2 
REMARK       I    between atoms: C_2  and  N_8 
ROOT
HETATM    1  C   UNL     1      62.052   9.822   2.398  1.00  0.00     0.072 A 
HETATM    2  S   UNL     1      62.314   8.538   3.507  1.00  0.00    -0.097 SA
HETATM    3  C   UNL     1      62.065   9.359   1.094  1.00  0.00     0.025 A 
HETATM    4  C   UNL     1      62.440   7.384   2.253  1.00  0.00     0.050 A 
HETATM    5  C   UNL     1      62.288   7.954   1.010  1.00  0.00     0.009 A 
ENDROOT
BRANCH   1   6
HETATM    6  C   UNL     1      61.851  11.195   2.831  1.00  0.00     0.256 C 
HETATM    7  O   UNL     1      61.765  11.540   4.006  1.00  0.00    -0.267 OA
HETATM    8  N   UNL     1      61.752  12.143   1.850  1.00  0.00    -0.366 N 
HETATM    9  H   UNL     1      61.819  11.881   0.903  1.00  0.00     0.159 HD
HETATM   10  H   UNL     1      61.615  13.087   2.090  1.00  0.00     0.159 HD
ENDBRANCH   1   6
TORSDOF 1
ENDMDL
MODEL 5
REMARK VINA RESULT:      -3.6      1.398      1.408
REMARK  1 active torsions:
REMARK  status: ('A' for Active; 'I' for Inactive)
REMARK    1  A    between atoms: C_1  and  C_2 
REMARK       I    between atoms: C_2  and  N_8 
ROOT
HETATM    1  C   UNL     1      62.842   9.541   4.073  1.00  0.00     0.072 A 
HETATM    2  S   UNL     1      62.672   8.507   2.714  1.00  0.00    -0.097 SA
HETATM    3  C   UNL     1      62.257  10.772   3.834  1.00  0.00     0.025 A 
HETATM    4  C   UNL     1      61.826   9.696   1.825  1.00  0.00     0.050 A 
HETATM    5  C   UNL     1      61.671  10.861   2.538  1.00  0.00     0.009 A 
ENDROOT
BRANCH   1   6
HETATM    6  C   UNL     1      63.522   9.124   5.288  1.00  0.00     0.256 C 
HETATM    7  O   UNL     1      64.634   9.521   5.626  1.00  0.00    -0.267 OA
HETATM    8  N   UNL     1      62.862   8.231   6.089  1.00  0.00    -0.366 N 
HETATM    9  H   UNL     1      61.970   7.904   5.830  1.00  0.00     0.159 HD
HETATM   10  H   UNL     1      63.279   7.917   6.923  1.00  0.00     0.159 HD
ENDBRANCH   1   6
TORSDOF 1
ENDMDL
MODEL 6
REMARK VINA RESULT:      -3.6      1.825      2.163
REMARK  1 active torsions:
REMARK  status: ('A' for Active; 'I' for Inactive)
REMARK    1  A    between atoms: C_1  and  C_2 
REMARK       I    between atoms: C_2  and  N_8 
ROOT
HETATM    1  C   UNL     1      62.979   9.094   3.941  1.00  0.00     0.072 A 
HETATM    2  S   UNL     1      62.030  10.459   3.516  1.00  0.00    -0.097 SA
HETATM    3  C   UNL     1      63.050   8.195   2.892  1.00  0.00     0.025 A 
HETATM    4  C   UNL     1      61.724   9.849   1.950  1.00  0.00     0.050 A 
HETATM    5  C   UNL     1      62.326   8.630   1.744  1.00  0.00     0.009 A 
ENDROOT
BRANCH   1   6
HETATM    6  C   UNL     1      63.601   8.955   5.248  1.00  0.00     0.256 C 
HETATM    7  O   UNL     1      64.670   9.475   5.560  1.00  0.00    -0.267 OA
HETATM    8  N   UNL     1      62.937   8.194   6.170  1.00  0.00    -0.366 N 
HETATM    9  H   UNL     1      62.079   7.771   5.934  1.00  0.00     0.159 HD
HETATM   10  H   UNL     1      63.316   8.069   7.070  1.00  0.00     0.159 HD
ENDBRANCH   1   6
TORSDOF 1
ENDMDL
MODEL 7
REMARK VINA RESULT:      -3.3      1.772      2.034
REMARK  1 active torsions:
REMARK  status: ('A' for Active; 'I' for Inactive)
REMARK    1  A    between atoms: C_1  and  C_2 
REMARK       I    between atoms: C_2  and  N_8 
ROOT
HETATM    1  C   UNL     1      63.345   8.822   3.982  1.00  0.00     0.072 A 
HETATM    2  S   UNL     1      63.836   7.241   3.529  1.00  0.00    -0.097 SA
HETATM    3  C   UNL     1      62.435   9.336   3.076  1.00  0.00     0.025 A 
HETATM    4  C   UNL     1      62.840   7.251   2.141  1.00  0.00     0.050 A 
HETATM    5  C   UNL     1      62.144   8.431   2.015  1.00  0.00     0.009 A 
ENDROOT
BRANCH   1   6
HETATM    6  C   UNL     1      63.853   9.483   5.173  1.00  0.00     0.256 C 
HETATM    7  O   UNL     1      64.957   9.261   5.666  1.00  0.00    -0.267 OA
HETATM    8  N   UNL     1      63.034  10.405   5.765  1.00  0.00    -0.366 N 
HETATM    9  H   UNL     1      62.146  10.593   5.380  1.00  0.00     0.159 HD
HETATM   10  H   UNL     1      63.331  10.881   6.573  1.00  0.00     0.159 HD
ENDBRANCH   1   6
TORSDOF 1
ENDMDL
MODEL 8
REMARK VINA RESULT:      -3.1      2.740      3.401
REMARK  1 active torsions:
REMARK  status: ('A' for Active; 'I' for Inactive)
REMARK    1  A    between atoms: C_1  and  C_2 
REMARK       I    between atoms: C_2  and  N_8 
ROOT
HETATM    1  C   UNL     1      62.483   9.433   3.184  1.00  0.00     0.072 A 
HETATM    2  S   UNL     1      63.359   9.016   4.600  1.00  0.00    -0.097 SA
HETATM    3  C   UNL     1      61.938  10.700   3.294  1.00  0.00     0.025 A 
HETATM    4  C   UNL     1      63.009  10.514   5.343  1.00  0.00     0.050 A 
HETATM    5  C   UNL     1      62.241  11.323   4.539  1.00  0.00     0.009 A 
ENDROOT
BRANCH   1   6
HETATM    6  C   UNL     1      62.365   8.532   2.049  1.00  0.00     0.256 C 
HETATM    7  O   UNL     1      62.370   7.307   2.139  1.00  0.00    -0.267 OA
HETATM    8  N   UNL     1      62.244   9.108   0.813  1.00  0.00    -0.366 N 
HETATM    9  H   UNL     1      62.238  10.089   0.726  1.00  0.00     0.159 HD
HETATM   10  H   UNL     1      62.160   8.542   0.013  1.00  0.00     0.159 HD
ENDBRANCH   1   6
TORSDOF 1
ENDMDL
MODEL 9
REMARK VINA RESULT:      -3.1     14.242     14.587
REMARK  1 active torsions:
REMARK  status: ('A' for Active; 'I' for Inactive)
REMARK    1  A    between atoms: C_1  and  C_2 
REMARK       I    between atoms: C_2  and  N_8 
ROOT
HETATM    1  C   UNL     1      56.727   1.629  13.693  1.00  0.00     0.072 A 
HETATM    2  S   UNL     1      56.299  -0.016  13.459  1.00  0.00    -0.097 SA
HETATM    3  C   UNL     1      58.080   1.757  13.950  1.00  0.00     0.025 A 
HETATM    4  C   UNL     1      57.907  -0.543  13.698  1.00  0.00     0.050 A 
HETATM    5  C   UNL     1      58.761   0.505  13.953  1.00  0.00     0.009 A 
ENDROOT
BRANCH   1   6
HETATM    6  C   UNL     1      55.752   2.705  13.619  1.00  0.00     0.256 C 
HETATM    7  O   UNL     1      55.557   3.390  12.619  1.00  0.00    -0.267 OA
HETATM    8  N   UNL     1      55.017   2.951  14.747  1.00  0.00    -0.366 N 
HETATM    9  H   UNL     1      55.162   2.409  15.557  1.00  0.00     0.159 HD
HETATM   10  H   UNL     1      54.344   3.667  14.749  1.00  0.00     0.159 HD
ENDBRANCH   1   6
TORSDOF 1
ENDMDL
