MODEL 1
REMARK VINA RESULT:      -5.9      0.000      0.000
REMARK  0 active torsions:
REMARK  status: ('A' for Active; 'I' for Inactive)
ROOT
HETATM    1  N   UNL     1      63.865   9.524   5.752  1.00  0.00    -0.286 N 
ATOM      2  HN  UNL     1      64.409   9.363   6.599  1.00  0.00     0.188 HD
HETATM    3  N   UNL     1      63.183  10.691   5.570  1.00  0.00    -0.265 N 
HETATM    4  C   UNL     1      63.805   8.620   4.818  1.00  0.00     0.129 A 
HETATM    5  C   UNL     1      62.419  11.018   4.476  1.00  0.00     0.271 A 
HETATM    6  C   UNL     1      63.037   8.804   3.570  1.00  0.00     0.019 A 
HETATM    7  C   UNL     1      62.357  10.007   3.406  1.00  0.00     0.047 A 
HETATM    8  O   UNL     1      61.821  12.084   4.383  1.00  0.00    -0.266 OA
HETATM    9 CL   UNL     1      64.711   7.186   5.156  1.00  0.00    -0.062 Cl
HETATM   10  C   UNL     1      61.634  10.259   2.235  1.00  0.00     0.018 A 
HETATM   11  C   UNL     1      62.987   7.833   2.563  1.00  0.00     0.016 A 
HETATM   12  C   UNL     1      61.597   9.297   1.225  1.00  0.00     0.001 A 
HETATM   13  C   UNL     1      62.269   8.085   1.391  1.00  0.00     0.001 A 
HETATM   14  H   UNL     1      63.245  11.361   6.288  1.00  0.00     0.190 HD
ENDROOT
TORSDOF 0
ENDMDL
MODEL 2
REMARK VINA RESULT:      -5.6      2.433      3.335
REMARK  0 active torsions:
REMARK  status: ('A' for Active; 'I' for Inactive)
ROOT
HETATM    1  N   UNL     1      61.353  10.202   1.558  1.00  0.00    -0.286 N 
ATOM      2  HN  UNL     1      60.835  10.421   0.707  1.00  0.00     0.188 HD
HETATM    3  N   UNL     1      61.400  11.087   2.595  1.00  0.00    -0.265 N 
HETATM    4  C   UNL     1      61.986   9.072   1.680  1.00  0.00     0.129 A 
HETATM    5  C   UNL     1      62.064  10.904   3.784  1.00  0.00     0.271 A 
HETATM    6  C   UNL     1      62.746   8.703   2.891  1.00  0.00     0.019 A 
HETATM    7  C   UNL     1      62.771   9.620   3.938  1.00  0.00     0.047 A 
HETATM    8  O   UNL     1      62.074  11.749   4.672  1.00  0.00    -0.266 OA
HETATM    9 CL   UNL     1      61.853   8.029   0.306  1.00  0.00    -0.062 Cl
HETATM   10  C   UNL     1      63.448   9.323   5.126  1.00  0.00     0.018 A 
HETATM   11  C   UNL     1      63.414   7.480   3.022  1.00  0.00     0.016 A 
HETATM   12  C   UNL     1      64.100   8.097   5.261  1.00  0.00     0.001 A 
HETATM   13  C   UNL     1      64.086   7.180   4.210  1.00  0.00     0.001 A 
HETATM   14  H   UNL     1      60.912  11.934   2.481  1.00  0.00     0.190 HD
ENDROOT
TORSDOF 0
ENDMDL
MODEL 3
REMARK VINA RESULT:      -5.4      1.412      1.730
REMARK  0 active torsions:
REMARK  status: ('A' for Active; 'I' for Inactive)
ROOT
HETATM    1  N   UNL     1      64.175   7.682   5.044  1.00  0.00    -0.286 N 
ATOM      2  HN  UNL     1      64.702   6.899   5.432  1.00  0.00     0.188 HD
HETATM    3  N   UNL     1      63.931   8.798   5.790  1.00  0.00    -0.265 N 
HETATM    4  C   UNL     1      63.719   7.641   3.827  1.00  0.00     0.129 A 
HETATM    5  C   UNL     1      63.236   9.909   5.379  1.00  0.00     0.271 A 
HETATM    6  C   UNL     1      62.957   8.747   3.215  1.00  0.00     0.019 A 
HETATM    7  C   UNL     1      62.729   9.878   3.995  1.00  0.00     0.047 A 
HETATM    8  O   UNL     1      63.043  10.875   6.107  1.00  0.00    -0.266 OA
HETATM    9 CL   UNL     1      64.093   6.181   2.976  1.00  0.00    -0.062 Cl
HETATM   10  C   UNL     1      62.039  10.975   3.469  1.00  0.00     0.018 A 
HETATM   11  C   UNL     1      62.481   8.702   1.900  1.00  0.00     0.016 A 
HETATM   12  C   UNL     1      61.578  10.935   2.152  1.00  0.00     0.001 A 
HETATM   13  C   UNL     1      61.795   9.800   1.372  1.00  0.00     0.001 A 
HETATM   14  H   UNL     1      64.287   8.808   6.708  1.00  0.00     0.190 HD
ENDROOT
TORSDOF 0
ENDMDL
MODEL 4
REMARK VINA RESULT:      -5.3      2.530      3.279
REMARK  0 active torsions:
REMARK  status: ('A' for Active; 'I' for Inactive)
ROOT
HETATM    1  N   UNL     1      63.115   6.752   2.866  1.00  0.00    -0.286 N 
ATOM      2  HN  UNL     1      63.336   5.816   2.528  1.00  0.00     0.188 HD
HETATM    3  N   UNL     1      63.229   7.062   4.189  1.00  0.00    -0.265 N 
HETATM    4  C   UNL     1      62.717   7.680   2.046  1.00  0.00     0.129 A 
HETATM    5  C   UNL     1      62.958   8.282   4.760  1.00  0.00     0.271 A 
HETATM    6  C   UNL     1      62.389   9.052   2.482  1.00  0.00     0.019 A 
HETATM    7  C   UNL     1      62.522   9.344   3.836  1.00  0.00     0.047 A 
HETATM    8  O   UNL     1      63.071   8.489   5.963  1.00  0.00    -0.266 OA
HETATM    9 CL   UNL     1      62.614   7.174   0.394  1.00  0.00    -0.062 Cl
HETATM   10  C   UNL     1      62.255  10.632   4.313  1.00  0.00     0.018 A 
HETATM   11  C   UNL     1      61.973  10.049   1.592  1.00  0.00     0.016 A 
HETATM   12  C   UNL     1      61.856  11.630   3.423  1.00  0.00     0.001 A 
HETATM   13  C   UNL     1      61.712  11.338   2.067  1.00  0.00     0.001 A 
HETATM   14  H   UNL     1      63.534   6.345   4.791  1.00  0.00     0.190 HD
ENDROOT
TORSDOF 0
ENDMDL
MODEL 5
REMARK VINA RESULT:      -5.2      2.542      3.465
REMARK  0 active torsions:
REMARK  status: ('A' for Active; 'I' for Inactive)
ROOT
HETATM    1  N   UNL     1      61.641  11.072   3.267  1.00  0.00    -0.286 N 
ATOM      2  HN  UNL     1      61.275  11.996   3.493  1.00  0.00     0.188 HD
HETATM    3  N   UNL     1      61.331  10.468   2.085  1.00  0.00    -0.265 N 
HETATM    4  C   UNL     1      62.416  10.440   4.099  1.00  0.00     0.129 A 
HETATM    5  C   UNL     1      61.761   9.229   1.672  1.00  0.00     0.271 A 
HETATM    6  C   UNL     1      62.978   9.104   3.819  1.00  0.00     0.019 A 
HETATM    7  C   UNL     1      62.652   8.513   2.602  1.00  0.00     0.047 A 
HETATM    8  O   UNL     1      61.432   8.739   0.598  1.00  0.00    -0.266 OA
HETATM    9 CL   UNL     1      62.745  11.305   5.562  1.00  0.00    -0.062 Cl
HETATM   10  C   UNL     1      63.173   7.260   2.260  1.00  0.00     0.018 A 
HETATM   11  C   UNL     1      63.822   8.435   4.714  1.00  0.00     0.016 A 
HETATM   12  C   UNL     1      64.027   6.601   3.145  1.00  0.00     0.001 A 
HETATM   13  C   UNL     1      64.346   7.186   4.371  1.00  0.00     0.001 A 
HETATM   14  H   UNL     1      60.745  10.964   1.469  1.00  0.00     0.190 HD
ENDROOT
TORSDOF 0
ENDMDL
MODEL 6
REMARK VINA RESULT:      -5.2      2.440      3.075
REMARK  0 active torsions:
REMARK  status: ('A' for Active; 'I' for Inactive)
ROOT
HETATM    1  N   UNL     1      63.102   9.736   5.682  1.00  0.00    -0.286 N 
ATOM      2  HN  UNL     1      63.149  10.318   6.519  1.00  0.00     0.188 HD
HETATM    3  N   UNL     1      63.532   8.442   5.707  1.00  0.00    -0.265 N 
HETATM    4  C   UNL     1      62.632  10.211   4.566  1.00  0.00     0.129 A 
HETATM    5  C   UNL     1      63.519   7.566   4.647  1.00  0.00     0.271 A 
HETATM    6  C   UNL     1      62.536   9.411   3.329  1.00  0.00     0.019 A 
HETATM    7  C   UNL     1      62.973   8.090   3.383  1.00  0.00     0.047 A 
HETATM    8  O   UNL     1      63.933   6.416   4.736  1.00  0.00    -0.266 OA
HETATM    9 CL   UNL     1      62.114  11.859   4.656  1.00  0.00    -0.062 Cl
HETATM   10  C   UNL     1      62.885   7.268   2.255  1.00  0.00     0.018 A 
HETATM   11  C   UNL     1      62.016   9.924   2.135  1.00  0.00     0.016 A 
HETATM   12  C   UNL     1      62.352   7.775   1.069  1.00  0.00     0.001 A 
HETATM   13  C   UNL     1      61.923   9.101   1.009  1.00  0.00     0.001 A 
HETATM   14  H   UNL     1      63.882   8.103   6.562  1.00  0.00     0.190 HD
ENDROOT
TORSDOF 0
ENDMDL
MODEL 7
REMARK VINA RESULT:      -4.7      2.547      3.342
REMARK  0 active torsions:
REMARK  status: ('A' for Active; 'I' for Inactive)
ROOT
HETATM    1  N   UNL     1      63.316   6.618   2.842  1.00  0.00    -0.286 N 
ATOM      2  HN  UNL     1      63.655   5.663   2.953  1.00  0.00     0.188 HD
HETATM    3  N   UNL     1      62.807   7.045   1.651  1.00  0.00    -0.265 N 
HETATM    4  C   UNL     1      63.359   7.459   3.833  1.00  0.00     0.129 A 
HETATM    5  C   UNL     1      62.324   8.304   1.383  1.00  0.00     0.271 A 
HETATM    6  C   UNL     1      62.877   8.851   3.728  1.00  0.00     0.019 A 
HETATM    7  C   UNL     1      62.354   9.259   2.504  1.00  0.00     0.047 A 
HETATM    8  O   UNL     1      61.890   8.624   0.283  1.00  0.00    -0.266 OA
HETATM    9 CL   UNL     1      64.020   6.806   5.293  1.00  0.00    -0.062 Cl
HETATM   10  C   UNL     1      61.853  10.555   2.344  1.00  0.00     0.018 A 
HETATM   11  C   UNL     1      62.914   9.747   4.803  1.00  0.00     0.016 A 
HETATM   12  C   UNL     1      61.876  11.443   3.420  1.00  0.00     0.001 A 
HETATM   13  C   UNL     1      62.409  11.041   4.645  1.00  0.00     0.001 A 
HETATM   14  H   UNL     1      62.781   6.391   0.915  1.00  0.00     0.190 HD
ENDROOT
TORSDOF 0
ENDMDL
MODEL 8
REMARK VINA RESULT:      -4.5      2.711      3.495
REMARK  0 active torsions:
REMARK  status: ('A' for Active; 'I' for Inactive)
ROOT
HETATM    1  N   UNL     1      64.374   9.364   5.728  1.00  0.00    -0.286 N 
ATOM      2  HN  UNL     1      64.437  10.073   6.459  1.00  0.00     0.188 HD
HETATM    3  N   UNL     1      65.188   8.270   5.744  1.00  0.00    -0.265 N 
HETATM    4  C   UNL     1      63.515   9.482   4.759  1.00  0.00     0.129 A 
HETATM    5  C   UNL     1      65.195   7.255   4.818  1.00  0.00     0.271 A 
HETATM    6  C   UNL     1      63.377   8.483   3.680  1.00  0.00     0.019 A 
HETATM    7  C   UNL     1      64.214   7.372   3.724  1.00  0.00     0.047 A 
HETATM    8  O   UNL     1      65.964   6.303   4.886  1.00  0.00    -0.266 OA
HETATM    9 CL   UNL     1      62.535  10.906   4.845  1.00  0.00    -0.062 Cl
HETATM   10  C   UNL     1      64.117   6.372   2.749  1.00  0.00     0.018 A 
HETATM   11  C   UNL     1      62.441   8.610   2.647  1.00  0.00     0.016 A 
HETATM   12  C   UNL     1      63.174   6.491   1.729  1.00  0.00     0.001 A 
HETATM   13  C   UNL     1      62.341   7.609   1.676  1.00  0.00     0.001 A 
HETATM   14  H   UNL     1      65.828   8.200   6.488  1.00  0.00     0.190 HD
ENDROOT
TORSDOF 0
ENDMDL
MODEL 9
REMARK VINA RESULT:      -4.4      3.319      4.533
REMARK  0 active torsions:
REMARK  status: ('A' for Active; 'I' for Inactive)
ROOT
HETATM    1  N   UNL     1      63.496   8.835   4.478  1.00  0.00    -0.286 N 
ATOM      2  HN  UNL     1      62.660   9.408   4.364  1.00  0.00     0.188 HD
HETATM    3  N   UNL     1      64.421   9.132   5.436  1.00  0.00    -0.265 N 
HETATM    4  C   UNL     1      63.706   7.804   3.714  1.00  0.00     0.129 A 
HETATM    5  C   UNL     1      65.581   8.437   5.681  1.00  0.00     0.271 A 
HETATM    6  C   UNL     1      64.895   6.938   3.840  1.00  0.00     0.019 A 
HETATM    7  C   UNL     1      65.820   7.258   4.831  1.00  0.00     0.047 A 
HETATM    8  O   UNL     1      66.377   8.767   6.553  1.00  0.00    -0.266 OA
HETATM    9 CL   UNL     1      62.465   7.523   2.541  1.00  0.00    -0.062 Cl
HETATM   10  C   UNL     1      66.955   6.463   5.024  1.00  0.00     0.018 A 
HETATM   11  C   UNL     1      65.108   5.821   3.023  1.00  0.00     0.016 A 
HETATM   12  C   UNL     1      67.159   5.341   4.220  1.00  0.00     0.001 A 
HETATM   13  C   UNL     1      66.240   5.024   3.219  1.00  0.00     0.001 A 
HETATM   14  H   UNL     1      64.241   9.915   6.004  1.00  0.00     0.190 HD
ENDROOT
TORSDOF 0
ENDMDL
