MODEL 1
REMARK VINA RESULT:      -4.6      0.000      0.000
REMARK  2 active torsions:
REMARK  status: ('A' for Active; 'I' for Inactive)
REMARK    1  A    between atoms: C_1  and  C_6 
REMARK    2  A    between atoms: C_7  and  O_11 
ROOT
HETATM    1  C   UNL     1      62.426   9.904   3.558  1.00  0.00     0.138 A 
HETATM    2  N   UNL     1      63.247   9.059   4.266  1.00  0.00    -0.290 N 
HETATM    3  C   UNL     1      62.310  11.048   4.336  1.00  0.00     0.093 A 
HETATM    4  N   UNL     1      63.655   9.590   5.439  1.00  0.00    -0.278 N 
ATOM      5  HN  UNL     1      64.263   9.170   6.142  1.00  0.00     0.189 HD
HETATM    6  C   UNL     1      63.082  10.781   5.462  1.00  0.00     0.157 A 
HETATM    7  C   UNL     1      63.727   7.731   3.964  1.00  0.00     0.178 C 
ENDROOT
BRANCH   1   8
HETATM    8  C   UNL     1      61.812   9.621   2.246  1.00  0.00     0.434 C 
HETATM    9  F   UNL     1      62.651   9.084   1.331  1.00  0.00    -0.165 F 
HETATM   10  F   UNL     1      60.773   8.756   2.371  1.00  0.00    -0.165 F 
HETATM   11  F   UNL     1      61.308  10.752   1.690  1.00  0.00    -0.165 F 
ENDBRANCH   1   8
BRANCH   6  12
HETATM   12  O   UNL     1      63.318  11.543   6.532  1.00  0.00    -0.345 OA
HETATM   13  H   UNL     1      63.183  11.197   7.392  1.00  0.00     0.219 HD
ENDBRANCH   6  12
TORSDOF 2
ENDMDL
MODEL 2
REMARK VINA RESULT:      -4.4      1.661      2.365
REMARK  2 active torsions:
REMARK  status: ('A' for Active; 'I' for Inactive)
REMARK    1  A    between atoms: C_1  and  C_6 
REMARK    2  A    between atoms: C_7  and  O_11 
ROOT
HETATM    1  C   UNL     1      62.205   9.384   2.558  1.00  0.00     0.138 A 
HETATM    2  N   UNL     1      62.051  10.711   2.877  1.00  0.00    -0.290 N 
HETATM    3  C   UNL     1      62.603   8.762   3.734  1.00  0.00     0.093 A 
HETATM    4  N   UNL     1      62.326  10.973   4.173  1.00  0.00    -0.278 N 
ATOM      5  HN  UNL     1      62.288  11.870   4.656  1.00  0.00     0.189 HD
HETATM    6  C   UNL     1      62.656   9.792   4.669  1.00  0.00     0.157 A 
HETATM    7  C   UNL     1      61.653  11.840   2.068  1.00  0.00     0.178 C 
ENDROOT
BRANCH   1   8
HETATM    8  C   UNL     1      61.985   8.778   1.230  1.00  0.00     0.434 C 
HETATM    9  F   UNL     1      62.710   9.326   0.229  1.00  0.00    -0.165 F 
HETATM   10  F   UNL     1      62.287   7.454   1.244  1.00  0.00    -0.165 F 
HETATM   11  F   UNL     1      60.683   8.873   0.861  1.00  0.00    -0.165 F 
ENDBRANCH   1   8
BRANCH   6  12
HETATM   12  O   UNL     1      62.983   9.752   5.961  1.00  0.00    -0.345 OA
HETATM   13  H   UNL     1      63.478   9.031   6.298  1.00  0.00     0.219 HD
ENDBRANCH   6  12
TORSDOF 2
ENDMDL
MODEL 3
REMARK VINA RESULT:      -4.2      2.330      2.914
REMARK  2 active torsions:
REMARK  status: ('A' for Active; 'I' for Inactive)
REMARK    1  A    between atoms: C_1  and  C_6 
REMARK    2  A    between atoms: C_7  and  O_11 
ROOT
HETATM    1  C   UNL     1      62.567   8.992   3.591  1.00  0.00     0.138 A 
HETATM    2  N   UNL     1      62.014   9.635   2.510  1.00  0.00    -0.290 N 
HETATM    3  C   UNL     1      62.633   9.946   4.598  1.00  0.00     0.093 A 
HETATM    4  N   UNL     1      61.727  10.931   2.764  1.00  0.00    -0.278 N 
ATOM      5  HN  UNL     1      61.314  11.619   2.134  1.00  0.00     0.189 HD
HETATM    6  C   UNL     1      62.105  11.097   4.019  1.00  0.00     0.157 A 
HETATM    7  C   UNL     1      61.700   9.160   1.182  1.00  0.00     0.178 C 
ENDROOT
BRANCH   1   8
HETATM    8  C   UNL     1      62.994   7.580   3.636  1.00  0.00     0.434 C 
HETATM    9  F   UNL     1      63.533   7.187   4.813  1.00  0.00    -0.165 F 
HETATM   10  F   UNL     1      61.948   6.748   3.395  1.00  0.00    -0.165 F 
HETATM   11  F   UNL     1      63.922   7.321   2.681  1.00  0.00    -0.165 F 
ENDBRANCH   1   8
BRANCH   6  12
HETATM   12  O   UNL     1      61.934  12.311   4.545  1.00  0.00    -0.345 OA
HETATM   13  H   UNL     1      62.425  13.038   4.216  1.00  0.00     0.219 HD
ENDBRANCH   6  12
TORSDOF 2
ENDMDL
MODEL 4
REMARK VINA RESULT:      -4.1      1.522      2.057
REMARK  2 active torsions:
REMARK  status: ('A' for Active; 'I' for Inactive)
REMARK    1  A    between atoms: C_1  and  C_6 
REMARK    2  A    between atoms: C_7  and  O_11 
ROOT
HETATM    1  C   UNL     1      62.470   9.152   3.283  1.00  0.00     0.138 A 
HETATM    2  N   UNL     1      62.935   9.153   4.576  1.00  0.00    -0.290 N 
HETATM    3  C   UNL     1      61.994  10.437   3.058  1.00  0.00     0.093 A 
HETATM    4  N   UNL     1      62.785  10.349   5.185  1.00  0.00    -0.278 N 
ATOM      5  HN  UNL     1      63.047  10.609   6.135  1.00  0.00     0.189 HD
HETATM    6  C   UNL     1      62.219  11.105   4.259  1.00  0.00     0.157 A 
HETATM    7  C   UNL     1      63.542   8.106   5.366  1.00  0.00     0.178 C 
ENDROOT
BRANCH   1   8
HETATM    8  C   UNL     1      62.487   8.005   2.354  1.00  0.00     0.434 C 
HETATM    9  F   UNL     1      61.579   7.040   2.627  1.00  0.00    -0.165 F 
HETATM   10  F   UNL     1      62.249   8.408   1.079  1.00  0.00    -0.165 F 
HETATM   11  F   UNL     1      63.702   7.401   2.348  1.00  0.00    -0.165 F 
ENDBRANCH   1   8
BRANCH   6  12
HETATM   12  O   UNL     1      61.949  12.367   4.593  1.00  0.00    -0.345 OA
HETATM   13  H   UNL     1      61.596  12.956   3.956  1.00  0.00     0.219 HD
ENDBRANCH   6  12
TORSDOF 2
ENDMDL
MODEL 5
REMARK VINA RESULT:      -4.1      2.840      3.433
REMARK  2 active torsions:
REMARK  status: ('A' for Active; 'I' for Inactive)
REMARK    1  A    between atoms: C_1  and  C_6 
REMARK    2  A    between atoms: C_7  and  O_11 
ROOT
HETATM    1  C   UNL     1      62.707   8.777   4.793  1.00  0.00     0.138 A 
HETATM    2  N   UNL     1      61.693   8.877   3.870  1.00  0.00    -0.290 N 
HETATM    3  C   UNL     1      63.046  10.085   5.115  1.00  0.00     0.093 A 
HETATM    4  N   UNL     1      61.369  10.157   3.586  1.00  0.00    -0.278 N 
ATOM      5  HN  UNL     1      60.657  10.497   2.940  1.00  0.00     0.189 HD
HETATM    6  C   UNL     1      62.192  10.865   4.341  1.00  0.00     0.157 A 
HETATM    7  C   UNL     1      60.940   7.858   3.176  1.00  0.00     0.178 C 
ENDROOT
BRANCH   1   8
HETATM    8  C   UNL     1      63.291   7.524   5.311  1.00  0.00     0.434 C 
HETATM    9  F   UNL     1      63.722   6.664   4.361  1.00  0.00    -0.165 F 
HETATM   10  F   UNL     1      64.357   7.779   6.112  1.00  0.00    -0.165 F 
HETATM   11  F   UNL     1      62.392   6.845   6.068  1.00  0.00    -0.165 F 
ENDBRANCH   1   8
BRANCH   6  12
HETATM   12  O   UNL     1      62.092  12.192   4.260  1.00  0.00    -0.345 OA
HETATM   13  H   UNL     1      61.283  12.587   4.001  1.00  0.00     0.219 HD
ENDBRANCH   6  12
TORSDOF 2
ENDMDL
MODEL 6
REMARK VINA RESULT:      -4.0      1.468      2.238
REMARK  2 active torsions:
REMARK  status: ('A' for Active; 'I' for Inactive)
REMARK    1  A    between atoms: C_1  and  C_6 
REMARK    2  A    between atoms: C_7  and  O_11 
ROOT
HETATM    1  C   UNL     1      62.939   8.822   3.425  1.00  0.00     0.138 A 
HETATM    2  N   UNL     1      62.841   9.887   4.289  1.00  0.00    -0.290 N 
HETATM    3  C   UNL     1      63.839   7.945   4.016  1.00  0.00     0.093 A 
HETATM    4  N   UNL     1      63.619   9.744   5.384  1.00  0.00    -0.278 N 
ATOM      5  HN  UNL     1      63.726  10.387   6.168  1.00  0.00     0.189 HD
HETATM    6  C   UNL     1      64.209   8.575   5.201  1.00  0.00     0.157 A 
HETATM    7  C   UNL     1      62.061  11.100   4.213  1.00  0.00     0.178 C 
ENDROOT
BRANCH   1   8
HETATM    8  C   UNL     1      62.222   8.675   2.143  1.00  0.00     0.434 C 
HETATM    9  F   UNL     1      62.565   7.582   1.424  1.00  0.00    -0.165 F 
HETATM   10  F   UNL     1      60.881   8.601   2.341  1.00  0.00    -0.165 F 
HETATM   11  F   UNL     1      62.436   9.748   1.341  1.00  0.00    -0.165 F 
ENDBRANCH   1   8
BRANCH   6  12
HETATM   12  O   UNL     1      65.054   8.171   6.151  1.00  0.00    -0.345 OA
HETATM   13  H   UNL     1      65.548   8.800   6.638  1.00  0.00     0.219 HD
ENDBRANCH   6  12
TORSDOF 2
ENDMDL
MODEL 7
REMARK VINA RESULT:      -4.0      1.600      2.085
REMARK  2 active torsions:
REMARK  status: ('A' for Active; 'I' for Inactive)
REMARK    1  A    between atoms: C_1  and  C_6 
REMARK    2  A    between atoms: C_7  and  O_11 
ROOT
HETATM    1  C   UNL     1      62.400   9.102   2.747  1.00  0.00     0.138 A 
HETATM    2  N   UNL     1      62.868   7.819   2.901  1.00  0.00    -0.290 N 
HETATM    3  C   UNL     1      62.482   9.682   4.006  1.00  0.00     0.093 A 
HETATM    4  N   UNL     1      63.239   7.548   4.171  1.00  0.00    -0.278 N 
ATOM      5  HN  UNL     1      63.616   6.676   4.544  1.00  0.00     0.189 HD
HETATM    6  C   UNL     1      63.000   8.676   4.817  1.00  0.00     0.157 A 
HETATM    7  C   UNL     1      63.021   6.745   1.947  1.00  0.00     0.178 C 
ENDROOT
BRANCH   1   8
HETATM    8  C   UNL     1      61.916   9.705   1.489  1.00  0.00     0.434 C 
HETATM    9  F   UNL     1      61.783  11.051   1.520  1.00  0.00    -0.165 F 
HETATM   10  F   UNL     1      62.756   9.424   0.460  1.00  0.00    -0.165 F 
HETATM   11  F   UNL     1      60.702   9.204   1.145  1.00  0.00    -0.165 F 
ENDBRANCH   1   8
BRANCH   6  12
HETATM   12  O   UNL     1      63.280   8.695   6.121  1.00  0.00    -0.345 OA
HETATM   13  H   UNL     1      64.033   9.157   6.432  1.00  0.00     0.219 HD
ENDBRANCH   6  12
TORSDOF 2
ENDMDL
MODEL 8
REMARK VINA RESULT:      -4.0      1.842      2.035
REMARK  2 active torsions:
REMARK  status: ('A' for Active; 'I' for Inactive)
REMARK    1  A    between atoms: C_1  and  C_6 
REMARK    2  A    between atoms: C_7  and  O_11 
ROOT
HETATM    1  C   UNL     1      63.053   8.959   3.914  1.00  0.00     0.138 A 
HETATM    2  N   UNL     1      63.742   7.804   3.631  1.00  0.00    -0.290 N 
HETATM    3  C   UNL     1      63.731   9.547   4.974  1.00  0.00     0.093 A 
HETATM    4  N   UNL     1      64.807   7.620   4.441  1.00  0.00    -0.278 N 
ATOM      5  HN  UNL     1      65.475   6.849   4.437  1.00  0.00     0.189 HD
HETATM    6  C   UNL     1      64.783   8.674   5.238  1.00  0.00     0.157 A 
HETATM    7  C   UNL     1      63.513   6.784   2.634  1.00  0.00     0.178 C 
ENDROOT
BRANCH   1   8
HETATM    8  C   UNL     1      61.845   9.444   3.217  1.00  0.00     0.434 C 
HETATM    9  F   UNL     1      61.982   9.589   1.879  1.00  0.00    -0.165 F 
HETATM   10  F   UNL     1      60.800   8.598   3.408  1.00  0.00    -0.165 F 
HETATM   11  F   UNL     1      61.457  10.652   3.699  1.00  0.00    -0.165 F 
ENDBRANCH   1   8
BRANCH   6  12
HETATM   12  O   UNL     1      65.743   8.755   6.160  1.00  0.00    -0.345 OA
HETATM   13  H   UNL     1      66.072   7.976   6.564  1.00  0.00     0.219 HD
ENDBRANCH   6  12
TORSDOF 2
ENDMDL
MODEL 9
REMARK VINA RESULT:      -4.0      3.204      3.966
REMARK  2 active torsions:
REMARK  status: ('A' for Active; 'I' for Inactive)
REMARK    1  A    between atoms: C_1  and  C_6 
REMARK    2  A    between atoms: C_7  and  O_11 
ROOT
HETATM    1  C   UNL     1      63.223   8.818   4.007  1.00  0.00     0.138 A 
HETATM    2  N   UNL     1      62.612  10.005   4.329  1.00  0.00    -0.290 N 
HETATM    3  C   UNL     1      62.591   8.375   2.853  1.00  0.00     0.093 A 
HETATM    4  N   UNL     1      61.635  10.343   3.459  1.00  0.00    -0.278 N 
ATOM      5  HN  UNL     1      61.037  11.169   3.475  1.00  0.00     0.189 HD
HETATM    6  C   UNL     1      61.638   9.354   2.583  1.00  0.00     0.157 A 
HETATM    7  C   UNL     1      62.841  10.924   5.421  1.00  0.00     0.178 C 
ENDROOT
BRANCH   1   8
HETATM    8  C   UNL     1      64.320   8.173   4.756  1.00  0.00     0.434 C 
HETATM    9  F   UNL     1      65.404   8.956   4.959  1.00  0.00    -0.165 F 
HETATM   10  F   UNL     1      63.901   7.770   5.983  1.00  0.00    -0.165 F 
HETATM   11  F   UNL     1      64.760   7.062   4.114  1.00  0.00    -0.165 F 
ENDBRANCH   1   8
BRANCH   6  12
HETATM   12  O   UNL     1      60.753   9.427   1.588  1.00  0.00    -0.345 OA
HETATM   13  H   UNL     1      61.002   9.799   0.765  1.00  0.00     0.219 HD
ENDBRANCH   6  12
TORSDOF 2
ENDMDL
