MODEL 1
REMARK VINA RESULT:      -4.3      0.000      0.000
REMARK  0 active torsions:
REMARK  status: ('A' for Active; 'I' for Inactive)
ROOT
HETATM    1  N   UNL     1      61.616  10.531   1.657  1.00  0.00    -0.307 N 
ATOM      2  HN  UNL     1      61.238  10.867   0.771  1.00  0.00     0.186 HD
HETATM    3  N   UNL     1      61.649  11.338   2.744  1.00  0.00    -0.270 N 
HETATM    4  C   UNL     1      62.117  11.038   3.989  1.00  0.00     0.236 A 
HETATM    5  C   UNL     1      62.074   9.325   1.766  1.00  0.00     0.000 A 
HETATM    6  O   UNL     1      62.078  11.869   4.896  1.00  0.00    -0.272 OA
HETATM    7  C   UNL     1      62.683   9.667   4.212  1.00  0.00     0.110 A 
HETATM    8  C   UNL     1      62.654   8.740   3.021  1.00  0.00     0.062 A 
HETATM    9  C   UNL     1      62.028   8.438   0.546  1.00  0.00     0.065 C 
HETATM   10  H   UNL     1      61.294  12.248   2.620  1.00  0.00     0.190 HD
ENDROOT
TORSDOF 0
ENDMDL
MODEL 2
REMARK VINA RESULT:      -4.1      2.344      3.016
REMARK  0 active torsions:
REMARK  status: ('A' for Active; 'I' for Inactive)
ROOT
HETATM    1  N   UNL     1      64.013   9.415   5.590  1.00  0.00    -0.307 N 
ATOM      2  HN  UNL     1      64.645   9.211   6.364  1.00  0.00     0.186 HD
HETATM    3  N   UNL     1      63.319  10.577   5.553  1.00  0.00    -0.270 N 
HETATM    4  C   UNL     1      62.444  10.993   4.593  1.00  0.00     0.236 A 
HETATM    5  C   UNL     1      63.858   8.568   4.623  1.00  0.00     0.000 A 
HETATM    6  O   UNL     1      61.884  12.085   4.679  1.00  0.00    -0.272 OA
HETATM    7  C   UNL     1      62.184  10.073   3.437  1.00  0.00     0.110 A 
HETATM    8  C   UNL     1      62.950   8.771   3.444  1.00  0.00     0.062 A 
HETATM    9  C   UNL     1      64.640   7.279   4.678  1.00  0.00     0.065 C 
HETATM   10  H   UNL     1      63.462  11.193   6.307  1.00  0.00     0.190 HD
ENDROOT
TORSDOF 0
ENDMDL
MODEL 3
REMARK VINA RESULT:      -4.0      1.788      2.055
REMARK  0 active torsions:
REMARK  status: ('A' for Active; 'I' for Inactive)
ROOT
HETATM    1  N   UNL     1      62.928   8.850   3.374  1.00  0.00    -0.307 N 
ATOM      2  HN  UNL     1      63.239   7.911   3.125  1.00  0.00     0.186 HD
HETATM    3  N   UNL     1      63.163   9.352   4.609  1.00  0.00    -0.270 N 
HETATM    4  C   UNL     1      62.815  10.580   5.088  1.00  0.00     0.236 A 
HETATM    5  C   UNL     1      62.300   9.587   2.514  1.00  0.00     0.000 A 
HETATM    6  O   UNL     1      63.100  10.914   6.238  1.00  0.00    -0.272 OA
HETATM    7  C   UNL     1      62.070  11.503   4.171  1.00  0.00     0.110 A 
HETATM    8  C   UNL     1      61.798  10.977   2.782  1.00  0.00     0.062 A 
HETATM    9  C   UNL     1      62.048   9.015   1.141  1.00  0.00     0.065 C 
HETATM   10  H   UNL     1      63.640   8.759   5.234  1.00  0.00     0.190 HD
ENDROOT
TORSDOF 0
ENDMDL
MODEL 4
REMARK VINA RESULT:      -3.9      1.652      2.005
REMARK  0 active torsions:
REMARK  status: ('A' for Active; 'I' for Inactive)
ROOT
HETATM    1  N   UNL     1      60.698   8.586   3.130  1.00  0.00    -0.307 N 
ATOM      2  HN  UNL     1      60.170   7.903   3.674  1.00  0.00     0.186 HD
HETATM    3  N   UNL     1      61.040   9.781   3.667  1.00  0.00    -0.270 N 
HETATM    4  C   UNL     1      61.740  10.790   3.073  1.00  0.00     0.236 A 
HETATM    5  C   UNL     1      61.053   8.328   1.912  1.00  0.00     0.000 A 
HETATM    6  O   UNL     1      61.992  11.828   3.683  1.00  0.00    -0.272 OA
HETATM    7  C   UNL     1      62.184  10.592   1.655  1.00  0.00     0.110 A 
HETATM    8  C   UNL     1      61.825   9.266   1.029  1.00  0.00     0.062 A 
HETATM    9  C   UNL     1      60.666   6.992   1.330  1.00  0.00     0.065 C 
HETATM   10  H   UNL     1      60.749   9.940   4.594  1.00  0.00     0.190 HD
ENDROOT
TORSDOF 0
ENDMDL
MODEL 5
REMARK VINA RESULT:      -3.8      2.621      3.203
REMARK  0 active torsions:
REMARK  status: ('A' for Active; 'I' for Inactive)
ROOT
HETATM    1  N   UNL     1      62.726  10.620   4.894  1.00  0.00    -0.307 N 
ATOM      2  HN  UNL     1      62.933  11.607   5.046  1.00  0.00     0.186 HD
HETATM    3  N   UNL     1      63.043   9.695   5.830  1.00  0.00    -0.270 N 
HETATM    4  C   UNL     1      62.830   8.349   5.776  1.00  0.00     0.236 A 
HETATM    5  C   UNL     1      62.154  10.226   3.801  1.00  0.00     0.000 A 
HETATM    6  O   UNL     1      63.162   7.618   6.708  1.00  0.00    -0.272 OA
HETATM    7  C   UNL     1      62.187   7.792   4.541  1.00  0.00     0.110 A 
HETATM    8  C   UNL     1      61.813   8.799   3.480  1.00  0.00     0.062 A 
HETATM    9  C   UNL     1      61.806  11.269   2.769  1.00  0.00     0.065 C 
HETATM   10  H   UNL     1      63.478  10.034   6.646  1.00  0.00     0.190 HD
ENDROOT
TORSDOF 0
ENDMDL
MODEL 6
REMARK VINA RESULT:      -3.7      1.702      1.909
REMARK  0 active torsions:
REMARK  status: ('A' for Active; 'I' for Inactive)
ROOT
HETATM    1  N   UNL     1      61.097   8.892   3.001  1.00  0.00    -0.307 N 
ATOM      2  HN  UNL     1      60.461   8.497   2.307  1.00  0.00     0.186 HD
HETATM    3  N   UNL     1      61.208  10.233   3.152  1.00  0.00    -0.270 N 
HETATM    4  C   UNL     1      62.004  10.907   4.029  1.00  0.00     0.236 A 
HETATM    5  C   UNL     1      61.813   8.120   3.755  1.00  0.00     0.000 A 
HETATM    6  O   UNL     1      62.002  12.137   4.068  1.00  0.00    -0.272 OA
HETATM    7  C   UNL     1      62.885  10.101   4.937  1.00  0.00     0.110 A 
HETATM    8  C   UNL     1      62.779   8.601   4.799  1.00  0.00     0.062 A 
HETATM    9  C   UNL     1      61.675   6.629   3.575  1.00  0.00     0.065 C 
HETATM   10  H   UNL     1      60.649  10.784   2.558  1.00  0.00     0.190 HD
ENDROOT
TORSDOF 0
ENDMDL
MODEL 7
REMARK VINA RESULT:      -3.5      2.246      2.428
REMARK  0 active torsions:
REMARK  status: ('A' for Active; 'I' for Inactive)
ROOT
HETATM    1  N   UNL     1      63.083   8.078   2.641  1.00  0.00    -0.307 N 
ATOM      2  HN  UNL     1      63.288   7.289   2.028  1.00  0.00     0.186 HD
HETATM    3  N   UNL     1      63.627   8.151   3.879  1.00  0.00    -0.270 N 
HETATM    4  C   UNL     1      63.453   9.134   4.808  1.00  0.00     0.236 A 
HETATM    5  C   UNL     1      62.297   9.031   2.251  1.00  0.00     0.000 A 
HETATM    6  O   UNL     1      64.018   9.080   5.899  1.00  0.00    -0.272 OA
HETATM    7  C   UNL     1      62.547  10.276   4.456  1.00  0.00     0.110 A 
HETATM    8  C   UNL     1      61.930  10.229   3.079  1.00  0.00     0.062 A 
HETATM    9  C   UNL     1      61.702   8.936   0.869  1.00  0.00     0.065 C 
HETATM   10  H   UNL     1      64.216   7.406   4.138  1.00  0.00     0.190 HD
ENDROOT
TORSDOF 0
ENDMDL
MODEL 8
REMARK VINA RESULT:      -3.5      6.120      6.951
REMARK  0 active torsions:
REMARK  status: ('A' for Active; 'I' for Inactive)
ROOT
HETATM    1  N   UNL     1      65.635   6.788   7.741  1.00  0.00    -0.307 N 
ATOM      2  HN  UNL     1      65.095   6.528   8.566  1.00  0.00     0.186 HD
HETATM    3  N   UNL     1      65.124   7.640   6.821  1.00  0.00    -0.270 N 
HETATM    4  C   UNL     1      65.718   8.083   5.676  1.00  0.00     0.236 A 
HETATM    5  C   UNL     1      66.824   6.311   7.552  1.00  0.00     0.000 A 
HETATM    6  O   UNL     1      65.140   8.869   4.927  1.00  0.00    -0.272 OA
HETATM    7  C   UNL     1      67.093   7.574   5.360  1.00  0.00     0.110 A 
HETATM    8  C   UNL     1      67.695   6.627   6.370  1.00  0.00     0.062 A 
HETATM    9  C   UNL     1      67.380   5.365   8.587  1.00  0.00     0.065 C 
HETATM   10  H   UNL     1      64.217   7.979   7.000  1.00  0.00     0.190 HD
ENDROOT
TORSDOF 0
ENDMDL
MODEL 9
REMARK VINA RESULT:      -3.4      6.916      7.465
REMARK  0 active torsions:
REMARK  status: ('A' for Active; 'I' for Inactive)
ROOT
HETATM    1  N   UNL     1      67.586   5.776   7.439  1.00  0.00    -0.307 N 
ATOM      2  HN  UNL     1      67.893   5.305   8.290  1.00  0.00     0.186 HD
HETATM    3  N   UNL     1      67.161   7.061   7.476  1.00  0.00    -0.270 N 
HETATM    4  C   UNL     1      66.724   7.824   6.434  1.00  0.00     0.236 A 
HETATM    5  C   UNL     1      67.594   5.158   6.302  1.00  0.00     0.000 A 
HETATM    6  O   UNL     1      66.373   8.990   6.607  1.00  0.00    -0.272 OA
HETATM    7  C   UNL     1      66.682   7.191   5.074  1.00  0.00     0.110 A 
HETATM    8  C   UNL     1      67.157   5.760   4.997  1.00  0.00     0.062 A 
HETATM    9  C   UNL     1      68.072   3.727   6.277  1.00  0.00     0.065 C 
HETATM   10  H   UNL     1      67.167   7.495   8.360  1.00  0.00     0.190 HD
ENDROOT
TORSDOF 0
ENDMDL
