MODEL 1
REMARK VINA RESULT:      -5.6      0.000      0.000
REMARK  2 active torsions:
REMARK  status: ('A' for Active; 'I' for Inactive)
REMARK    1  A    between atoms: C_3  and  C_4 
REMARK    2  A    between atoms: C_4  and  O_10 
ROOT
HETATM    1  N   UNL     1      63.341   9.107   5.962  1.00  0.00    -0.360 N 
ATOM      2  HN  UNL     1      63.551   9.252   6.949  1.00  0.00     0.165 HD
HETATM    3  C   UNL     1      63.558   7.914   5.352  1.00  0.00     0.108 A 
HETATM    4  C   UNL     1      63.279   7.684   4.007  1.00  0.00     0.048 A 
HETATM    5  C   UNL     1      62.751   8.721   3.228  1.00  0.00    -0.022 A 
HETATM    6  C   UNL     1      62.830  10.097   5.187  1.00  0.00     0.100 A 
HETATM    7  C   UNL     1      62.518   9.973   3.827  1.00  0.00    -0.011 A 
HETATM    8  C   UNL     1      62.450   8.540   1.866  1.00  0.00     0.012 A 
HETATM    9  C   UNL     1      61.994  11.024   3.051  1.00  0.00     0.013 A 
HETATM   10  C   UNL     1      61.925   9.590   1.108  1.00  0.00     0.001 A 
HETATM   11  C   UNL     1      61.700  10.831   1.700  1.00  0.00     0.001 A 
ENDROOT
BRANCH   3  12
HETATM   12  C   UNL     1      64.126   6.780   6.148  1.00  0.00     0.309 C 
HETATM   13  O   UNL     1      64.096   5.619   5.759  1.00  0.00    -0.258 OA
BRANCH  12  14
HETATM   14  O   UNL     1      64.666   7.192   7.325  1.00  0.00    -0.321 OA
HETATM   15  C   UNL     1      65.843   6.469   7.698  1.00  0.00     0.213 C 
ENDBRANCH  12  14
ENDBRANCH   3  12
TORSDOF 2
ENDMDL
MODEL 2
REMARK VINA RESULT:      -5.4      1.184      1.390
REMARK  2 active torsions:
REMARK  status: ('A' for Active; 'I' for Inactive)
REMARK    1  A    between atoms: C_3  and  C_4 
REMARK    2  A    between atoms: C_4  and  O_10 
ROOT
HETATM    1  N   UNL     1      63.765   9.193   5.740  1.00  0.00    -0.360 N 
ATOM      2  HN  UNL     1      63.976   9.585   6.658  1.00  0.00     0.165 HD
HETATM    3  C   UNL     1      64.237   7.981   5.355  1.00  0.00     0.108 A 
HETATM    4  C   UNL     1      63.965   7.419   4.110  1.00  0.00     0.048 A 
HETATM    5  C   UNL     1      63.170   8.122   3.197  1.00  0.00    -0.022 A 
HETATM    6  C   UNL     1      62.998   9.857   4.839  1.00  0.00     0.100 A 
HETATM    7  C   UNL     1      62.668   9.385   3.562  1.00  0.00    -0.011 A 
HETATM    8  C   UNL     1      62.863   7.598   1.929  1.00  0.00     0.012 A 
HETATM    9  C   UNL     1      61.873  10.104   2.649  1.00  0.00     0.013 A 
HETATM   10  C   UNL     1      62.069   8.320   1.034  1.00  0.00     0.001 A 
HETATM   11  C   UNL     1      61.577   9.572   1.394  1.00  0.00     0.001 A 
ENDROOT
BRANCH   3  12
HETATM   12  C   UNL     1      65.096   7.198   6.299  1.00  0.00     0.309 C 
HETATM   13  O   UNL     1      64.775   6.987   7.463  1.00  0.00    -0.258 OA
BRANCH  12  14
HETATM   14  O   UNL     1      66.243   6.761   5.717  1.00  0.00    -0.321 OA
HETATM   15  C   UNL     1      67.296   7.729   5.734  1.00  0.00     0.213 C 
ENDBRANCH  12  14
ENDBRANCH   3  12
TORSDOF 2
ENDMDL
MODEL 3
REMARK VINA RESULT:      -5.3      1.268      2.218
REMARK  2 active torsions:
REMARK  status: ('A' for Active; 'I' for Inactive)
REMARK    1  A    between atoms: C_3  and  C_4 
REMARK    2  A    between atoms: C_4  and  O_10 
ROOT
HETATM    1  N   UNL     1      63.246   6.836   3.850  1.00  0.00    -0.360 N 
ATOM      2  HN  UNL     1      63.486   5.848   3.768  1.00  0.00     0.165 HD
HETATM    3  C   UNL     1      63.312   7.491   5.037  1.00  0.00     0.108 A 
HETATM    4  C   UNL     1      62.994   8.840   5.181  1.00  0.00     0.048 A 
HETATM    5  C   UNL     1      62.581   9.571   4.062  1.00  0.00    -0.022 A 
HETATM    6  C   UNL     1      62.843   7.565   2.779  1.00  0.00     0.100 A 
HETATM    7  C   UNL     1      62.496   8.922   2.816  1.00  0.00    -0.011 A 
HETATM    8  C   UNL     1      62.251  10.935   4.153  1.00  0.00     0.012 A 
HETATM    9  C   UNL     1      62.076   9.648   1.684  1.00  0.00     0.013 A 
HETATM   10  C   UNL     1      61.840  11.645   3.022  1.00  0.00     0.001 A 
HETATM   11  C   UNL     1      61.751  11.001   1.790  1.00  0.00     0.001 A 
ENDROOT
BRANCH   3  12
HETATM   12  C   UNL     1      63.744   6.743   6.261  1.00  0.00     0.309 C 
HETATM   13  O   UNL     1      64.296   7.290   7.208  1.00  0.00    -0.258 OA
BRANCH  12  14
HETATM   14  O   UNL     1      63.452   5.418   6.189  1.00  0.00    -0.321 OA
HETATM   15  C   UNL     1      64.547   4.571   6.547  1.00  0.00     0.213 C 
ENDBRANCH  12  14
ENDBRANCH   3  12
TORSDOF 2
ENDMDL
MODEL 4
REMARK VINA RESULT:      -5.1      1.482      2.426
REMARK  2 active torsions:
REMARK  status: ('A' for Active; 'I' for Inactive)
REMARK    1  A    between atoms: C_3  and  C_4 
REMARK    2  A    between atoms: C_4  and  O_10 
ROOT
HETATM    1  N   UNL     1      64.733   6.693   4.265  1.00  0.00    -0.360 N 
ATOM      2  HN  UNL     1      65.347   5.945   4.587  1.00  0.00     0.165 HD
HETATM    3  C   UNL     1      64.554   7.831   4.983  1.00  0.00     0.108 A 
HETATM    4  C   UNL     1      63.725   8.870   4.568  1.00  0.00     0.048 A 
HETATM    5  C   UNL     1      63.032   8.755   3.358  1.00  0.00    -0.022 A 
HETATM    6  C   UNL     1      64.050   6.603   3.096  1.00  0.00     0.100 A 
HETATM    7  C   UNL     1      63.189   7.586   2.590  1.00  0.00    -0.011 A 
HETATM    8  C   UNL     1      62.184   9.776   2.892  1.00  0.00     0.012 A 
HETATM    9  C   UNL     1      62.491   7.457   1.374  1.00  0.00     0.013 A 
HETATM   10  C   UNL     1      61.501   9.638   1.682  1.00  0.00     0.001 A 
HETATM   11  C   UNL     1      61.653   8.479   0.925  1.00  0.00     0.001 A 
ENDROOT
BRANCH   3  12
HETATM   12  C   UNL     1      65.274   7.992   6.286  1.00  0.00     0.309 C 
HETATM   13  O   UNL     1      66.187   8.794   6.442  1.00  0.00    -0.258 OA
BRANCH  12  14
HETATM   14  O   UNL     1      64.796   7.160   7.248  1.00  0.00    -0.321 OA
HETATM   15  C   UNL     1      65.795   6.305   7.812  1.00  0.00     0.213 C 
ENDBRANCH  12  14
ENDBRANCH   3  12
TORSDOF 2
ENDMDL
MODEL 5
REMARK VINA RESULT:      -4.9      1.501      2.371
REMARK  2 active torsions:
REMARK  status: ('A' for Active; 'I' for Inactive)
REMARK    1  A    between atoms: C_3  and  C_4 
REMARK    2  A    between atoms: C_4  and  O_10 
ROOT
HETATM    1  N   UNL     1      64.804   6.593   4.210  1.00  0.00    -0.360 N 
ATOM      2  HN  UNL     1      65.281   5.700   4.087  1.00  0.00     0.165 HD
HETATM    3  C   UNL     1      64.981   7.351   5.322  1.00  0.00     0.108 A 
HETATM    4  C   UNL     1      64.346   8.575   5.519  1.00  0.00     0.048 A 
HETATM    5  C   UNL     1      63.479   9.064   4.535  1.00  0.00    -0.022 A 
HETATM    6  C   UNL     1      63.958   7.087   3.271  1.00  0.00     0.100 A 
HETATM    7  C   UNL     1      63.268   8.302   3.371  1.00  0.00    -0.011 A 
HETATM    8  C   UNL     1      62.815  10.296   4.683  1.00  0.00     0.012 A 
HETATM    9  C   UNL     1      62.392   8.783   2.378  1.00  0.00     0.013 A 
HETATM   10  C   UNL     1      61.952  10.763   3.689  1.00  0.00     0.001 A 
HETATM   11  C   UNL     1      61.740  10.006   2.540  1.00  0.00     0.001 A 
ENDROOT
BRANCH   3  12
HETATM   12  C   UNL     1      65.897   6.861   6.401  1.00  0.00     0.309 C 
HETATM   13  O   UNL     1      67.037   6.474   6.174  1.00  0.00    -0.258 OA
BRANCH  12  14
HETATM   14  O   UNL     1      65.319   6.901   7.630  1.00  0.00    -0.321 OA
HETATM   15  C   UNL     1      66.194   6.494   8.686  1.00  0.00     0.213 C 
ENDBRANCH  12  14
ENDBRANCH   3  12
TORSDOF 2
ENDMDL
MODEL 6
REMARK VINA RESULT:      -4.7      1.620      2.112
REMARK  2 active torsions:
REMARK  status: ('A' for Active; 'I' for Inactive)
REMARK    1  A    between atoms: C_3  and  C_4 
REMARK    2  A    between atoms: C_4  and  O_10 
ROOT
HETATM    1  N   UNL     1      64.776   8.758   5.872  1.00  0.00    -0.360 N 
ATOM      2  HN  UNL     1      65.037   9.300   6.696  1.00  0.00     0.165 HD
HETATM    3  C   UNL     1      65.323   7.544   5.612  1.00  0.00     0.108 A 
HETATM    4  C   UNL     1      64.985   6.779   4.497  1.00  0.00     0.048 A 
HETATM    5  C   UNL     1      64.041   7.270   3.589  1.00  0.00    -0.022 A 
HETATM    6  C   UNL     1      63.863   9.214   4.977  1.00  0.00     0.100 A 
HETATM    7  C   UNL     1      63.457   8.529   3.825  1.00  0.00    -0.011 A 
HETATM    8  C   UNL     1      63.663   6.537   2.450  1.00  0.00     0.012 A 
HETATM    9  C   UNL     1      62.509   9.034   2.914  1.00  0.00     0.013 A 
HETATM   10  C   UNL     1      62.719   7.048   1.555  1.00  0.00     0.001 A 
HETATM   11  C   UNL     1      62.145   8.295   1.787  1.00  0.00     0.001 A 
ENDROOT
BRANCH   3  12
HETATM   12  C   UNL     1      66.342   6.985   6.557  1.00  0.00     0.309 C 
HETATM   13  O   UNL     1      67.377   6.454   6.173  1.00  0.00    -0.258 OA
BRANCH  12  14
HETATM   14  O   UNL     1      65.983   7.139   7.858  1.00  0.00    -0.321 OA
HETATM   15  C   UNL     1      66.343   6.029   8.685  1.00  0.00     0.213 C 
ENDBRANCH  12  14
ENDBRANCH   3  12
TORSDOF 2
ENDMDL
MODEL 7
REMARK VINA RESULT:      -4.6      2.432      5.414
REMARK  2 active torsions:
REMARK  status: ('A' for Active; 'I' for Inactive)
REMARK    1  A    between atoms: C_3  and  C_4 
REMARK    2  A    between atoms: C_4  and  O_10 
ROOT
HETATM    1  N   UNL     1      62.309   7.872   5.615  1.00  0.00    -0.360 N 
ATOM      2  HN  UNL     1      61.291   7.853   5.686  1.00  0.00     0.165 HD
HETATM    3  C   UNL     1      62.954   8.784   4.846  1.00  0.00     0.108 A 
HETATM    4  C   UNL     1      64.342   8.837   4.730  1.00  0.00     0.048 A 
HETATM    5  C   UNL     1      65.125   7.913   5.431  1.00  0.00    -0.022 A 
HETATM    6  C   UNL     1      63.088   6.986   6.285  1.00  0.00     0.100 A 
HETATM    7  C   UNL     1      64.488   6.949   6.235  1.00  0.00    -0.011 A 
HETATM    8  C   UNL     1      66.529   7.925   5.351  1.00  0.00     0.012 A 
HETATM    9  C   UNL     1      65.267   6.011   6.939  1.00  0.00     0.013 A 
HETATM   10  C   UNL     1      67.291   6.992   6.058  1.00  0.00     0.001 A 
HETATM   11  C   UNL     1      66.659   6.035   6.850  1.00  0.00     0.001 A 
ENDROOT
BRANCH   3  12
HETATM   12  C   UNL     1      62.153   9.788   4.075  1.00  0.00     0.309 C 
HETATM   13  O   UNL     1      61.991  10.939   4.460  1.00  0.00    -0.258 OA
BRANCH  12  14
HETATM   14  O   UNL     1      61.645   9.272   2.925  1.00  0.00    -0.321 OA
HETATM   15  C   UNL     1      61.902  10.082   1.774  1.00  0.00     0.213 C 
ENDBRANCH  12  14
ENDBRANCH   3  12
TORSDOF 2
ENDMDL
MODEL 8
REMARK VINA RESULT:      -4.4      2.160      2.672
REMARK  2 active torsions:
REMARK  status: ('A' for Active; 'I' for Inactive)
REMARK    1  A    between atoms: C_3  and  C_4 
REMARK    2  A    between atoms: C_4  and  O_10 
ROOT
HETATM    1  N   UNL     1      63.260   8.581   3.712  1.00  0.00    -0.360 N 
ATOM      2  HN  UNL     1      64.212   8.889   3.911  1.00  0.00     0.165 HD
HETATM    3  C   UNL     1      62.485   7.995   4.659  1.00  0.00     0.108 A 
HETATM    4  C   UNL     1      61.182   7.566   4.419  1.00  0.00     0.048 A 
HETATM    5  C   UNL     1      60.626   7.736   3.145  1.00  0.00    -0.022 A 
HETATM    6  C   UNL     1      62.701   8.735   2.485  1.00  0.00     0.100 A 
HETATM    7  C   UNL     1      61.404   8.336   2.137  1.00  0.00    -0.011 A 
HETATM    8  C   UNL     1      59.315   7.324   2.851  1.00  0.00     0.012 A 
HETATM    9  C   UNL     1      60.857   8.506   0.851  1.00  0.00     0.013 A 
HETATM   10  C   UNL     1      58.782   7.502   1.572  1.00  0.00     0.001 A 
HETATM   11  C   UNL     1      59.554   8.091   0.573  1.00  0.00     0.001 A 
ENDROOT
BRANCH   3  12
HETATM   12  C   UNL     1      63.043   7.789   6.034  1.00  0.00     0.309 C 
HETATM   13  O   UNL     1      62.340   7.505   6.996  1.00  0.00    -0.258 OA
BRANCH  12  14
HETATM   14  O   UNL     1      64.391   7.951   6.076  1.00  0.00    -0.321 OA
HETATM   15  C   UNL     1      65.081   6.849   6.672  1.00  0.00     0.213 C 
ENDBRANCH  12  14
ENDBRANCH   3  12
TORSDOF 2
ENDMDL
MODEL 9
REMARK VINA RESULT:      -4.2      2.485      3.410
REMARK  2 active torsions:
REMARK  status: ('A' for Active; 'I' for Inactive)
REMARK    1  A    between atoms: C_3  and  C_4 
REMARK    2  A    between atoms: C_4  and  O_10 
ROOT
HETATM    1  N   UNL     1      64.008   8.633   4.281  1.00  0.00    -0.360 N 
ATOM      2  HN  UNL     1      64.717   9.238   3.868  1.00  0.00     0.165 HD
HETATM    3  C   UNL     1      64.262   7.881   5.382  1.00  0.00     0.108 A 
HETATM    4  C   UNL     1      63.314   7.047   5.970  1.00  0.00     0.048 A 
HETATM    5  C   UNL     1      62.032   6.965   5.415  1.00  0.00    -0.022 A 
HETATM    6  C   UNL     1      62.759   8.536   3.759  1.00  0.00     0.100 A 
HETATM    7  C   UNL     1      61.735   7.728   4.269  1.00  0.00    -0.011 A 
HETATM    8  C   UNL     1      61.038   6.141   5.972  1.00  0.00     0.012 A 
HETATM    9  C   UNL     1      60.450   7.648   3.699  1.00  0.00     0.013 A 
HETATM   10  C   UNL     1      59.766   6.074   5.398  1.00  0.00     0.001 A 
HETATM   11  C   UNL     1      59.474   6.825   4.262  1.00  0.00     0.001 A 
ENDROOT
BRANCH   3  12
HETATM   12  C   UNL     1      65.623   7.935   6.004  1.00  0.00     0.309 C 
HETATM   13  O   UNL     1      65.849   7.521   7.135  1.00  0.00    -0.258 OA
BRANCH  12  14
HETATM   14  O   UNL     1      66.550   8.486   5.177  1.00  0.00    -0.321 OA
HETATM   15  C   UNL     1      67.763   7.732   5.097  1.00  0.00     0.213 C 
ENDBRANCH  12  14
ENDBRANCH   3  12
TORSDOF 2
ENDMDL
