MODEL 1
REMARK VINA RESULT:      -5.7      0.000      0.000
REMARK  0 active torsions:
REMARK  status: ('A' for Active; 'I' for Inactive)
ROOT
HETATM    1  C   UNL     1      63.059  10.693   5.582  1.00  0.00     0.297 A 
HETATM    2  C   UNL     1      62.370  10.025   3.385  1.00  0.00     0.049 A 
HETATM    3  N   UNL     1      63.449   9.394   5.319  1.00  0.00    -0.319 N 
HETATM    4  C   UNL     1      62.326  11.169   4.295  1.00  0.00     0.252 A 
HETATM    5  C   UNL     1      63.045   8.999   4.047  1.00  0.00     0.049 A 
HETATM    6  C   UNL     1      61.865   9.882   2.110  1.00  0.00     0.060 A 
HETATM    7  O   UNL     1      63.235  11.334   6.593  1.00  0.00    -0.264 OA
HETATM    8  O   UNL     1      61.824  12.249   4.089  1.00  0.00    -0.281 OA
HETATM    9  C   UNL     1      63.240   7.769   3.454  1.00  0.00     0.033 A 
HETATM   10  C   UNL     1      62.056   8.644   1.508  1.00  0.00     0.117 A 
HETATM   11  C   UNL     1      62.730   7.595   2.162  1.00  0.00     0.044 A 
HETATM   12  F   UNL     1      61.583   8.437   0.272  1.00  0.00    -0.206 F 
HETATM   13  H   UNL     1      63.948   8.823   5.947  1.00  0.00     0.169 HD
ENDROOT
TORSDOF 0
ENDMDL
MODEL 2
REMARK VINA RESULT:      -5.6      1.861      2.490
REMARK  0 active torsions:
REMARK  status: ('A' for Active; 'I' for Inactive)
ROOT
HETATM    1  C   UNL     1      63.342   8.396   5.434  1.00  0.00     0.297 A 
HETATM    2  C   UNL     1      62.541  10.164   4.026  1.00  0.00     0.049 A 
HETATM    3  N   UNL     1      63.128   7.941   4.147  1.00  0.00    -0.319 N 
HETATM    4  C   UNL     1      62.964   9.905   5.403  1.00  0.00     0.252 A 
HETATM    5  C   UNL     1      62.656   8.962   3.328  1.00  0.00     0.049 A 
HETATM    6  C   UNL     1      62.091  11.327   3.437  1.00  0.00     0.060 A 
HETATM    7  O   UNL     1      63.733   7.769   6.392  1.00  0.00    -0.264 OA
HETATM    8  O   UNL     1      63.004  10.695   6.316  1.00  0.00    -0.281 OA
HETATM    9  C   UNL     1      62.314   8.871   1.995  1.00  0.00     0.033 A 
HETATM   10  C   UNL     1      61.742  11.241   2.094  1.00  0.00     0.117 A 
HETATM   11  C   UNL     1      61.846  10.036   1.375  1.00  0.00     0.044 A 
HETATM   12  F   UNL     1      61.289  12.333   1.464  1.00  0.00    -0.206 F 
HETATM   13  H   UNL     1      63.289   7.016   3.849  1.00  0.00     0.169 HD
ENDROOT
TORSDOF 0
ENDMDL
MODEL 3
REMARK VINA RESULT:      -5.6      1.330      2.252
REMARK  0 active torsions:
REMARK  status: ('A' for Active; 'I' for Inactive)
ROOT
HETATM    1  C   UNL     1      62.981  10.884   5.588  1.00  0.00     0.297 A 
HETATM    2  C   UNL     1      62.849   9.266   3.822  1.00  0.00     0.049 A 
HETATM    3  N   UNL     1      62.354  11.418   4.478  1.00  0.00    -0.319 N 
HETATM    4  C   UNL     1      63.332   9.420   5.195  1.00  0.00     0.252 A 
HETATM    5  C   UNL     1      62.283  10.485   3.448  1.00  0.00     0.049 A 
HETATM    6  C   UNL     1      62.905   8.180   2.975  1.00  0.00     0.060 A 
HETATM    7  O   UNL     1      63.219  11.426   6.643  1.00  0.00    -0.264 OA
HETATM    8  O   UNL     1      63.887   8.587   5.872  1.00  0.00    -0.281 OA
HETATM    9  C   UNL     1      61.746  10.671   2.191  1.00  0.00     0.033 A 
HETATM   10  C   UNL     1      62.369   8.362   1.706  1.00  0.00     0.117 A 
HETATM   11  C   UNL     1      61.797   9.585   1.308  1.00  0.00     0.044 A 
HETATM   12  F   UNL     1      62.399   7.348   0.831  1.00  0.00    -0.206 F 
HETATM   13  H   UNL     1      62.004  12.337   4.424  1.00  0.00     0.169 HD
ENDROOT
TORSDOF 0
ENDMDL
MODEL 4
REMARK VINA RESULT:      -5.0      2.337      3.160
REMARK  0 active torsions:
REMARK  status: ('A' for Active; 'I' for Inactive)
ROOT
HETATM    1  C   UNL     1      61.893  11.243   2.258  1.00  0.00     0.297 A 
HETATM    2  C   UNL     1      62.425   9.469   3.781  1.00  0.00     0.049 A 
HETATM    3  N   UNL     1      62.054  10.048   1.583  1.00  0.00    -0.319 N 
HETATM    4  C   UNL     1      62.128  10.902   3.758  1.00  0.00     0.252 A 
HETATM    5  C   UNL     1      62.371   9.017   2.463  1.00  0.00     0.049 A 
HETATM    6  C   UNL     1      62.723   8.640   4.841  1.00  0.00     0.060 A 
HETATM    7  O   UNL     1      61.631  12.331   1.797  1.00  0.00    -0.264 OA
HETATM    8  O   UNL     1      62.081  11.654   4.702  1.00  0.00    -0.281 OA
HETATM    9  C   UNL     1      62.623   7.699   2.145  1.00  0.00     0.033 A 
HETATM   10  C   UNL     1      62.981   7.310   4.528  1.00  0.00     0.117 A 
HETATM   11  C   UNL     1      62.936   6.836   3.203  1.00  0.00     0.044 A 
HETATM   12  F   UNL     1      63.284   6.453   5.511  1.00  0.00    -0.206 F 
HETATM   13  H   UNL     1      61.958   9.940   0.609  1.00  0.00     0.169 HD
ENDROOT
TORSDOF 0
ENDMDL
MODEL 5
REMARK VINA RESULT:      -4.9      2.148      2.927
REMARK  0 active torsions:
REMARK  status: ('A' for Active; 'I' for Inactive)
ROOT
HETATM    1  C   UNL     1      63.181   8.131   5.891  1.00  0.00     0.297 A 
HETATM    2  C   UNL     1      62.700   8.358   3.553  1.00  0.00     0.049 A 
HETATM    3  N   UNL     1      62.788   9.421   5.594  1.00  0.00    -0.319 N 
HETATM    4  C   UNL     1      63.132   7.366   4.537  1.00  0.00     0.252 A 
HETATM    5  C   UNL     1      62.515   9.560   4.236  1.00  0.00     0.049 A 
HETATM    6  C   UNL     1      62.498   8.235   2.195  1.00  0.00     0.060 A 
HETATM    7  O   UNL     1      63.504   7.678   6.966  1.00  0.00    -0.264 OA
HETATM    8  O   UNL     1      63.397   6.204   4.336  1.00  0.00    -0.281 OA
HETATM    9  C   UNL     1      62.119  10.706   3.578  1.00  0.00     0.033 A 
HETATM   10  C   UNL     1      62.101   9.387   1.525  1.00  0.00     0.117 A 
HETATM   11  C   UNL     1      61.914  10.610   2.197  1.00  0.00     0.044 A 
HETATM   12  F   UNL     1      61.895   9.337   0.203  1.00  0.00    -0.206 F 
HETATM   13  H   UNL     1      62.710  10.147   6.255  1.00  0.00     0.169 HD
ENDROOT
TORSDOF 0
ENDMDL
MODEL 6
REMARK VINA RESULT:      -4.9      3.046      3.872
REMARK  0 active torsions:
REMARK  status: ('A' for Active; 'I' for Inactive)
ROOT
HETATM    1  C   UNL     1      63.001   6.858   3.004  1.00  0.00     0.297 A 
HETATM    2  C   UNL     1      62.354   9.025   2.208  1.00  0.00     0.049 A 
HETATM    3  N   UNL     1      62.890   7.753   4.051  1.00  0.00    -0.319 N 
HETATM    4  C   UNL     1      62.640   7.673   1.729  1.00  0.00     0.252 A 
HETATM    5  C   UNL     1      62.523   9.014   3.593  1.00  0.00     0.049 A 
HETATM    6  C   UNL     1      61.994  10.159   1.511  1.00  0.00     0.060 A 
HETATM    7  O   UNL     1      63.315   5.691   3.051  1.00  0.00    -0.264 OA
HETATM    8  O   UNL     1      62.606   7.279   0.587  1.00  0.00    -0.281 OA
HETATM    9  C   UNL     1      62.340  10.155   4.347  1.00  0.00     0.033 A 
HETATM   10  C   UNL     1      61.811  11.313   2.265  1.00  0.00     0.117 A 
HETATM   11  C   UNL     1      61.981  11.322   3.662  1.00  0.00     0.044 A 
HETATM   12  F   UNL     1      61.467  12.450   1.647  1.00  0.00    -0.206 F 
HETATM   13  H   UNL     1      63.050   7.528   4.997  1.00  0.00     0.169 HD
ENDROOT
TORSDOF 0
ENDMDL
MODEL 7
REMARK VINA RESULT:      -4.9      3.046      4.075
REMARK  0 active torsions:
REMARK  status: ('A' for Active; 'I' for Inactive)
ROOT
HETATM    1  C   UNL     1      64.808   6.888   4.439  1.00  0.00     0.297 A 
HETATM    2  C   UNL     1      63.858   9.052   4.842  1.00  0.00     0.049 A 
HETATM    3  N   UNL     1      63.888   7.210   3.460  1.00  0.00    -0.319 N 
HETATM    4  C   UNL     1      64.830   8.111   5.400  1.00  0.00     0.252 A 
HETATM    5  C   UNL     1      63.328   8.463   3.694  1.00  0.00     0.049 A 
HETATM    6  C   UNL     1      63.464  10.294   5.291  1.00  0.00     0.060 A 
HETATM    7  O   UNL     1      65.461   5.874   4.544  1.00  0.00    -0.264 OA
HETATM    8  O   UNL     1      65.499   8.255   6.396  1.00  0.00    -0.281 OA
HETATM    9  C   UNL     1      62.363   9.099   2.941  1.00  0.00     0.033 A 
HETATM   10  C   UNL     1      62.489  10.940   4.538  1.00  0.00     0.117 A 
HETATM   11  C   UNL     1      61.939  10.359   3.380  1.00  0.00     0.044 A 
HETATM   12  F   UNL     1      62.056  12.147   4.925  1.00  0.00    -0.206 F 
HETATM   13  H   UNL     1      63.659   6.631   2.697  1.00  0.00     0.169 HD
ENDROOT
TORSDOF 0
ENDMDL
MODEL 8
REMARK VINA RESULT:      -4.7      3.301      4.335
REMARK  0 active torsions:
REMARK  status: ('A' for Active; 'I' for Inactive)
ROOT
HETATM    1  C   UNL     1      63.127   6.716   2.410  1.00  0.00     0.297 A 
HETATM    2  C   UNL     1      62.826   8.781   3.590  1.00  0.00     0.049 A 
HETATM    3  N   UNL     1      62.610   7.687   1.575  1.00  0.00    -0.319 N 
HETATM    4  C   UNL     1      63.298   7.411   3.791  1.00  0.00     0.252 A 
HETATM    5  C   UNL     1      62.426   8.886   2.257  1.00  0.00     0.049 A 
HETATM    6  C   UNL     1      62.740   9.832   4.477  1.00  0.00     0.060 A 
HETATM    7  O   UNL     1      63.390   5.565   2.143  1.00  0.00    -0.264 OA
HETATM    8  O   UNL     1      63.724   6.927   4.813  1.00  0.00    -0.281 OA
HETATM    9  C   UNL     1      61.912  10.062   1.753  1.00  0.00     0.033 A 
HETATM   10  C   UNL     1      62.220  11.020   3.976  1.00  0.00     0.117 A 
HETATM   11  C   UNL     1      61.807  11.144   2.636  1.00  0.00     0.044 A 
HETATM   12  F   UNL     1      62.102  12.078   4.789  1.00  0.00    -0.206 F 
HETATM   13  H   UNL     1      62.400   7.550   0.622  1.00  0.00     0.169 HD
ENDROOT
TORSDOF 0
ENDMDL
MODEL 9
REMARK VINA RESULT:      -4.6      1.783      2.429
REMARK  0 active torsions:
REMARK  status: ('A' for Active; 'I' for Inactive)
ROOT
HETATM    1  C   UNL     1      62.305  10.973   4.328  1.00  0.00     0.297 A 
HETATM    2  C   UNL     1      62.898   8.861   3.361  1.00  0.00     0.049 A 
HETATM    3  N   UNL     1      63.073  10.231   5.204  1.00  0.00    -0.319 N 
HETATM    4  C   UNL     1      62.162  10.088   3.057  1.00  0.00     0.252 A 
HETATM    5  C   UNL     1      63.414   9.001   4.650  1.00  0.00     0.049 A 
HETATM    6  C   UNL     1      63.094   7.729   2.600  1.00  0.00     0.060 A 
HETATM    7  O   UNL     1      61.831  12.074   4.499  1.00  0.00    -0.264 OA
HETATM    8  O   UNL     1      61.569  10.352   2.037  1.00  0.00    -0.281 OA
HETATM    9  C   UNL     1      64.152   7.996   5.240  1.00  0.00     0.033 A 
HETATM   10  C   UNL     1      63.835   6.711   3.190  1.00  0.00     0.117 A 
HETATM   11  C   UNL     1      64.359   6.831   4.491  1.00  0.00     0.044 A 
HETATM   12  F   UNL     1      64.055   5.580   2.507  1.00  0.00    -0.206 F 
HETATM   13  H   UNL     1      63.345  10.532   6.101  1.00  0.00     0.169 HD
ENDROOT
TORSDOF 0
ENDMDL
