MODEL 1
REMARK VINA RESULT:      -4.6      0.000      0.000
REMARK  2 active torsions:
REMARK  status: ('A' for Active; 'I' for Inactive)
REMARK    1  A    between atoms: C_1  and  S_2 
REMARK    2  A    between atoms: S_2  and  N_9 
ROOT
HETATM    1  C   UNL     1      63.277   8.740   4.334  1.00  0.00     0.105 A 
HETATM    2  C   UNL     1      62.770  10.010   4.466  1.00  0.00     0.099 A 
HETATM    3  C   UNL     1      62.959   8.181   3.054  1.00  0.00     0.058 A 
HETATM    4  S   UNL     1      61.911  10.526   3.091  1.00  0.00    -0.064 SA
HETATM    5  C   UNL     1      62.217   9.059   2.305  1.00  0.00     0.077 A 
HETATM    6 CL   UNL     1      62.899  11.094   5.796  1.00  0.00    -0.075 Cl
HETATM    7 CL   UNL     1      61.608   8.796   0.722  1.00  0.00    -0.076 Cl
ENDROOT
BRANCH   1   8
HETATM    8  S   UNL     1      64.172   7.915   5.546  1.00  0.00     0.241 S 
HETATM    9  O   UNL     1      63.295   7.873   6.692  1.00  0.00    -0.206 OA
HETATM   10  O   UNL     1      64.682   6.724   4.912  1.00  0.00    -0.206 OA
BRANCH   8  11
HETATM   11  N   UNL     1      65.493   8.852   5.976  1.00  0.00    -0.225 NA
HETATM   12  H   UNL     1      65.216   9.833   6.014  1.00  0.00     0.136 HD
HETATM   13  H   UNL     1      66.233   8.734   5.284  1.00  0.00     0.136 HD
ENDBRANCH   8  11
ENDBRANCH   1   8
TORSDOF 2
ENDMDL
MODEL 2
REMARK VINA RESULT:      -4.1      1.961      2.407
REMARK  2 active torsions:
REMARK  status: ('A' for Active; 'I' for Inactive)
REMARK    1  A    between atoms: C_1  and  S_2 
REMARK    2  A    between atoms: S_2  and  N_9 
ROOT
HETATM    1  C   UNL     1      63.431   8.244   4.913  1.00  0.00     0.105 A 
HETATM    2  C   UNL     1      62.356   7.558   4.403  1.00  0.00     0.099 A 
HETATM    3  C   UNL     1      63.372   9.634   4.574  1.00  0.00     0.058 A 
HETATM    4  S   UNL     1      61.297   8.551   3.516  1.00  0.00    -0.064 SA
HETATM    5  C   UNL     1      62.263   9.907   3.814  1.00  0.00     0.077 A 
HETATM    6 CL   UNL     1      61.969   5.888   4.553  1.00  0.00    -0.075 Cl
HETATM    7 CL   UNL     1      61.808  11.435   3.176  1.00  0.00    -0.076 Cl
ENDROOT
BRANCH   1   8
HETATM    8  S   UNL     1      64.696   7.534   5.835  1.00  0.00     0.241 S 
HETATM    9  O   UNL     1      64.089   7.196   7.100  1.00  0.00    -0.206 OA
HETATM   10  O   UNL     1      65.301   6.549   4.974  1.00  0.00    -0.206 OA
BRANCH   8  11
HETATM   11  N   UNL     1      65.859   8.700   6.147  1.00  0.00    -0.225 NA
HETATM   12  H   UNL     1      66.522   8.734   5.372  1.00  0.00     0.136 HD
HETATM   13  H   UNL     1      66.352   8.465   7.008  1.00  0.00     0.136 HD
ENDBRANCH   8  11
ENDBRANCH   1   8
TORSDOF 2
ENDMDL
MODEL 3
REMARK VINA RESULT:      -4.0      3.205      4.566
REMARK  2 active torsions:
REMARK  status: ('A' for Active; 'I' for Inactive)
REMARK    1  A    between atoms: C_1  and  S_2 
REMARK    2  A    between atoms: S_2  and  N_9 
ROOT
HETATM    1  C   UNL     1      63.197   8.770   3.806  1.00  0.00     0.105 A 
HETATM    2  C   UNL     1      63.562   7.571   3.244  1.00  0.00     0.099 A 
HETATM    3  C   UNL     1      64.055   9.119   4.898  1.00  0.00     0.058 A 
HETATM    4  S   UNL     1      64.901   6.860   4.016  1.00  0.00    -0.064 SA
HETATM    5  C   UNL     1      65.007   8.152   5.102  1.00  0.00     0.077 A 
HETATM    6 CL   UNL     1      62.860   6.744   1.909  1.00  0.00    -0.075 Cl
HETATM    7 CL   UNL     1      66.228   8.154   6.309  1.00  0.00    -0.076 Cl
ENDROOT
BRANCH   1   8
HETATM    8  S   UNL     1      61.873   9.732   3.281  1.00  0.00     0.241 S 
HETATM    9  O   UNL     1      61.775  10.793   4.255  1.00  0.00    -0.206 OA
HETATM   10  O   UNL     1      62.104   9.982   1.880  1.00  0.00    -0.206 OA
BRANCH   8  11
HETATM   11  N   UNL     1      60.466   8.829   3.399  1.00  0.00    -0.225 NA
HETATM   12  H   UNL     1      60.520   8.222   4.217  1.00  0.00     0.136 HD
HETATM   13  H   UNL     1      60.356   8.261   2.559  1.00  0.00     0.136 HD
ENDBRANCH   8  11
ENDBRANCH   1   8
TORSDOF 2
ENDMDL
MODEL 4
REMARK VINA RESULT:      -3.9      5.461      6.266
REMARK  2 active torsions:
REMARK  status: ('A' for Active; 'I' for Inactive)
REMARK    1  A    between atoms: C_1  and  S_2 
REMARK    2  A    between atoms: S_2  and  N_9 
ROOT
HETATM    1  C   UNL     1      66.767   6.261   6.466  1.00  0.00     0.105 A 
HETATM    2  C   UNL     1      66.781   5.696   7.718  1.00  0.00     0.099 A 
HETATM    3  C   UNL     1      67.188   5.327   5.466  1.00  0.00     0.058 A 
HETATM    4  S   UNL     1      67.306   4.078   7.707  1.00  0.00    -0.064 SA
HETATM    5  C   UNL     1      67.510   4.118   6.028  1.00  0.00     0.077 A 
HETATM    6 CL   UNL     1      66.346   6.399   9.227  1.00  0.00    -0.075 Cl
HETATM    7 CL   UNL     1      68.075   2.721   5.204  1.00  0.00    -0.076 Cl
ENDROOT
BRANCH   1   8
HETATM    8  S   UNL     1      66.312   7.884   6.131  1.00  0.00     0.241 S 
HETATM    9  O   UNL     1      66.888   8.174   4.840  1.00  0.00    -0.206 OA
HETATM   10  O   UNL     1      64.894   7.952   6.384  1.00  0.00    -0.206 OA
BRANCH   8  11
HETATM   11  N   UNL     1      67.061   8.896   7.238  1.00  0.00    -0.225 NA
HETATM   12  H   UNL     1      68.022   9.069   6.944  1.00  0.00     0.136 HD
HETATM   13  H   UNL     1      67.061   8.453   8.157  1.00  0.00     0.136 HD
ENDBRANCH   8  11
ENDBRANCH   1   8
TORSDOF 2
ENDMDL
MODEL 5
REMARK VINA RESULT:      -3.8      2.179      2.321
REMARK  2 active torsions:
REMARK  status: ('A' for Active; 'I' for Inactive)
REMARK    1  A    between atoms: C_1  and  S_2 
REMARK    2  A    between atoms: S_2  and  N_9 
ROOT
HETATM    1  C   UNL     1      62.563   7.640   4.537  1.00  0.00     0.105 A 
HETATM    2  C   UNL     1      61.301   7.160   4.283  1.00  0.00     0.099 A 
HETATM    3  C   UNL     1      63.040   8.454   3.460  1.00  0.00     0.058 A 
HETATM    4  S   UNL     1      60.697   7.658   2.772  1.00  0.00    -0.064 SA
HETATM    5  C   UNL     1      62.113   8.525   2.451  1.00  0.00     0.077 A 
HETATM    6 CL   UNL     1      60.303   6.164   5.268  1.00  0.00    -0.075 Cl
HETATM    7 CL   UNL     1      62.275   9.377   0.969  1.00  0.00    -0.076 Cl
ENDROOT
BRANCH   1   8
HETATM    8  S   UNL     1      63.467   7.305   5.960  1.00  0.00     0.241 S 
HETATM    9  O   UNL     1      62.669   7.834   7.040  1.00  0.00    -0.206 OA
HETATM   10  O   UNL     1      63.832   5.913   5.872  1.00  0.00    -0.206 OA
BRANCH   8  11
HETATM   11  N   UNL     1      64.887   8.194   5.921  1.00  0.00    -0.225 NA
HETATM   12  H   UNL     1      65.627   7.671   6.390  1.00  0.00     0.136 HD
HETATM   13  H   UNL     1      64.744   9.084   6.397  1.00  0.00     0.136 HD
ENDBRANCH   8  11
ENDBRANCH   1   8
TORSDOF 2
ENDMDL
MODEL 6
REMARK VINA RESULT:      -3.8      4.456      5.834
REMARK  2 active torsions:
REMARK  status: ('A' for Active; 'I' for Inactive)
REMARK    1  A    between atoms: C_1  and  S_2 
REMARK    2  A    between atoms: S_2  and  N_9 
ROOT
HETATM    1  C   UNL     1      65.519   6.986   6.276  1.00  0.00     0.105 A 
HETATM    2  C   UNL     1      66.574   6.574   5.500  1.00  0.00     0.099 A 
HETATM    3  C   UNL     1      65.789   6.795   7.669  1.00  0.00     0.058 A 
HETATM    4  S   UNL     1      67.866   5.951   6.416  1.00  0.00    -0.064 SA
HETATM    5  C   UNL     1      67.027   6.236   7.857  1.00  0.00     0.077 A 
HETATM    6 CL   UNL     1      66.739   6.615   3.787  1.00  0.00    -0.075 Cl
HETATM    7 CL   UNL     1      67.748   5.823   9.360  1.00  0.00    -0.076 Cl
ENDROOT
BRANCH   1   8
HETATM    8  S   UNL     1      64.052   7.640   5.663  1.00  0.00     0.241 S 
HETATM    9  O   UNL     1      64.350   9.025   5.388  1.00  0.00    -0.206 OA
HETATM   10  O   UNL     1      63.610   6.722   4.644  1.00  0.00    -0.206 OA
BRANCH   8  11
HETATM   11  N   UNL     1      62.900   7.621   6.881  1.00  0.00    -0.225 NA
HETATM   12  H   UNL     1      62.819   6.677   7.256  1.00  0.00     0.136 HD
HETATM   13  H   UNL     1      62.001   7.916   6.501  1.00  0.00     0.136 HD
ENDBRANCH   8  11
ENDBRANCH   1   8
TORSDOF 2
ENDMDL
MODEL 7
REMARK VINA RESULT:      -3.8      3.997      4.701
REMARK  2 active torsions:
REMARK  status: ('A' for Active; 'I' for Inactive)
REMARK    1  A    between atoms: C_1  and  S_2 
REMARK    2  A    between atoms: S_2  and  N_9 
ROOT
HETATM    1  C   UNL     1      65.458   7.123   5.023  1.00  0.00     0.105 A 
HETATM    2  C   UNL     1      66.343   6.670   5.970  1.00  0.00     0.099 A 
HETATM    3  C   UNL     1      65.669   6.479   3.761  1.00  0.00     0.058 A 
HETATM    4  S   UNL     1      67.425   5.506   5.363  1.00  0.00    -0.064 SA
HETATM    5  C   UNL     1      66.712   5.592   3.831  1.00  0.00     0.077 A 
HETATM    6 CL   UNL     1      66.479   7.119   7.626  1.00  0.00    -0.075 Cl
HETATM    7 CL   UNL     1      67.317   4.618   2.553  1.00  0.00    -0.076 Cl
ENDROOT
BRANCH   1   8
HETATM    8  S   UNL     1      64.253   8.316   5.302  1.00  0.00     0.241 S 
HETATM    9  O   UNL     1      64.976   9.471   5.776  1.00  0.00    -0.206 OA
HETATM   10  O   UNL     1      63.443   8.339   4.110  1.00  0.00    -0.206 OA
BRANCH   8  11
HETATM   11  N   UNL     1      63.268   7.806   6.560  1.00  0.00    -0.225 NA
HETATM   12  H   UNL     1      63.186   8.553   7.250  1.00  0.00     0.136 HD
HETATM   13  H   UNL     1      63.677   6.981   6.998  1.00  0.00     0.136 HD
ENDBRANCH   8  11
ENDBRANCH   1   8
TORSDOF 2
ENDMDL
MODEL 8
REMARK VINA RESULT:      -3.6      4.019      4.526
REMARK  2 active torsions:
REMARK  status: ('A' for Active; 'I' for Inactive)
REMARK    1  A    between atoms: C_1  and  S_2 
REMARK    2  A    between atoms: S_2  and  N_9 
ROOT
HETATM    1  C   UNL     1      65.979   6.653   5.266  1.00  0.00     0.105 A 
HETATM    2  C   UNL     1      64.871   6.690   4.456  1.00  0.00     0.099 A 
HETATM    3  C   UNL     1      67.017   5.847   4.697  1.00  0.00     0.058 A 
HETATM    4  S   UNL     1      65.054   5.762   3.042  1.00  0.00    -0.064 SA
HETATM    5  C   UNL     1      66.620   5.311   3.498  1.00  0.00     0.077 A 
HETATM    6 CL   UNL     1      63.387   7.529   4.691  1.00  0.00    -0.075 Cl
HETATM    7 CL   UNL     1      67.539   4.275   2.484  1.00  0.00    -0.076 Cl
ENDROOT
BRANCH   1   8
HETATM    8  S   UNL     1      66.113   7.461   6.777  1.00  0.00     0.241 S 
HETATM    9  O   UNL     1      66.228   8.860   6.442  1.00  0.00    -0.206 OA
HETATM   10  O   UNL     1      65.044   6.942   7.593  1.00  0.00    -0.206 OA
BRANCH   8  11
HETATM   11  N   UNL     1      67.555   7.014   7.506  1.00  0.00    -0.225 NA
HETATM   12  H   UNL     1      68.241   6.786   6.787  1.00  0.00     0.136 HD
HETATM   13  H   UNL     1      67.397   6.198   8.097  1.00  0.00     0.136 HD
ENDBRANCH   8  11
ENDBRANCH   1   8
TORSDOF 2
ENDMDL
MODEL 9
REMARK VINA RESULT:      -3.6      3.245      3.738
REMARK  2 active torsions:
REMARK  status: ('A' for Active; 'I' for Inactive)
REMARK    1  A    between atoms: C_1  and  S_2 
REMARK    2  A    between atoms: S_2  and  N_9 
ROOT
HETATM    1  C   UNL     1      65.054   7.113   4.378  1.00  0.00     0.105 A 
HETATM    2  C   UNL     1      65.620   5.928   3.975  1.00  0.00     0.099 A 
HETATM    3  C   UNL     1      63.931   7.461   3.560  1.00  0.00     0.058 A 
HETATM    4  S   UNL     1      64.837   5.245   2.628  1.00  0.00    -0.064 SA
HETATM    5  C   UNL     1      63.730   6.524   2.579  1.00  0.00     0.077 A 
HETATM    6 CL   UNL     1      66.964   5.088   4.645  1.00  0.00    -0.075 Cl
HETATM    7 CL   UNL     1      62.510   6.550   1.371  1.00  0.00    -0.076 Cl
ENDROOT
BRANCH   1   8
HETATM    8  S   UNL     1      65.617   8.069   5.690  1.00  0.00     0.241 S 
HETATM    9  O   UNL     1      65.223   7.344   6.875  1.00  0.00    -0.206 OA
HETATM   10  O   UNL     1      66.993   8.375   5.388  1.00  0.00    -0.206 OA
BRANCH   8  11
HETATM   11  N   UNL     1      64.778   9.519   5.704  1.00  0.00    -0.225 NA
HETATM   12  H   UNL     1      64.215   9.594   4.856  1.00  0.00     0.136 HD
HETATM   13  H   UNL     1      65.440  10.294   5.742  1.00  0.00     0.136 HD
ENDBRANCH   8  11
ENDBRANCH   1   8
TORSDOF 2
ENDMDL
