MODEL 1
REMARK VINA RESULT:      -4.1      0.000      0.000
REMARK  2 active torsions:
REMARK  status: ('A' for Active; 'I' for Inactive)
REMARK    1  A    between atoms: C_1  and  N_5 
REMARK    2  A    between atoms: C_4  and  N_6 
ROOT
HETATM    1  C   UNL     1      63.022  10.873   5.278  1.00  0.00     0.125 A 
HETATM    2  N   UNL     1      62.272  11.661   4.487  1.00  0.00    -0.351 N 
ATOM      3  HN  UNL     1      62.058  12.626   4.739  1.00  0.00     0.166 HD
HETATM    4  C   UNL     1      63.289   9.517   5.008  1.00  0.00     0.070 A 
HETATM    5  C   UNL     1      61.817  11.109   3.341  1.00  0.00     0.090 A 
HETATM    6  C   UNL     1      62.864   9.011   3.783  1.00  0.00     0.034 A 
HETATM    7  C   UNL     1      62.096   9.812   2.942  1.00  0.00     0.019 A 
ENDROOT
BRANCH   1   8
HETATM    8  N   UNL     1      63.537  11.458   6.447  1.00  0.00    -0.384 N 
HETATM    9  H   UNL     1      64.354  11.096   6.860  1.00  0.00     0.157 HD
HETATM   10  H   UNL     1      63.081  12.231   6.852  1.00  0.00     0.157 HD
ENDBRANCH   1   8
BRANCH   4  11
HETATM   11  N   UNL     1      64.155   8.766   5.836  1.00  0.00    -0.396 N 
HETATM   12  H   UNL     1      64.360   7.830   5.612  1.00  0.00     0.156 HD
HETATM   13  H   UNL     1      64.551   9.180   6.637  1.00  0.00     0.156 HD
ENDBRANCH   4  11
TORSDOF 2
ENDMDL
MODEL 2
REMARK VINA RESULT:      -3.9      0.947      2.240
REMARK  2 active torsions:
REMARK  status: ('A' for Active; 'I' for Inactive)
REMARK    1  A    between atoms: C_1  and  N_5 
REMARK    2  A    between atoms: C_4  and  N_6 
ROOT
HETATM    1  C   UNL     1      63.307   9.388   4.924  1.00  0.00     0.125 A 
HETATM    2  N   UNL     1      63.008   8.750   3.779  1.00  0.00    -0.351 N 
ATOM      3  HN  UNL     1      63.318   7.795   3.599  1.00  0.00     0.166 HD
HETATM    4  C   UNL     1      62.961  10.727   5.191  1.00  0.00     0.070 A 
HETATM    5  C   UNL     1      62.276   9.440   2.877  1.00  0.00     0.090 A 
HETATM    6  C   UNL     1      62.145  11.374   4.267  1.00  0.00     0.034 A 
HETATM    7  C   UNL     1      61.813  10.730   3.079  1.00  0.00     0.019 A 
ENDROOT
BRANCH   1   8
HETATM    8  N   UNL     1      64.027   8.657   5.884  1.00  0.00    -0.384 N 
HETATM    9  H   UNL     1      63.619   7.868   6.310  1.00  0.00     0.157 HD
HETATM   10  H   UNL     1      64.939   8.933   6.131  1.00  0.00     0.157 HD
ENDBRANCH   1   8
BRANCH   4  11
HETATM   11  N   UNL     1      63.231  11.312   6.449  1.00  0.00    -0.396 N 
HETATM   12  H   UNL     1      62.639  12.016   6.801  1.00  0.00     0.156 HD
HETATM   13  H   UNL     1      64.011  11.017   6.971  1.00  0.00     0.156 HD
ENDBRANCH   4  11
TORSDOF 2
ENDMDL
MODEL 3
REMARK VINA RESULT:      -3.7      1.175      2.597
REMARK  2 active torsions:
REMARK  status: ('A' for Active; 'I' for Inactive)
REMARK    1  A    between atoms: C_1  and  N_5 
REMARK    2  A    between atoms: C_4  and  N_6 
ROOT
HETATM    1  C   UNL     1      62.852  10.151   5.223  1.00  0.00     0.125 A 
HETATM    2  N   UNL     1      63.182   9.011   5.854  1.00  0.00    -0.351 N 
ATOM      3  HN  UNL     1      63.705   9.015   6.730  1.00  0.00     0.166 HD
HETATM    4  C   UNL     1      62.191  10.198   3.980  1.00  0.00     0.070 A 
HETATM    5  C   UNL     1      62.784   7.860   5.269  1.00  0.00     0.090 A 
HETATM    6  C   UNL     1      61.736   8.993   3.451  1.00  0.00     0.034 A 
HETATM    7  C   UNL     1      62.055   7.800   4.093  1.00  0.00     0.019 A 
ENDROOT
BRANCH   1   8
HETATM    8  N   UNL     1      63.221  11.352   5.852  1.00  0.00    -0.384 N 
HETATM    9  H   UNL     1      62.589  12.106   5.884  1.00  0.00     0.157 HD
HETATM   10  H   UNL     1      64.112  11.439   6.262  1.00  0.00     0.157 HD
ENDBRANCH   1   8
BRANCH   4  11
HETATM   11  N   UNL     1      61.797  11.429   3.409  1.00  0.00    -0.396 N 
HETATM   12  H   UNL     1      60.897  11.527   3.024  1.00  0.00     0.156 HD
HETATM   13  H   UNL     1      62.424  12.188   3.397  1.00  0.00     0.156 HD
ENDBRANCH   4  11
TORSDOF 2
ENDMDL
MODEL 4
REMARK VINA RESULT:      -3.6      1.222      2.049
REMARK  2 active torsions:
REMARK  status: ('A' for Active; 'I' for Inactive)
REMARK    1  A    between atoms: C_1  and  N_5 
REMARK    2  A    between atoms: C_4  and  N_6 
ROOT
HETATM    1  C   UNL     1      63.772   9.211   5.080  1.00  0.00     0.125 A 
HETATM    2  N   UNL     1      63.397  10.385   5.618  1.00  0.00    -0.351 N 
ATOM      3  HN  UNL     1      63.775  10.713   6.507  1.00  0.00     0.166 HD
HETATM    4  C   UNL     1      63.230   8.683   3.892  1.00  0.00     0.070 A 
HETATM    5  C   UNL     1      62.494  11.108   4.920  1.00  0.00     0.090 A 
HETATM    6  C   UNL     1      62.360   9.494   3.169  1.00  0.00     0.034 A 
HETATM    7  C   UNL     1      61.966  10.719   3.700  1.00  0.00     0.019 A 
ENDROOT
BRANCH   1   8
HETATM    8  N   UNL     1      64.747   8.479   5.778  1.00  0.00    -0.384 N 
HETATM    9  H   UNL     1      64.482   7.894   6.525  1.00  0.00     0.157 HD
HETATM   10  H   UNL     1      65.694   8.551   5.521  1.00  0.00     0.157 HD
ENDBRANCH   1   8
BRANCH   4  11
HETATM   11  N   UNL     1      63.728   7.484   3.334  1.00  0.00    -0.396 N 
HETATM   12  H   UNL     1      64.686   7.270   3.405  1.00  0.00     0.156 HD
HETATM   13  H   UNL     1      63.117   6.864   2.875  1.00  0.00     0.156 HD
ENDBRANCH   4  11
TORSDOF 2
ENDMDL
MODEL 5
REMARK VINA RESULT:      -3.5      1.477      2.635
REMARK  2 active torsions:
REMARK  status: ('A' for Active; 'I' for Inactive)
REMARK    1  A    between atoms: C_1  and  N_5 
REMARK    2  A    between atoms: C_4  and  N_6 
ROOT
HETATM    1  C   UNL     1      62.375  10.130   3.687  1.00  0.00     0.125 A 
HETATM    2  N   UNL     1      62.355   9.132   2.785  1.00  0.00    -0.351 N 
ATOM      3  HN  UNL     1      61.810   9.196   1.926  1.00  0.00     0.166 HD
HETATM    4  C   UNL     1      63.056  10.063   4.918  1.00  0.00     0.070 A 
HETATM    5  C   UNL     1      63.096   8.041   3.077  1.00  0.00     0.090 A 
HETATM    6  C   UNL     1      63.864   8.952   5.143  1.00  0.00     0.034 A 
HETATM    7  C   UNL     1      63.870   7.911   4.218  1.00  0.00     0.019 A 
ENDROOT
BRANCH   1   8
HETATM    8  N   UNL     1      61.644  11.286   3.365  1.00  0.00    -0.384 N 
HETATM    9  H   UNL     1      61.266  11.394   2.463  1.00  0.00     0.157 HD
HETATM   10  H   UNL     1      61.511  11.988   4.042  1.00  0.00     0.157 HD
ENDBRANCH   1   8
BRANCH   4  11
HETATM   11  N   UNL     1      63.107  11.178   5.784  1.00  0.00    -0.396 N 
HETATM   12  H   UNL     1      62.528  11.956   5.618  1.00  0.00     0.156 HD
HETATM   13  H   UNL     1      63.721  11.176   6.553  1.00  0.00     0.156 HD
ENDBRANCH   4  11
TORSDOF 2
ENDMDL
MODEL 6
REMARK VINA RESULT:      -3.3      1.561      2.507
REMARK  2 active torsions:
REMARK  status: ('A' for Active; 'I' for Inactive)
REMARK    1  A    between atoms: C_1  and  N_5 
REMARK    2  A    between atoms: C_4  and  N_6 
ROOT
HETATM    1  C   UNL     1      63.177   8.710   3.721  1.00  0.00     0.125 A 
HETATM    2  N   UNL     1      62.389   9.358   2.845  1.00  0.00    -0.351 N 
ATOM      3  HN  UNL     1      62.144   8.952   1.942  1.00  0.00     0.166 HD
HETATM    4  C   UNL     1      63.599   9.254   4.950  1.00  0.00     0.070 A 
HETATM    5  C   UNL     1      61.938  10.574   3.224  1.00  0.00     0.090 A 
HETATM    6  C   UNL     1      63.051  10.476   5.331  1.00  0.00     0.034 A 
HETATM    7  C   UNL     1      62.224  11.161   4.446  1.00  0.00     0.019 A 
ENDROOT
BRANCH   1   8
HETATM    8  N   UNL     1      63.609   7.425   3.352  1.00  0.00    -0.384 N 
HETATM    9  H   UNL     1      63.092   6.634   3.629  1.00  0.00     0.157 HD
HETATM   10  H   UNL     1      64.427   7.315   2.816  1.00  0.00     0.157 HD
ENDBRANCH   1   8
BRANCH   4  11
HETATM   11  N   UNL     1      64.357   8.488   5.864  1.00  0.00    -0.396 N 
HETATM   12  H   UNL     1      65.332   8.616   5.922  1.00  0.00     0.156 HD
HETATM   13  H   UNL     1      63.912   7.827   6.441  1.00  0.00     0.156 HD
ENDBRANCH   4  11
TORSDOF 2
ENDMDL
MODEL 7
REMARK VINA RESULT:      -3.3      5.186      6.547
REMARK  2 active torsions:
REMARK  status: ('A' for Active; 'I' for Inactive)
REMARK    1  A    between atoms: C_1  and  N_5 
REMARK    2  A    between atoms: C_4  and  N_6 
ROOT
HETATM    1  C   UNL     1      66.812   7.176   7.271  1.00  0.00     0.125 A 
HETATM    2  N   UNL     1      67.965   6.571   7.606  1.00  0.00    -0.351 N 
ATOM      3  HN  UNL     1      68.843   7.087   7.668  1.00  0.00     0.166 HD
HETATM    4  C   UNL     1      65.588   6.497   7.105  1.00  0.00     0.070 A 
HETATM    5  C   UNL     1      67.901   5.245   7.856  1.00  0.00     0.090 A 
HETATM    6  C   UNL     1      65.554   5.148   7.445  1.00  0.00     0.034 A 
HETATM    7  C   UNL     1      66.733   4.502   7.806  1.00  0.00     0.019 A 
ENDROOT
BRANCH   1   8
HETATM    8  N   UNL     1      66.865   8.563   7.057  1.00  0.00    -0.384 N 
HETATM    9  H   UNL     1      67.594   8.951   6.522  1.00  0.00     0.157 HD
HETATM   10  H   UNL     1      66.173   9.148   7.442  1.00  0.00     0.157 HD
ENDBRANCH   1   8
BRANCH   4  11
HETATM   11  N   UNL     1      64.394   7.204   6.835  1.00  0.00    -0.396 N 
HETATM   12  H   UNL     1      64.264   7.631   5.958  1.00  0.00     0.156 HD
HETATM   13  H   UNL     1      63.694   7.268   7.524  1.00  0.00     0.156 HD
ENDBRANCH   4  11
TORSDOF 2
ENDMDL
MODEL 8
REMARK VINA RESULT:      -3.3      2.179      3.726
REMARK  2 active torsions:
REMARK  status: ('A' for Active; 'I' for Inactive)
REMARK    1  A    between atoms: C_1  and  N_5 
REMARK    2  A    between atoms: C_4  and  N_6 
ROOT
HETATM    1  C   UNL     1      61.512   9.146   2.992  1.00  0.00     0.125 A 
HETATM    2  N   UNL     1      61.816   8.057   3.721  1.00  0.00    -0.351 N 
ATOM      3  HN  UNL     1      61.512   7.124   3.444  1.00  0.00     0.166 HD
HETATM    4  C   UNL     1      61.850  10.461   3.366  1.00  0.00     0.070 A 
HETATM    5  C   UNL     1      62.544   8.264   4.840  1.00  0.00     0.090 A 
HETATM    6  C   UNL     1      62.662  10.620   4.485  1.00  0.00     0.034 A 
HETATM    7  C   UNL     1      62.999   9.507   5.251  1.00  0.00     0.019 A 
ENDROOT
BRANCH   1   8
HETATM    8  N   UNL     1      60.797   8.930   1.802  1.00  0.00    -0.384 N 
HETATM    9  H   UNL     1      60.968   8.123   1.264  1.00  0.00     0.157 HD
HETATM   10  H   UNL     1      60.124   9.584   1.507  1.00  0.00     0.157 HD
ENDBRANCH   1   8
BRANCH   4  11
HETATM   11  N   UNL     1      61.576  11.554   2.513  1.00  0.00    -0.396 N 
HETATM   12  H   UNL     1      60.649  11.860   2.388  1.00  0.00     0.156 HD
HETATM   13  H   UNL     1      62.313  12.009   2.044  1.00  0.00     0.156 HD
ENDBRANCH   4  11
TORSDOF 2
ENDMDL
MODEL 9
REMARK VINA RESULT:      -3.3      1.982      3.411
REMARK  2 active torsions:
REMARK  status: ('A' for Active; 'I' for Inactive)
REMARK    1  A    between atoms: C_1  and  N_5 
REMARK    2  A    between atoms: C_4  and  N_6 
ROOT
HETATM    1  C   UNL     1      62.901   8.795   3.375  1.00  0.00     0.125 A 
HETATM    2  N   UNL     1      63.264   9.020   4.650  1.00  0.00    -0.351 N 
ATOM      3  HN  UNL     1      63.764   8.320   5.197  1.00  0.00     0.166 HD
HETATM    4  C   UNL     1      62.152   9.701   2.599  1.00  0.00     0.070 A 
HETATM    5  C   UNL     1      62.931  10.222   5.169  1.00  0.00     0.090 A 
HETATM    6  C   UNL     1      61.896  10.954   3.148  1.00  0.00     0.034 A 
HETATM    7  C   UNL     1      62.271  11.215   4.463  1.00  0.00     0.019 A 
ENDROOT
BRANCH   1   8
HETATM    8  N   UNL     1      63.288   7.565   2.816  1.00  0.00    -0.384 N 
HETATM    9  H   UNL     1      63.211   7.419   1.845  1.00  0.00     0.157 HD
HETATM   10  H   UNL     1      63.637   6.850   3.395  1.00  0.00     0.157 HD
ENDBRANCH   1   8
BRANCH   4  11
HETATM   11  N   UNL     1      61.876   9.441   1.238  1.00  0.00    -0.396 N 
HETATM   12  H   UNL     1      60.984   9.635   0.871  1.00  0.00     0.156 HD
HETATM   13  H   UNL     1      62.577   9.065   0.657  1.00  0.00     0.156 HD
ENDBRANCH   4  11
TORSDOF 2
ENDMDL
