MODEL 1
REMARK VINA RESULT:      -5.0      0.000      0.000
REMARK  2 active torsions:
REMARK  status: ('A' for Active; 'I' for Inactive)
REMARK    1  A    between atoms: C_1  and  C_3 
REMARK    2  A    between atoms: C_2  and  N_8 
ROOT
HETATM    1  C   UNL     1      62.414  10.066   3.543  1.00  0.00     0.067 A 
HETATM    2  C   UNL     1      61.967  10.439   2.255  1.00  0.00     0.044 A 
HETATM    3  C   UNL     1      62.836   8.745   3.781  1.00  0.00     0.022 A 
HETATM    4  C   UNL     1      62.018   9.484   1.227  1.00  0.00     0.053 A 
HETATM    5  C   UNL     1      62.435   8.176   1.480  1.00  0.00     0.036 A 
HETATM    6  C   UNL     1      62.845   7.801   2.753  1.00  0.00     0.025 A 
HETATM    7 CL   UNL     1      62.464   7.026   0.200  1.00  0.00    -0.084 Cl
ENDROOT
BRANCH   1   8
HETATM    8  C   UNL     1      62.442  10.982   4.720  1.00  0.00     0.211 C 
HETATM    9  O   UNL     1      62.059  12.139   4.719  1.00  0.00    -0.644 OA
HETATM   10  O   UNL     1      62.971  10.447   5.837  1.00  0.00    -0.644 OA
ENDBRANCH   1   8
BRANCH   2  11
HETATM   11  N   UNL     1      61.691  11.771   1.894  1.00  0.00    -0.398 N 
HETATM   12  H   UNL     1      61.094  11.962   1.135  1.00  0.00     0.156 HD
HETATM   13  H   UNL     1      62.097  12.512   2.400  1.00  0.00     0.156 HD
ENDBRANCH   2  11
TORSDOF 2
ENDMDL
MODEL 2
REMARK VINA RESULT:      -4.8      1.867      2.537
REMARK  2 active torsions:
REMARK  status: ('A' for Active; 'I' for Inactive)
REMARK    1  A    between atoms: C_1  and  C_3 
REMARK    2  A    between atoms: C_2  and  N_8 
ROOT
HETATM    1  C   UNL     1      62.774   9.888   4.193  1.00  0.00     0.067 A 
HETATM    2  C   UNL     1      63.602   8.776   4.470  1.00  0.00     0.044 A 
HETATM    3  C   UNL     1      62.046   9.933   2.990  1.00  0.00     0.022 A 
HETATM    4  C   UNL     1      63.623   7.712   3.554  1.00  0.00     0.053 A 
HETATM    5  C   UNL     1      62.898   7.774   2.363  1.00  0.00     0.036 A 
HETATM    6  C   UNL     1      62.110   8.881   2.075  1.00  0.00     0.025 A 
HETATM    7 CL   UNL     1      62.965   6.461   1.253  1.00  0.00    -0.084 Cl
ENDROOT
BRANCH   1   8
HETATM    8  C   UNL     1      62.632  11.074   5.086  1.00  0.00     0.211 C 
HETATM    9  O   UNL     1      63.091  11.165   6.212  1.00  0.00    -0.644 OA
HETATM   10  O   UNL     1      61.904  12.083   4.571  1.00  0.00    -0.644 OA
ENDBRANCH   1   8
BRANCH   2  11
HETATM   11  N   UNL     1      64.226   8.576   5.716  1.00  0.00    -0.398 N 
HETATM   12  H   UNL     1      65.198   8.432   5.763  1.00  0.00     0.156 HD
HETATM   13  H   UNL     1      63.688   8.579   6.541  1.00  0.00     0.156 HD
ENDBRANCH   2  11
TORSDOF 2
ENDMDL
MODEL 3
REMARK VINA RESULT:      -4.7      2.605      3.225
REMARK  2 active torsions:
REMARK  status: ('A' for Active; 'I' for Inactive)
REMARK    1  A    between atoms: C_1  and  C_3 
REMARK    2  A    between atoms: C_2  and  N_8 
ROOT
HETATM    1  C   UNL     1      63.963   8.571   4.900  1.00  0.00     0.067 A 
HETATM    2  C   UNL     1      63.197   9.759   4.851  1.00  0.00     0.044 A 
HETATM    3  C   UNL     1      63.859   7.631   3.859  1.00  0.00     0.022 A 
HETATM    4  C   UNL     1      62.396   9.993   3.722  1.00  0.00     0.053 A 
HETATM    5  C   UNL     1      62.301   9.048   2.700  1.00  0.00     0.036 A 
HETATM    6  C   UNL     1      63.029   7.866   2.762  1.00  0.00     0.025 A 
HETATM    7 CL   UNL     1      61.292   9.358   1.340  1.00  0.00    -0.084 Cl
ENDROOT
BRANCH   1   8
HETATM    8  C   UNL     1      64.876   8.205   6.021  1.00  0.00     0.211 C 
HETATM    9  O   UNL     1      64.719   7.260   6.774  1.00  0.00    -0.644 OA
HETATM   10  O   UNL     1      65.921   9.037   6.191  1.00  0.00    -0.644 OA
ENDBRANCH   1   8
BRANCH   2  11
HETATM   11  N   UNL     1      63.369  10.820   5.759  1.00  0.00    -0.398 N 
HETATM   12  H   UNL     1      62.867  11.659   5.638  1.00  0.00     0.156 HD
HETATM   13  H   UNL     1      63.992  10.724   6.516  1.00  0.00     0.156 HD
ENDBRANCH   2  11
TORSDOF 2
ENDMDL
MODEL 4
REMARK VINA RESULT:      -4.7      2.508      3.098
REMARK  2 active torsions:
REMARK  status: ('A' for Active; 'I' for Inactive)
REMARK    1  A    between atoms: C_1  and  C_3 
REMARK    2  A    between atoms: C_2  and  N_8 
ROOT
HETATM    1  C   UNL     1      62.267  10.127   3.872  1.00  0.00     0.067 A 
HETATM    2  C   UNL     1      63.071   9.862   5.004  1.00  0.00     0.044 A 
HETATM    3  C   UNL     1      61.729   9.057   3.133  1.00  0.00     0.022 A 
HETATM    4  C   UNL     1      63.259   8.527   5.395  1.00  0.00     0.053 A 
HETATM    5  C   UNL     1      62.721   7.477   4.649  1.00  0.00     0.036 A 
HETATM    6  C   UNL     1      61.957   7.735   3.519  1.00  0.00     0.025 A 
HETATM    7 CL   UNL     1      62.989   5.851   5.146  1.00  0.00    -0.084 Cl
ENDROOT
BRANCH   1   8
HETATM    8  C   UNL     1      61.961  11.493   3.359  1.00  0.00     0.211 C 
HETATM    9  O   UNL     1      61.904  11.805   2.181  1.00  0.00    -0.644 OA
HETATM   10  O   UNL     1      61.772  12.424   4.313  1.00  0.00    -0.644 OA
ENDBRANCH   1   8
BRANCH   2  11
HETATM   11  N   UNL     1      63.504  10.868   5.889  1.00  0.00    -0.398 N 
HETATM   12  H   UNL     1      64.345  10.756   6.389  1.00  0.00     0.156 HD
HETATM   13  H   UNL     1      62.965  11.683   6.009  1.00  0.00     0.156 HD
ENDBRANCH   2  11
TORSDOF 2
ENDMDL
MODEL 5
REMARK VINA RESULT:      -4.5      1.334      1.551
REMARK  2 active torsions:
REMARK  status: ('A' for Active; 'I' for Inactive)
REMARK    1  A    between atoms: C_1  and  C_3 
REMARK    2  A    between atoms: C_2  and  N_8 
ROOT
HETATM    1  C   UNL     1      62.802   9.388   3.907  1.00  0.00     0.067 A 
HETATM    2  C   UNL     1      62.099   9.001   2.743  1.00  0.00     0.044 A 
HETATM    3  C   UNL     1      63.822   8.563   4.414  1.00  0.00     0.022 A 
HETATM    4  C   UNL     1      62.489   7.821   2.088  1.00  0.00     0.053 A 
HETATM    5  C   UNL     1      63.500   7.011   2.606  1.00  0.00     0.036 A 
HETATM    6  C   UNL     1      64.169   7.376   3.767  1.00  0.00     0.025 A 
HETATM    7 CL   UNL     1      63.937   5.561   1.788  1.00  0.00    -0.084 Cl
ENDROOT
BRANCH   1   8
HETATM    8  C   UNL     1      62.516  10.626   4.688  1.00  0.00     0.211 C 
HETATM    9  O   UNL     1      61.918  11.601   4.266  1.00  0.00    -0.644 OA
HETATM   10  O   UNL     1      63.006  10.627   5.942  1.00  0.00    -0.644 OA
ENDBRANCH   1   8
BRANCH   2  11
HETATM   11  N   UNL     1      61.189   9.844   2.080  1.00  0.00    -0.398 N 
HETATM   12  H   UNL     1      61.319  10.059   1.128  1.00  0.00     0.156 HD
HETATM   13  H   UNL     1      60.421  10.221   2.569  1.00  0.00     0.156 HD
ENDBRANCH   2  11
TORSDOF 2
ENDMDL
MODEL 6
REMARK VINA RESULT:      -4.5      1.915      2.378
REMARK  2 active torsions:
REMARK  status: ('A' for Active; 'I' for Inactive)
REMARK    1  A    between atoms: C_1  and  C_3 
REMARK    2  A    between atoms: C_2  and  N_8 
ROOT
HETATM    1  C   UNL     1      62.335   9.928   3.323  1.00  0.00     0.067 A 
HETATM    2  C   UNL     1      62.287   8.977   2.278  1.00  0.00     0.044 A 
HETATM    3  C   UNL     1      62.711   9.523   4.617  1.00  0.00     0.022 A 
HETATM    4  C   UNL     1      62.680   7.658   2.553  1.00  0.00     0.053 A 
HETATM    5  C   UNL     1      63.046   7.272   3.843  1.00  0.00     0.036 A 
HETATM    6  C   UNL     1      63.064   8.199   4.878  1.00  0.00     0.025 A 
HETATM    7 CL   UNL     1      63.502   5.641   4.150  1.00  0.00    -0.084 Cl
ENDROOT
BRANCH   1   8
HETATM    8  C   UNL     1      61.973  11.366   3.168  1.00  0.00     0.211 C 
HETATM    9  O   UNL     1      61.870  11.954   2.105  1.00  0.00    -0.644 OA
HETATM   10  O   UNL     1      61.788  12.028   4.326  1.00  0.00    -0.644 OA
ENDBRANCH   1   8
BRANCH   2  11
HETATM   11  N   UNL     1      62.087   9.329   0.929  1.00  0.00    -0.398 N 
HETATM   12  H   UNL     1      61.848  10.254   0.691  1.00  0.00     0.156 HD
HETATM   13  H   UNL     1      62.184   8.648   0.224  1.00  0.00     0.156 HD
ENDBRANCH   2  11
TORSDOF 2
ENDMDL
MODEL 7
REMARK VINA RESULT:      -4.4      2.534      3.099
REMARK  2 active torsions:
REMARK  status: ('A' for Active; 'I' for Inactive)
REMARK    1  A    between atoms: C_1  and  C_3 
REMARK    2  A    between atoms: C_2  and  N_8 
ROOT
HETATM    1  C   UNL     1      63.603   9.392   4.670  1.00  0.00     0.067 A 
HETATM    2  C   UNL     1      64.621   8.473   5.012  1.00  0.00     0.044 A 
HETATM    3  C   UNL     1      62.771   9.132   3.565  1.00  0.00     0.022 A 
HETATM    4  C   UNL     1      64.731   7.287   4.268  1.00  0.00     0.053 A 
HETATM    5  C   UNL     1      63.901   7.047   3.172  1.00  0.00     0.036 A 
HETATM    6  C   UNL     1      62.921   7.964   2.816  1.00  0.00     0.025 A 
HETATM    7 CL   UNL     1      64.077   5.592   2.269  1.00  0.00    -0.084 Cl
ENDROOT
BRANCH   1   8
HETATM    8  C   UNL     1      63.353  10.675   5.387  1.00  0.00     0.211 C 
HETATM    9  O   UNL     1      62.360  11.370   5.258  1.00  0.00    -0.644 OA
HETATM   10  O   UNL     1      64.349  11.067   6.204  1.00  0.00    -0.644 OA
ENDBRANCH   1   8
BRANCH   2  11
HETATM   11  N   UNL     1      65.380   8.573   6.193  1.00  0.00    -0.398 N 
HETATM   12  H   UNL     1      66.273   8.986   6.173  1.00  0.00     0.156 HD
HETATM   13  H   UNL     1      65.017   8.228   7.042  1.00  0.00     0.156 HD
ENDBRANCH   2  11
TORSDOF 2
ENDMDL
MODEL 8
REMARK VINA RESULT:      -4.3      1.985      2.499
REMARK  2 active torsions:
REMARK  status: ('A' for Active; 'I' for Inactive)
REMARK    1  A    between atoms: C_1  and  C_3 
REMARK    2  A    between atoms: C_2  and  N_8 
ROOT
HETATM    1  C   UNL     1      62.912   9.645   4.233  1.00  0.00     0.067 A 
HETATM    2  C   UNL     1      63.200   8.321   3.828  1.00  0.00     0.044 A 
HETATM    3  C   UNL     1      62.130  10.472   3.406  1.00  0.00     0.022 A 
HETATM    4  C   UNL     1      62.639   7.849   2.631  1.00  0.00     0.053 A 
HETATM    5  C   UNL     1      61.868   8.684   1.821  1.00  0.00     0.036 A 
HETATM    6  C   UNL     1      61.610   9.995   2.202  1.00  0.00     0.025 A 
HETATM    7 CL   UNL     1      61.212   8.079   0.348  1.00  0.00    -0.084 Cl
ENDROOT
BRANCH   1   8
HETATM    8  C   UNL     1      63.416  10.268   5.490  1.00  0.00     0.211 C 
HETATM    9  O   UNL     1      62.789  11.046   6.189  1.00  0.00    -0.644 OA
HETATM   10  O   UNL     1      64.681   9.938   5.815  1.00  0.00    -0.644 OA
ENDBRANCH   1   8
BRANCH   2  11
HETATM   11  N   UNL     1      63.827   7.382   4.668  1.00  0.00    -0.398 N 
HETATM   12  H   UNL     1      63.286   6.732   5.172  1.00  0.00     0.156 HD
HETATM   13  H   UNL     1      64.809   7.376   4.753  1.00  0.00     0.156 HD
ENDBRANCH   2  11
TORSDOF 2
ENDMDL
MODEL 9
REMARK VINA RESULT:      -4.3      3.005      3.727
REMARK  2 active torsions:
REMARK  status: ('A' for Active; 'I' for Inactive)
REMARK    1  A    between atoms: C_1  and  C_3 
REMARK    2  A    between atoms: C_2  and  N_8 
ROOT
HETATM    1  C   UNL     1      62.479   8.308   4.847  1.00  0.00     0.067 A 
HETATM    2  C   UNL     1      61.942   8.079   3.560  1.00  0.00     0.044 A 
HETATM    3  C   UNL     1      62.802   9.618   5.246  1.00  0.00     0.022 A 
HETATM    4  C   UNL     1      61.686   9.186   2.735  1.00  0.00     0.053 A 
HETATM    5  C   UNL     1      62.015  10.479   3.144  1.00  0.00     0.036 A 
HETATM    6  C   UNL     1      62.573  10.701   4.396  1.00  0.00     0.025 A 
HETATM    7 CL   UNL     1      61.707  11.810   2.098  1.00  0.00    -0.084 Cl
ENDROOT
BRANCH   1   8
HETATM    8  C   UNL     1      62.776   7.233   5.837  1.00  0.00     0.211 C 
HETATM    9  O   UNL     1      62.453   6.063   5.722  1.00  0.00    -0.644 OA
HETATM   10  O   UNL     1      63.426   7.648   6.941  1.00  0.00    -0.644 OA
ENDBRANCH   1   8
BRANCH   2  11
HETATM   11  N   UNL     1      61.438   6.830   3.150  1.00  0.00    -0.398 N 
HETATM   12  H   UNL     1      60.512   6.755   2.825  1.00  0.00     0.156 HD
HETATM   13  H   UNL     1      62.013   6.031   3.189  1.00  0.00     0.156 HD
ENDBRANCH   2  11
TORSDOF 2
ENDMDL
