MODEL 1
REMARK VINA RESULT:      -5.3      0.000      0.000
REMARK  2 active torsions:
REMARK  status: ('A' for Active; 'I' for Inactive)
REMARK    1  A    between atoms: C_1  and  C_3 
REMARK    2  A    between atoms: C_2  and  N_4 
REMARK       I    between atoms: C_3  and  N_6 
ROOT
HETATM    1  C   UNL     1      62.570   9.756   4.038  1.00  0.00     0.058 A 
HETATM    2  C   UNL     1      62.721   8.548   3.309  1.00  0.00     0.046 A 
HETATM    3  C   UNL     1      62.102  10.932   3.413  1.00  0.00     0.019 A 
HETATM    4  C   UNL     1      62.380   8.601   1.940  1.00  0.00     0.030 A 
HETATM    5  C   UNL     1      61.797  10.941   2.055  1.00  0.00     0.001 A 
HETATM    6  C   UNL     1      61.932   9.773   1.318  1.00  0.00     0.002 A 
ENDROOT
BRANCH   2   7
HETATM    7  N   UNL     1      63.231   7.364   3.891  1.00  0.00    -0.380 N 
HETATM    8  C   UNL     1      64.568   6.914   3.461  1.00  0.00     0.123 C 
HETATM    9  C   UNL     1      65.131   5.966   4.517  1.00  0.00     0.020 C 
HETATM   10  C   UNL     1      64.190   4.788   4.760  1.00  0.00     0.003 C 
HETATM   11  C   UNL     1      62.773   5.271   5.072  1.00  0.00     0.020 C 
HETATM   12  C   UNL     1      62.265   6.246   4.001  1.00  0.00     0.123 C 
ENDBRANCH   2   7
BRANCH   1  13
HETATM   13  C   UNL     1      62.930   9.930   5.478  1.00  0.00     0.251 C 
HETATM   14  O   UNL     1      62.856   9.008   6.280  1.00  0.00    -0.268 OA
HETATM   15  N   UNL     1      63.338  11.172   5.868  1.00  0.00    -0.366 N 
HETATM   16  H   UNL     1      63.391  11.902   5.208  1.00  0.00     0.159 HD
HETATM   17  H   UNL     1      63.579  11.340   6.807  1.00  0.00     0.159 HD
ENDBRANCH   1  13
TORSDOF 2
ENDMDL
MODEL 2
REMARK VINA RESULT:      -5.3      1.955      2.380
REMARK  2 active torsions:
REMARK  status: ('A' for Active; 'I' for Inactive)
REMARK    1  A    between atoms: C_1  and  C_3 
REMARK    2  A    between atoms: C_2  and  N_4 
REMARK       I    between atoms: C_3  and  N_6 
ROOT
HETATM    1  C   UNL     1      63.280   9.673   4.728  1.00  0.00     0.058 A 
HETATM    2  C   UNL     1      63.890   8.408   4.518  1.00  0.00     0.046 A 
HETATM    3  C   UNL     1      62.295  10.164   3.843  1.00  0.00     0.019 A 
HETATM    4  C   UNL     1      63.453   7.688   3.384  1.00  0.00     0.030 A 
HETATM    5  C   UNL     1      61.912   9.425   2.727  1.00  0.00     0.001 A 
HETATM    6  C   UNL     1      62.489   8.184   2.499  1.00  0.00     0.002 A 
ENDROOT
BRANCH   2   7
HETATM    7  N   UNL     1      64.912   7.905   5.356  1.00  0.00    -0.380 N 
HETATM    8  C   UNL     1      66.243   7.694   4.756  1.00  0.00     0.123 C 
HETATM    9  C   UNL     1      67.283   7.645   5.873  1.00  0.00     0.020 C 
HETATM   10  C   UNL     1      66.946   6.561   6.895  1.00  0.00     0.003 C 
HETATM   11  C   UNL     1      65.513   6.714   7.406  1.00  0.00     0.020 C 
HETATM   12  C   UNL     1      64.509   6.794   6.248  1.00  0.00     0.123 C 
ENDBRANCH   2   7
BRANCH   1  13
HETATM   13  C   UNL     1      63.639  10.616   5.829  1.00  0.00     0.251 C 
HETATM   14  O   UNL     1      64.798  10.790   6.182  1.00  0.00    -0.268 OA
HETATM   15  N   UNL     1      62.610  11.273   6.439  1.00  0.00    -0.366 N 
HETATM   16  H   UNL     1      61.683  11.121   6.142  1.00  0.00     0.159 HD
HETATM   17  H   UNL     1      62.794  11.900   7.176  1.00  0.00     0.159 HD
ENDBRANCH   1  13
TORSDOF 2
ENDMDL
MODEL 3
REMARK VINA RESULT:      -5.1      3.669      5.176
REMARK  2 active torsions:
REMARK  status: ('A' for Active; 'I' for Inactive)
REMARK    1  A    between atoms: C_1  and  C_3 
REMARK    2  A    between atoms: C_2  and  N_4 
REMARK       I    between atoms: C_3  and  N_6 
ROOT
HETATM    1  C   UNL     1      65.692   7.320   5.100  1.00  0.00     0.058 A 
HETATM    2  C   UNL     1      65.381   6.690   6.334  1.00  0.00     0.046 A 
HETATM    3  C   UNL     1      64.682   7.902   4.303  1.00  0.00     0.019 A 
HETATM    4  C   UNL     1      64.018   6.684   6.702  1.00  0.00     0.030 A 
HETATM    5  C   UNL     1      63.349   7.853   4.699  1.00  0.00     0.001 A 
HETATM    6  C   UNL     1      63.016   7.247   5.902  1.00  0.00     0.002 A 
ENDROOT
BRANCH   2   7
HETATM    7  N   UNL     1      66.359   6.056   7.134  1.00  0.00    -0.380 N 
HETATM    8  C   UNL     1      66.569   4.610   6.938  1.00  0.00     0.123 C 
HETATM    9  C   UNL     1      67.942   4.233   7.489  1.00  0.00     0.020 C 
HETATM   10  C   UNL     1      68.075   4.627   8.959  1.00  0.00     0.003 C 
HETATM   11  C   UNL     1      67.721   6.100   9.166  1.00  0.00     0.020 C 
HETATM   12  C   UNL     1      66.350   6.438   8.566  1.00  0.00     0.123 C 
ENDBRANCH   2   7
BRANCH   1  13
HETATM   13  C   UNL     1      67.059   7.384   4.500  1.00  0.00     0.251 C 
HETATM   14  O   UNL     1      67.807   8.334   4.691  1.00  0.00    -0.268 OA
HETATM   15  N   UNL     1      67.439   6.335   3.714  1.00  0.00    -0.366 N 
HETATM   16  H   UNL     1      66.825   5.579   3.572  1.00  0.00     0.159 HD
HETATM   17  H   UNL     1      68.327   6.334   3.290  1.00  0.00     0.159 HD
ENDBRANCH   1  13
TORSDOF 2
ENDMDL
MODEL 4
REMARK VINA RESULT:      -5.1      2.090      3.221
REMARK  2 active torsions:
REMARK  status: ('A' for Active; 'I' for Inactive)
REMARK    1  A    between atoms: C_1  and  C_3 
REMARK    2  A    between atoms: C_2  and  N_4 
REMARK       I    between atoms: C_3  and  N_6 
ROOT
HETATM    1  C   UNL     1      62.193   9.635   2.868  1.00  0.00     0.058 A 
HETATM    2  C   UNL     1      62.871   8.785   3.781  1.00  0.00     0.046 A 
HETATM    3  C   UNL     1      61.885  10.972   3.206  1.00  0.00     0.019 A 
HETATM    4  C   UNL     1      63.211   9.357   5.027  1.00  0.00     0.030 A 
HETATM    5  C   UNL     1      62.223  11.483   4.456  1.00  0.00     0.001 A 
HETATM    6  C   UNL     1      62.891  10.677   5.366  1.00  0.00     0.002 A 
ENDROOT
BRANCH   2   7
HETATM    7  N   UNL     1      63.154   7.430   3.495  1.00  0.00    -0.380 N 
HETATM    8  C   UNL     1      62.166   6.423   3.923  1.00  0.00     0.123 C 
HETATM    9  C   UNL     1      62.382   5.146   3.115  1.00  0.00     0.020 C 
HETATM   10  C   UNL     1      63.813   4.632   3.266  1.00  0.00     0.003 C 
HETATM   11  C   UNL     1      64.827   5.731   2.949  1.00  0.00     0.020 C 
HETATM   12  C   UNL     1      64.548   7.004   3.759  1.00  0.00     0.123 C 
ENDBRANCH   2   7
BRANCH   1  13
HETATM   13  C   UNL     1      61.694   9.213   1.525  1.00  0.00     0.251 C 
HETATM   14  O   UNL     1      62.409   9.231   0.532  1.00  0.00    -0.268 OA
HETATM   15  N   UNL     1      60.391   8.812   1.447  1.00  0.00    -0.366 N 
HETATM   16  H   UNL     1      59.830   8.803   2.257  1.00  0.00     0.159 HD
HETATM   17  H   UNL     1      60.013   8.531   0.583  1.00  0.00     0.159 HD
ENDBRANCH   1  13
TORSDOF 2
ENDMDL
MODEL 5
REMARK VINA RESULT:      -5.0      1.737      3.939
REMARK  2 active torsions:
REMARK  status: ('A' for Active; 'I' for Inactive)
REMARK    1  A    between atoms: C_1  and  C_3 
REMARK    2  A    between atoms: C_2  and  N_4 
REMARK       I    between atoms: C_3  and  N_6 
ROOT
HETATM    1  C   UNL     1      63.648   9.087   4.592  1.00  0.00     0.058 A 
HETATM    2  C   UNL     1      63.304   8.066   3.668  1.00  0.00     0.046 A 
HETATM    3  C   UNL     1      64.833   9.009   5.358  1.00  0.00     0.019 A 
HETATM    4  C   UNL     1      64.210   6.986   3.569  1.00  0.00     0.030 A 
HETATM    5  C   UNL     1      65.683   7.914   5.240  1.00  0.00     0.001 A 
HETATM    6  C   UNL     1      65.374   6.903   4.341  1.00  0.00     0.002 A 
ENDROOT
BRANCH   2   7
HETATM    7  N   UNL     1      62.105   8.087   2.919  1.00  0.00    -0.380 N 
HETATM    8  C   UNL     1      61.078   7.082   3.248  1.00  0.00     0.123 C 
HETATM    9  C   UNL     1      59.729   7.565   2.719  1.00  0.00     0.020 C 
HETATM   10  C   UNL     1      59.791   7.839   1.218  1.00  0.00     0.003 C 
HETATM   11  C   UNL     1      60.948   8.777   0.877  1.00  0.00     0.020 C 
HETATM   12  C   UNL     1      62.274   8.268   1.458  1.00  0.00     0.123 C 
ENDBRANCH   2   7
BRANCH   1  13
HETATM   13  C   UNL     1      62.803  10.281   4.892  1.00  0.00     0.251 C 
HETATM   14  O   UNL     1      61.775  10.521   4.271  1.00  0.00    -0.268 OA
HETATM   15  N   UNL     1      63.232  11.108   5.889  1.00  0.00    -0.366 N 
HETATM   16  H   UNL     1      64.061  10.900   6.378  1.00  0.00     0.159 HD
HETATM   17  H   UNL     1      62.714  11.913   6.119  1.00  0.00     0.159 HD
ENDBRANCH   1  13
TORSDOF 2
ENDMDL
MODEL 6
REMARK VINA RESULT:      -4.9      2.145      3.328
REMARK  2 active torsions:
REMARK  status: ('A' for Active; 'I' for Inactive)
REMARK    1  A    between atoms: C_1  and  C_3 
REMARK    2  A    between atoms: C_2  and  N_4 
REMARK       I    between atoms: C_3  and  N_6 
ROOT
HETATM    1  C   UNL     1      62.466   8.371   2.528  1.00  0.00     0.058 A 
HETATM    2  C   UNL     1      62.918   8.844   3.788  1.00  0.00     0.046 A 
HETATM    3  C   UNL     1      61.795   9.226   1.625  1.00  0.00     0.019 A 
HETATM    4  C   UNL     1      62.655  10.202   4.073  1.00  0.00     0.030 A 
HETATM    5  C   UNL     1      61.542  10.553   1.960  1.00  0.00     0.001 A 
HETATM    6  C   UNL     1      61.976  11.043   3.183  1.00  0.00     0.002 A 
ENDROOT
BRANCH   2   7
HETATM    7  N   UNL     1      63.551   8.006   4.734  1.00  0.00    -0.380 N 
HETATM    8  C   UNL     1      62.708   7.407   5.786  1.00  0.00     0.123 C 
HETATM    9  C   UNL     1      63.432   6.194   6.366  1.00  0.00     0.020 C 
HETATM   10  C   UNL     1      64.811   6.576   6.898  1.00  0.00     0.003 C 
HETATM   11  C   UNL     1      65.624   7.318   5.836  1.00  0.00     0.020 C 
HETATM   12  C   UNL     1      64.842   8.506   5.260  1.00  0.00     0.123 C 
ENDBRANCH   2   7
BRANCH   1  13
HETATM   13  C   UNL     1      62.590   6.959   2.056  1.00  0.00     0.251 C 
HETATM   14  O   UNL     1      63.529   6.586   1.366  1.00  0.00    -0.268 OA
HETATM   15  N   UNL     1      61.598   6.096   2.422  1.00  0.00    -0.366 N 
HETATM   16  H   UNL     1      60.849   6.413   2.978  1.00  0.00     0.159 HD
HETATM   17  H   UNL     1      61.630   5.157   2.130  1.00  0.00     0.159 HD
ENDBRANCH   1  13
TORSDOF 2
ENDMDL
MODEL 7
REMARK VINA RESULT:      -4.9      2.797      4.411
REMARK  2 active torsions:
REMARK  status: ('A' for Active; 'I' for Inactive)
REMARK    1  A    between atoms: C_1  and  C_3 
REMARK    2  A    between atoms: C_2  and  N_4 
REMARK       I    between atoms: C_3  and  N_6 
ROOT
HETATM    1  C   UNL     1      62.395   9.115   3.878  1.00  0.00     0.058 A 
HETATM    2  C   UNL     1      61.687   7.890   3.764  1.00  0.00     0.046 A 
HETATM    3  C   UNL     1      63.657   9.172   4.510  1.00  0.00     0.019 A 
HETATM    4  C   UNL     1      62.318   6.754   4.315  1.00  0.00     0.030 A 
HETATM    5  C   UNL     1      64.229   8.028   5.057  1.00  0.00     0.001 A 
HETATM    6  C   UNL     1      63.561   6.816   4.956  1.00  0.00     0.002 A 
ENDROOT
BRANCH   2   7
HETATM    7  N   UNL     1      60.402   7.804   3.180  1.00  0.00    -0.380 N 
HETATM    8  C   UNL     1      59.335   7.163   3.971  1.00  0.00     0.123 C 
HETATM    9  C   UNL     1      57.981   7.604   3.419  1.00  0.00     0.020 C 
HETATM   10  C   UNL     1      57.857   7.275   1.933  1.00  0.00     0.003 C 
HETATM   11  C   UNL     1      59.043   7.830   1.146  1.00  0.00     0.020 C 
HETATM   12  C   UNL     1      60.379   7.389   1.758  1.00  0.00     0.123 C 
ENDBRANCH   2   7
BRANCH   1  13
HETATM   13  C   UNL     1      61.881  10.440   3.416  1.00  0.00     0.251 C 
HETATM   14  O   UNL     1      61.646  11.352   4.197  1.00  0.00    -0.268 OA
HETATM   15  N   UNL     1      61.673  10.588   2.075  1.00  0.00    -0.366 N 
HETATM   16  H   UNL     1      61.868   9.843   1.461  1.00  0.00     0.159 HD
HETATM   17  H   UNL     1      61.328  11.440   1.722  1.00  0.00     0.159 HD
ENDBRANCH   1  13
TORSDOF 2
ENDMDL
MODEL 8
REMARK VINA RESULT:      -4.6      3.256      6.041
REMARK  2 active torsions:
REMARK  status: ('A' for Active; 'I' for Inactive)
REMARK    1  A    between atoms: C_1  and  C_3 
REMARK    2  A    between atoms: C_2  and  N_4 
REMARK       I    between atoms: C_3  and  N_6 
ROOT
HETATM    1  C   UNL     1      66.867   5.648   7.115  1.00  0.00     0.058 A 
HETATM    2  C   UNL     1      66.051   5.670   5.953  1.00  0.00     0.046 A 
HETATM    3  C   UNL     1      67.873   4.671   7.281  1.00  0.00     0.019 A 
HETATM    4  C   UNL     1      66.308   4.666   4.994  1.00  0.00     0.030 A 
HETATM    5  C   UNL     1      68.074   3.689   6.316  1.00  0.00     0.001 A 
HETATM    6  C   UNL     1      67.295   3.689   5.169  1.00  0.00     0.002 A 
ENDROOT
BRANCH   2   7
HETATM    7  N   UNL     1      65.005   6.604   5.774  1.00  0.00    -0.380 N 
HETATM    8  C   UNL     1      63.623   6.088   5.770  1.00  0.00     0.123 C 
HETATM    9  C   UNL     1      62.667   7.241   6.069  1.00  0.00     0.020 C 
HETATM   10  C   UNL     1      62.846   8.380   5.067  1.00  0.00     0.003 C 
HETATM   11  C   UNL     1      64.310   8.812   4.983  1.00  0.00     0.020 C 
HETATM   12  C   UNL     1      65.234   7.617   4.717  1.00  0.00     0.123 C 
ENDBRANCH   2   7
BRANCH   1  13
HETATM   13  C   UNL     1      66.721   6.581   8.272  1.00  0.00     0.251 C 
HETATM   14  O   UNL     1      66.166   6.244   9.310  1.00  0.00    -0.268 OA
HETATM   15  N   UNL     1      67.229   7.838   8.121  1.00  0.00    -0.366 N 
HETATM   16  H   UNL     1      67.673   8.092   7.279  1.00  0.00     0.159 HD
HETATM   17  H   UNL     1      67.151   8.492   8.852  1.00  0.00     0.159 HD
ENDBRANCH   1  13
TORSDOF 2
ENDMDL
MODEL 9
REMARK VINA RESULT:      -4.6      3.231      6.104
REMARK  2 active torsions:
REMARK  status: ('A' for Active; 'I' for Inactive)
REMARK    1  A    between atoms: C_1  and  C_3 
REMARK    2  A    between atoms: C_2  and  N_4 
REMARK       I    between atoms: C_3  and  N_6 
ROOT
HETATM    1  C   UNL     1      66.725   5.523   5.851  1.00  0.00     0.058 A 
HETATM    2  C   UNL     1      65.796   6.412   6.453  1.00  0.00     0.046 A 
HETATM    3  C   UNL     1      67.843   5.043   6.566  1.00  0.00     0.019 A 
HETATM    4  C   UNL     1      66.062   6.777   7.791  1.00  0.00     0.030 A 
HETATM    5  C   UNL     1      68.075   5.447   7.877  1.00  0.00     0.001 A 
HETATM    6  C   UNL     1      67.181   6.312   8.492  1.00  0.00     0.002 A 
ENDROOT
BRANCH   2   7
HETATM    7  N   UNL     1      64.691   6.950   5.753  1.00  0.00    -0.380 N 
HETATM    8  C   UNL     1      64.793   8.345   5.286  1.00  0.00     0.123 C 
HETATM    9  C   UNL     1      63.777   8.566   4.168  1.00  0.00     0.020 C 
HETATM   10  C   UNL     1      62.362   8.229   4.633  1.00  0.00     0.003 C 
HETATM   11  C   UNL     1      62.303   6.827   5.240  1.00  0.00     0.020 C 
HETATM   12  C   UNL     1      63.364   6.643   6.333  1.00  0.00     0.123 C 
ENDBRANCH   2   7
BRANCH   1  13
HETATM   13  C   UNL     1      66.660   5.061   4.431  1.00  0.00     0.251 C 
HETATM   14  O   UNL     1      65.981   4.101   4.092  1.00  0.00    -0.268 OA
HETATM   15  N   UNL     1      67.406   5.754   3.522  1.00  0.00    -0.366 N 
HETATM   16  H   UNL     1      67.947   6.524   3.812  1.00  0.00     0.159 HD
HETATM   17  H   UNL     1      67.403   5.484   2.575  1.00  0.00     0.159 HD
ENDBRANCH   1  13
TORSDOF 2
ENDMDL
