MODEL 1
REMARK VINA RESULT:      -4.6      0.000      0.000
REMARK  4 active torsions:
REMARK  status: ('A' for Active; 'I' for Inactive)
REMARK    1  A    between atoms: C_1  and  O_8 
REMARK    2  A    between atoms: C_3  and  C_10 
REMARK    3  A    between atoms: C_4  and  O_9 
REMARK    4  A    between atoms: C_10  and  O_11 
ROOT
HETATM    1  C   UNL     1      62.780   8.517   3.068  1.00  0.00     0.123 A 
HETATM    2  C   UNL     1      63.034   9.076   4.351  1.00  0.00     0.078 A 
HETATM    3  C   UNL     1      62.658  10.411   4.652  1.00  0.00    -0.010 A 
HETATM    4  C   UNL     1      62.142   9.332   2.103  1.00  0.00     0.103 A 
HETATM    5  C   UNL     1      62.042  11.187   3.664  1.00  0.00     0.014 A 
HETATM    6  C   UNL     1      61.783  10.650   2.412  1.00  0.00     0.040 A 
HETATM    7 CL   UNL     1      63.828   8.203   5.631  1.00  0.00    -0.081 Cl
ENDROOT
BRANCH   3   8
HETATM    8  C   UNL     1      62.927  11.080   5.980  1.00  0.00     0.204 C 
BRANCH   8   9
HETATM    9  O   UNL     1      64.304  11.412   6.090  1.00  0.00    -0.396 OA
HETATM   10  H   UNL     1      64.656  11.628   5.211  1.00  0.00     0.209 HD
ENDBRANCH   8   9
ENDBRANCH   3   8
BRANCH   1  11
HETATM   11  O   UNL     1      63.090   7.263   2.622  1.00  0.00    -0.351 OA
HETATM   12  C   UNL     1      62.420   6.086   3.020  1.00  0.00     0.210 C 
ENDBRANCH   1  11
BRANCH   4  13
HETATM   13  O   UNL     1      61.790   9.030   0.808  1.00  0.00    -0.353 OA
HETATM   14  C   UNL     1      60.607   8.299   0.536  1.00  0.00     0.210 C 
ENDBRANCH   4  13
TORSDOF 4
ENDMDL
MODEL 2
REMARK VINA RESULT:      -4.6      1.640      2.937
REMARK  4 active torsions:
REMARK  status: ('A' for Active; 'I' for Inactive)
REMARK    1  A    between atoms: C_1  and  O_8 
REMARK    2  A    between atoms: C_3  and  C_10 
REMARK    3  A    between atoms: C_4  and  O_9 
REMARK    4  A    between atoms: C_10  and  O_11 
ROOT
HETATM    1  C   UNL     1      62.526   8.888   2.578  1.00  0.00     0.123 A 
HETATM    2  C   UNL     1      62.475  10.021   3.437  1.00  0.00     0.078 A 
HETATM    3  C   UNL     1      63.008   9.963   4.751  1.00  0.00    -0.010 A 
HETATM    4  C   UNL     1      63.123   7.704   3.074  1.00  0.00     0.103 A 
HETATM    5  C   UNL     1      63.577   8.769   5.207  1.00  0.00     0.014 A 
HETATM    6  C   UNL     1      63.638   7.661   4.375  1.00  0.00     0.040 A 
HETATM    7 CL   UNL     1      61.754  11.535   2.974  1.00  0.00    -0.081 Cl
ENDROOT
BRANCH   3   8
HETATM    8  C   UNL     1      62.958  11.115   5.728  1.00  0.00     0.204 C 
BRANCH   8   9
HETATM    9  O   UNL     1      64.259  11.384   6.234  1.00  0.00    -0.396 OA
HETATM   10  H   UNL     1      64.190  11.956   7.015  1.00  0.00     0.209 HD
ENDBRANCH   8   9
ENDBRANCH   3   8
BRANCH   1  11
HETATM   11  O   UNL     1      62.048   8.779   1.302  1.00  0.00    -0.351 OA
HETATM   12  C   UNL     1      60.707   8.481   0.975  1.00  0.00     0.210 C 
ENDBRANCH   1  11
BRANCH   4  13
HETATM   13  O   UNL     1      63.293   6.491   2.450  1.00  0.00    -0.353 OA
HETATM   14  C   UNL     1      64.477   5.738   2.653  1.00  0.00     0.210 C 
ENDBRANCH   4  13
TORSDOF 4
ENDMDL
MODEL 3
REMARK VINA RESULT:      -4.4      2.090      3.540
REMARK  4 active torsions:
REMARK  status: ('A' for Active; 'I' for Inactive)
REMARK    1  A    between atoms: C_1  and  O_8 
REMARK    2  A    between atoms: C_3  and  C_10 
REMARK    3  A    between atoms: C_4  and  O_9 
REMARK    4  A    between atoms: C_10  and  O_11 
ROOT
HETATM    1  C   UNL     1      63.594   8.469   4.781  1.00  0.00     0.123 A 
HETATM    2  C   UNL     1      63.019   9.752   4.564  1.00  0.00     0.078 A 
HETATM    3  C   UNL     1      62.333  10.048   3.357  1.00  0.00    -0.010 A 
HETATM    4  C   UNL     1      63.461   7.500   3.758  1.00  0.00     0.103 A 
HETATM    5  C   UNL     1      62.238   9.066   2.365  1.00  0.00     0.014 A 
HETATM    6  C   UNL     1      62.788   7.810   2.570  1.00  0.00     0.040 A 
HETATM    7 CL   UNL     1      63.119  11.048   5.720  1.00  0.00    -0.081 Cl
ENDROOT
BRANCH   3   8
HETATM    8  C   UNL     1      61.729  11.398   3.045  1.00  0.00     0.204 C 
BRANCH   8   9
HETATM    9  O   UNL     1      62.163  11.844   1.768  1.00  0.00    -0.396 OA
HETATM   10  H   UNL     1      61.511  11.587   1.096  1.00  0.00     0.209 HD
ENDBRANCH   8   9
ENDBRANCH   3   8
BRANCH   1  11
HETATM   11  O   UNL     1      64.292   8.035   5.873  1.00  0.00    -0.351 OA
HETATM   12  C   UNL     1      65.689   8.168   6.032  1.00  0.00     0.210 C 
ENDBRANCH   1  11
BRANCH   4  13
HETATM   13  O   UNL     1      63.921   6.204   3.724  1.00  0.00    -0.353 OA
HETATM   14  C   UNL     1      65.196   5.907   3.180  1.00  0.00     0.210 C 
ENDBRANCH   4  13
TORSDOF 4
ENDMDL
MODEL 4
REMARK VINA RESULT:      -4.3      2.279      3.817
REMARK  4 active torsions:
REMARK  status: ('A' for Active; 'I' for Inactive)
REMARK    1  A    between atoms: C_1  and  O_8 
REMARK    2  A    between atoms: C_3  and  C_10 
REMARK    3  A    between atoms: C_4  and  O_9 
REMARK    4  A    between atoms: C_10  and  O_11 
ROOT
HETATM    1  C   UNL     1      63.184   7.975   3.764  1.00  0.00     0.123 A 
HETATM    2  C   UNL     1      62.499   8.780   2.812  1.00  0.00     0.078 A 
HETATM    3  C   UNL     1      62.159  10.126   3.105  1.00  0.00    -0.010 A 
HETATM    4  C   UNL     1      63.514   8.558   5.011  1.00  0.00     0.103 A 
HETATM    5  C   UNL     1      62.492  10.659   4.355  1.00  0.00     0.014 A 
HETATM    6  C   UNL     1      63.166   9.885   5.289  1.00  0.00     0.040 A 
HETATM    7 CL   UNL     1      62.010   8.196   1.247  1.00  0.00    -0.081 Cl
ENDROOT
BRANCH   3   8
HETATM    8  C   UNL     1      61.403  11.027   2.156  1.00  0.00     0.204 C 
BRANCH   8   9
HETATM    9  O   UNL     1      62.191  12.164   1.829  1.00  0.00    -0.396 OA
HETATM   10  H   UNL     1      62.713  12.429   2.603  1.00  0.00     0.209 HD
ENDBRANCH   8   9
ENDBRANCH   3   8
BRANCH   1  11
HETATM   11  O   UNL     1      63.566   6.669   3.640  1.00  0.00    -0.351 OA
HETATM   12  C   UNL     1      64.727   6.239   2.961  1.00  0.00     0.210 C 
ENDBRANCH   1  11
BRANCH   4  13
HETATM   13  O   UNL     1      64.166   7.998   6.085  1.00  0.00    -0.353 OA
HETATM   14  C   UNL     1      65.582   7.961   6.127  1.00  0.00     0.210 C 
ENDBRANCH   4  13
TORSDOF 4
ENDMDL
MODEL 5
REMARK VINA RESULT:      -4.1      2.172      4.831
REMARK  4 active torsions:
REMARK  status: ('A' for Active; 'I' for Inactive)
REMARK    1  A    between atoms: C_1  and  O_8 
REMARK    2  A    between atoms: C_3  and  C_10 
REMARK    3  A    between atoms: C_4  and  O_9 
REMARK    4  A    between atoms: C_10  and  O_11 
ROOT
HETATM    1  C   UNL     1      62.919   9.486   5.003  1.00  0.00     0.123 A 
HETATM    2  C   UNL     1      62.437   9.833   3.711  1.00  0.00     0.078 A 
HETATM    3  C   UNL     1      62.483   8.902   2.641  1.00  0.00    -0.010 A 
HETATM    4  C   UNL     1      63.445   8.185   5.189  1.00  0.00     0.103 A 
HETATM    5  C   UNL     1      63.024   7.631   2.864  1.00  0.00     0.014 A 
HETATM    6  C   UNL     1      63.490   7.279   4.122  1.00  0.00     0.040 A 
HETATM    7 CL   UNL     1      61.784  11.400   3.328  1.00  0.00    -0.081 Cl
ENDROOT
BRANCH   3   8
HETATM    8  C   UNL     1      62.022   9.214   1.237  1.00  0.00     0.204 C 
BRANCH   8   9
HETATM    9  O   UNL     1      60.615   9.041   1.134  1.00  0.00    -0.396 OA
HETATM   10  H   UNL     1      60.386   8.789   0.225  1.00  0.00     0.209 HD
ENDBRANCH   8   9
ENDBRANCH   3   8
BRANCH   1  11
HETATM   11  O   UNL     1      62.957  10.267   6.124  1.00  0.00    -0.351 OA
HETATM   12  C   UNL     1      63.719  11.450   6.246  1.00  0.00     0.210 C 
ENDBRANCH   1  11
BRANCH   4  13
HETATM   13  O   UNL     1      63.966   7.613   6.326  1.00  0.00    -0.353 OA
HETATM   14  C   UNL     1      65.315   7.179   6.359  1.00  0.00     0.210 C 
ENDBRANCH   4  13
TORSDOF 4
ENDMDL
MODEL 6
REMARK VINA RESULT:      -4.1      1.862      2.538
REMARK  4 active torsions:
REMARK  status: ('A' for Active; 'I' for Inactive)
REMARK    1  A    between atoms: C_1  and  O_8 
REMARK    2  A    between atoms: C_3  and  C_10 
REMARK    3  A    between atoms: C_4  and  O_9 
REMARK    4  A    between atoms: C_10  and  O_11 
ROOT
HETATM    1  C   UNL     1      62.913   8.334   2.645  1.00  0.00     0.123 A 
HETATM    2  C   UNL     1      63.807   7.724   3.567  1.00  0.00     0.078 A 
HETATM    3  C   UNL     1      64.078   8.322   4.825  1.00  0.00    -0.010 A 
HETATM    4  C   UNL     1      62.302   9.555   3.020  1.00  0.00     0.103 A 
HETATM    5  C   UNL     1      63.465   9.537   5.151  1.00  0.00     0.014 A 
HETATM    6  C   UNL     1      62.585  10.137   4.262  1.00  0.00     0.040 A 
HETATM    7 CL   UNL     1      64.647   6.236   3.236  1.00  0.00    -0.081 Cl
ENDROOT
BRANCH   3   8
HETATM    8  C   UNL     1      65.042   7.748   5.837  1.00  0.00     0.204 C 
BRANCH   8   9
HETATM    9  O   UNL     1      65.956   8.749   6.264  1.00  0.00    -0.396 OA
HETATM   10  H   UNL     1      66.426   8.442   7.056  1.00  0.00     0.209 HD
ENDBRANCH   8   9
ENDBRANCH   3   8
BRANCH   1  11
HETATM   11  O   UNL     1      62.561   7.895   1.399  1.00  0.00    -0.351 OA
HETATM   12  C   UNL     1      61.570   6.921   1.147  1.00  0.00     0.210 C 
ENDBRANCH   1  11
BRANCH   4  13
HETATM   13  O   UNL     1      61.413  10.333   2.317  1.00  0.00    -0.353 OA
HETATM   14  C   UNL     1      61.715  11.687   2.027  1.00  0.00     0.210 C 
ENDBRANCH   4  13
TORSDOF 4
ENDMDL
MODEL 7
REMARK VINA RESULT:      -4.1      2.369      5.287
REMARK  4 active torsions:
REMARK  status: ('A' for Active; 'I' for Inactive)
REMARK    1  A    between atoms: C_1  and  O_8 
REMARK    2  A    between atoms: C_3  and  C_10 
REMARK    3  A    between atoms: C_4  and  O_9 
REMARK    4  A    between atoms: C_10  and  O_11 
ROOT
HETATM    1  C   UNL     1      63.502   8.826   4.972  1.00  0.00     0.123 A 
HETATM    2  C   UNL     1      62.790   8.154   3.940  1.00  0.00     0.078 A 
HETATM    3  C   UNL     1      63.401   7.117   3.189  1.00  0.00    -0.010 A 
HETATM    4  C   UNL     1      64.836   8.429   5.225  1.00  0.00     0.103 A 
HETATM    5  C   UNL     1      64.728   6.765   3.462  1.00  0.00     0.014 A 
HETATM    6  C   UNL     1      65.429   7.408   4.471  1.00  0.00     0.040 A 
HETATM    7 CL   UNL     1      61.153   8.547   3.501  1.00  0.00    -0.081 Cl
ENDROOT
BRANCH   3   8
HETATM    8  C   UNL     1      62.718   6.384   2.057  1.00  0.00     0.204 C 
BRANCH   8   9
HETATM    9  O   UNL     1      63.686   5.857   1.161  1.00  0.00    -0.396 OA
HETATM   10  H   UNL     1      63.237   5.391   0.438  1.00  0.00     0.209 HD
ENDBRANCH   8   9
ENDBRANCH   3   8
BRANCH   1  11
HETATM   11  O   UNL     1      63.063   9.846   5.768  1.00  0.00    -0.351 OA
HETATM   12  C   UNL     1      62.744  11.141   5.304  1.00  0.00     0.210 C 
ENDBRANCH   1  11
BRANCH   4  13
HETATM   13  O   UNL     1      65.725   8.915   6.156  1.00  0.00    -0.353 OA
HETATM   14  C   UNL     1      66.739   8.079   6.686  1.00  0.00     0.210 C 
ENDBRANCH   4  13
TORSDOF 4
ENDMDL
MODEL 8
REMARK VINA RESULT:      -4.0      2.403      3.616
REMARK  4 active torsions:
REMARK  status: ('A' for Active; 'I' for Inactive)
REMARK    1  A    between atoms: C_1  and  O_8 
REMARK    2  A    between atoms: C_3  and  C_10 
REMARK    3  A    between atoms: C_4  and  O_9 
REMARK    4  A    between atoms: C_10  and  O_11 
ROOT
HETATM    1  C   UNL     1      62.041   7.447   3.493  1.00  0.00     0.123 A 
HETATM    2  C   UNL     1      61.799   8.732   2.933  1.00  0.00     0.078 A 
HETATM    3  C   UNL     1      62.160   9.912   3.633  1.00  0.00    -0.010 A 
HETATM    4  C   UNL     1      62.652   7.382   4.768  1.00  0.00     0.103 A 
HETATM    5  C   UNL     1      62.749   9.803   4.898  1.00  0.00     0.014 A 
HETATM    6  C   UNL     1      62.996   8.555   5.450  1.00  0.00     0.040 A 
HETATM    7 CL   UNL     1      61.038   8.969   1.386  1.00  0.00    -0.081 Cl
ENDROOT
BRANCH   3   8
HETATM    8  C   UNL     1      61.902  11.308   3.115  1.00  0.00     0.204 C 
BRANCH   8   9
HETATM    9  O   UNL     1      62.062  12.255   4.162  1.00  0.00    -0.396 OA
HETATM   10  H   UNL     1      62.454  13.068   3.806  1.00  0.00     0.209 HD
ENDBRANCH   8   9
ENDBRANCH   3   8
BRANCH   1  11
HETATM   11  O   UNL     1      61.742   6.226   2.955  1.00  0.00    -0.351 OA
HETATM   12  C   UNL     1      60.486   5.590   3.070  1.00  0.00     0.210 C 
ENDBRANCH   1  11
BRANCH   4  13
HETATM   13  O   UNL     1      62.987   6.277   5.514  1.00  0.00    -0.353 OA
HETATM   14  C   UNL     1      64.237   6.212   6.180  1.00  0.00     0.210 C 
ENDBRANCH   4  13
TORSDOF 4
ENDMDL
MODEL 9
REMARK VINA RESULT:      -3.8      1.963      3.159
REMARK  4 active torsions:
REMARK  status: ('A' for Active; 'I' for Inactive)
REMARK    1  A    between atoms: C_1  and  O_8 
REMARK    2  A    between atoms: C_3  and  C_10 
REMARK    3  A    between atoms: C_4  and  O_9 
REMARK    4  A    between atoms: C_10  and  O_11 
ROOT
HETATM    1  C   UNL     1      62.413   9.133   3.015  1.00  0.00     0.123 A 
HETATM    2  C   UNL     1      63.233   9.124   4.176  1.00  0.00     0.078 A 
HETATM    3  C   UNL     1      64.125   8.049   4.429  1.00  0.00    -0.010 A 
HETATM    4  C   UNL     1      62.512   8.040   2.121  1.00  0.00     0.103 A 
HETATM    5  C   UNL     1      64.182   6.981   3.528  1.00  0.00     0.014 A 
HETATM    6  C   UNL     1      63.392   6.984   2.389  1.00  0.00     0.040 A 
HETATM    7 CL   UNL     1      63.205  10.386   5.373  1.00  0.00    -0.081 Cl
ENDROOT
BRANCH   3   8
HETATM    8  C   UNL     1      65.000   7.956   5.658  1.00  0.00     0.204 C 
BRANCH   8   9
HETATM    9  O   UNL     1      64.271   7.384   6.735  1.00  0.00    -0.396 OA
HETATM   10  H   UNL     1      64.345   6.417   6.698  1.00  0.00     0.209 HD
ENDBRANCH   8   9
ENDBRANCH   3   8
BRANCH   1  11
HETATM   11  O   UNL     1      61.501  10.079   2.638  1.00  0.00    -0.351 OA
HETATM   12  C   UNL     1      61.836  11.340   2.096  1.00  0.00     0.210 C 
ENDBRANCH   1  11
BRANCH   4  13
HETATM   13  O   UNL     1      61.837   7.816   0.945  1.00  0.00    -0.353 OA
HETATM   14  C   UNL     1      61.706   6.502   0.430  1.00  0.00     0.210 C 
ENDBRANCH   4  13
TORSDOF 4
ENDMDL
