MODEL 1
REMARK VINA RESULT:      -5.3      0.000      0.000
REMARK  0 active torsions:
REMARK  status: ('A' for Active; 'I' for Inactive)
ROOT
HETATM    1  C   UNL     1      62.412  10.543   3.952  1.00  0.00     0.091 A 
HETATM    2  C   UNL     1      62.805   9.258   4.518  1.00  0.00     0.085 A 
HETATM    3  N   UNL     1      62.519  11.470   4.912  1.00  0.00    -0.239 N 
ATOM      4  HN  UNL     1      62.316  12.467   4.830  1.00  0.00     0.197 HD
HETATM    5  O   UNL     1      62.961  10.799   6.039  1.00  0.00    -0.156 OA
HETATM    6  N   UNL     1      63.137   9.446   5.801  1.00  0.00    -0.240 N 
ATOM      7  HN  UNL     1      63.454   8.740   6.465  1.00  0.00     0.197 HD
HETATM    8  C   UNL     1      62.002  10.688   2.606  1.00  0.00    -0.031 A 
HETATM    9  C   UNL     1      62.396   8.224   2.429  1.00  0.00     0.003 A 
HETATM   10  C   UNL     1      62.804   8.069   3.766  1.00  0.00     0.034 A 
HETATM   11  C   UNL     1      62.013   9.475   1.875  1.00  0.00     0.009 A 
HETATM   12  C   UNL     1      61.588  11.982   1.987  1.00  0.00     0.050 C 
ENDROOT
TORSDOF 0
ENDMDL
MODEL 2
REMARK VINA RESULT:      -5.3      1.428      2.085
REMARK  0 active torsions:
REMARK  status: ('A' for Active; 'I' for Inactive)
ROOT
HETATM    1  C   UNL     1      62.200  10.185   3.152  1.00  0.00     0.091 A 
HETATM    2  C   UNL     1      62.762  10.216   4.497  1.00  0.00     0.085 A 
HETATM    3  N   UNL     1      61.666  11.387   2.897  1.00  0.00    -0.239 N 
ATOM      4  HN  UNL     1      61.197  11.682   2.040  1.00  0.00     0.197 HD
HETATM    5  O   UNL     1      61.883  12.146   4.034  1.00  0.00    -0.156 OA
HETATM    6  N   UNL     1      62.552  11.432   5.014  1.00  0.00    -0.240 N 
ATOM      7  HN  UNL     1      62.829  11.765   5.937  1.00  0.00     0.197 HD
HETATM    8  C   UNL     1      62.256   9.036   2.329  1.00  0.00    -0.031 A 
HETATM    9  C   UNL     1      63.452   7.966   4.248  1.00  0.00     0.003 A 
HETATM   10  C   UNL     1      63.401   9.103   5.074  1.00  0.00     0.034 A 
HETATM   11  C   UNL     1      62.905   7.934   2.938  1.00  0.00     0.009 A 
HETATM   12  C   UNL     1      61.690   8.959   0.950  1.00  0.00     0.050 C 
ENDROOT
TORSDOF 0
ENDMDL
MODEL 3
REMARK VINA RESULT:      -5.2      0.598      2.590
REMARK  0 active torsions:
REMARK  status: ('A' for Active; 'I' for Inactive)
ROOT
HETATM    1  C   UNL     1      62.875   9.545   4.288  1.00  0.00     0.091 A 
HETATM    2  C   UNL     1      62.353  10.882   4.030  1.00  0.00     0.085 A 
HETATM    3  N   UNL     1      63.315   9.509   5.553  1.00  0.00    -0.239 N 
ATOM      4  HN  UNL     1      63.735   8.714   6.035  1.00  0.00     0.197 HD
HETATM    5  O   UNL     1      63.080  10.771   6.072  1.00  0.00    -0.156 OA
HETATM    6  N   UNL     1      62.492  11.612   5.142  1.00  0.00    -0.240 N 
ATOM      7  HN  UNL     1      62.222  12.586   5.277  1.00  0.00     0.197 HD
HETATM    8  C   UNL     1      62.874   8.525   3.308  1.00  0.00    -0.031 A 
HETATM    9  C   UNL     1      61.815  10.232   1.818  1.00  0.00     0.003 A 
HETATM   10  C   UNL     1      61.812  11.253   2.785  1.00  0.00     0.034 A 
HETATM   11  C   UNL     1      62.323   8.929   2.068  1.00  0.00     0.009 A 
HETATM   12  C   UNL     1      63.402   7.146   3.529  1.00  0.00     0.050 C 
ENDROOT
TORSDOF 0
ENDMDL
MODEL 4
REMARK VINA RESULT:      -4.8      1.103      2.570
REMARK  0 active torsions:
REMARK  status: ('A' for Active; 'I' for Inactive)
ROOT
HETATM    1  C   UNL     1      62.738   9.003   3.784  1.00  0.00     0.091 A 
HETATM    2  C   UNL     1      62.572  10.257   4.509  1.00  0.00     0.085 A 
HETATM    3  N   UNL     1      63.227   8.092   4.636  1.00  0.00    -0.239 N 
ATOM      4  HN  UNL     1      63.452   7.118   4.433  1.00  0.00     0.197 HD
HETATM    5  O   UNL     1      63.363   8.744   5.850  1.00  0.00    -0.156 OA
HETATM    6  N   UNL     1      62.963  10.068   5.774  1.00  0.00    -0.240 N 
ATOM      7  HN  UNL     1      62.966  10.756   6.527  1.00  0.00     0.197 HD
HETATM    8  C   UNL     1      62.412   8.866   2.414  1.00  0.00    -0.031 A 
HETATM    9  C   UNL     1      61.752  11.276   2.536  1.00  0.00     0.003 A 
HETATM   10  C   UNL     1      62.075  11.422   3.898  1.00  0.00     0.034 A 
HETATM   11  C   UNL     1      61.914  10.056   1.828  1.00  0.00     0.009 A 
HETATM   12  C   UNL     1      62.571   7.605   1.633  1.00  0.00     0.050 C 
ENDROOT
TORSDOF 0
ENDMDL
MODEL 5
REMARK VINA RESULT:      -4.5      2.503      3.855
REMARK  0 active torsions:
REMARK  status: ('A' for Active; 'I' for Inactive)
ROOT
HETATM    1  C   UNL     1      62.654   9.180   3.048  1.00  0.00     0.091 A 
HETATM    2  C   UNL     1      62.043  10.491   3.232  1.00  0.00     0.085 A 
HETATM    3  N   UNL     1      62.308   8.728   1.835  1.00  0.00    -0.239 N 
ATOM      4  HN  UNL     1      62.576   7.840   1.410  1.00  0.00     0.197 HD
HETATM    5  O   UNL     1      61.510   9.712   1.277  1.00  0.00    -0.156 OA
HETATM    6  N   UNL     1      61.347  10.791   2.130  1.00  0.00    -0.240 N 
ATOM      7  HN  UNL     1      60.809  11.639   1.954  1.00  0.00     0.197 HD
HETATM    8  C   UNL     1      63.461   8.569   4.036  1.00  0.00    -0.031 A 
HETATM    9  C   UNL     1      63.016  10.628   5.386  1.00  0.00     0.003 A 
HETATM   10  C   UNL     1      62.212  11.243   4.409  1.00  0.00     0.034 A 
HETATM   11  C   UNL     1      63.612   9.351   5.207  1.00  0.00     0.009 A 
HETATM   12  C   UNL     1      64.101   7.229   3.890  1.00  0.00     0.050 C 
ENDROOT
TORSDOF 0
ENDMDL
MODEL 6
REMARK VINA RESULT:      -4.4      1.908      2.483
REMARK  0 active torsions:
REMARK  status: ('A' for Active; 'I' for Inactive)
ROOT
HETATM    1  C   UNL     1      63.880   8.823   4.594  1.00  0.00     0.091 A 
HETATM    2  C   UNL     1      64.811   7.703   4.517  1.00  0.00     0.085 A 
HETATM    3  N   UNL     1      64.271   9.620   5.596  1.00  0.00    -0.239 N 
ATOM      4  HN  UNL     1      63.827  10.485   5.903  1.00  0.00     0.197 HD
HETATM    5  O   UNL     1      65.403   9.028   6.131  1.00  0.00    -0.156 OA
HETATM    6  N   UNL     1      65.735   7.856   5.473  1.00  0.00    -0.240 N 
ATOM      7  HN  UNL     1      66.521   7.238   5.674  1.00  0.00     0.197 HD
HETATM    8  C   UNL     1      62.779   8.959   3.716  1.00  0.00    -0.031 A 
HETATM    9  C   UNL     1      63.584   6.822   2.694  1.00  0.00     0.003 A 
HETATM   10  C   UNL     1      64.681   6.677   3.563  1.00  0.00     0.034 A 
HETATM   11  C   UNL     1      62.677   7.912   2.768  1.00  0.00     0.009 A 
HETATM   12  C   UNL     1      61.801  10.085   3.762  1.00  0.00     0.050 C 
ENDROOT
TORSDOF 0
ENDMDL
MODEL 7
REMARK VINA RESULT:      -4.3      5.096      6.251
REMARK  0 active torsions:
REMARK  status: ('A' for Active; 'I' for Inactive)
ROOT
HETATM    1  C   UNL     1      65.402   6.952   6.685  1.00  0.00     0.091 A 
HETATM    2  C   UNL     1      66.643   7.262   7.385  1.00  0.00     0.085 A 
HETATM    3  N   UNL     1      64.996   8.059   6.051  1.00  0.00    -0.239 N 
ATOM      4  HN  UNL     1      64.161   8.166   5.474  1.00  0.00     0.197 HD
HETATM    5  O   UNL     1      65.940   9.029   6.339  1.00  0.00    -0.156 OA
HETATM    6  N   UNL     1      66.949   8.544   7.155  1.00  0.00    -0.240 N 
ATOM      7  HN  UNL     1      67.756   9.057   7.507  1.00  0.00     0.197 HD
HETATM    8  C   UNL     1      64.805   5.670   6.726  1.00  0.00    -0.031 A 
HETATM    9  C   UNL     1      66.734   5.037   8.187  1.00  0.00     0.003 A 
HETATM   10  C   UNL     1      67.335   6.308   8.153  1.00  0.00     0.034 A 
HETATM   11  C   UNL     1      65.525   4.733   7.505  1.00  0.00     0.009 A 
HETATM   12  C   UNL     1      63.535   5.311   6.028  1.00  0.00     0.050 C 
ENDROOT
TORSDOF 0
ENDMDL
MODEL 8
REMARK VINA RESULT:      -4.1      3.494      4.486
REMARK  0 active torsions:
REMARK  status: ('A' for Active; 'I' for Inactive)
ROOT
HETATM    1  C   UNL     1      65.402   7.847   5.044  1.00  0.00     0.091 A 
HETATM    2  C   UNL     1      66.740   7.352   5.345  1.00  0.00     0.085 A 
HETATM    3  N   UNL     1      65.143   8.869   5.870  1.00  0.00    -0.239 N 
ATOM      4  HN  UNL     1      64.290   9.427   5.909  1.00  0.00     0.197 HD
HETATM    5  O   UNL     1      66.271   9.014   6.660  1.00  0.00    -0.156 OA
HETATM    6  N   UNL     1      67.249   8.087   6.340  1.00  0.00    -0.240 N 
ATOM      7  HN  UNL     1      68.166   7.986   6.774  1.00  0.00     0.197 HD
HETATM    8  C   UNL     1      64.590   7.281   4.034  1.00  0.00    -0.031 A 
HETATM    9  C   UNL     1      66.504   5.719   3.648  1.00  0.00     0.003 A 
HETATM   10  C   UNL     1      67.319   6.274   4.651  1.00  0.00     0.034 A 
HETATM   11  C   UNL     1      65.201   6.200   3.354  1.00  0.00     0.009 A 
HETATM   12  C   UNL     1      63.215   7.754   3.697  1.00  0.00     0.050 C 
ENDROOT
TORSDOF 0
ENDMDL
MODEL 9
REMARK VINA RESULT:      -4.1      2.320      3.076
REMARK  0 active torsions:
REMARK  status: ('A' for Active; 'I' for Inactive)
ROOT
HETATM    1  C   UNL     1      62.389  10.035   3.472  1.00  0.00     0.091 A 
HETATM    2  C   UNL     1      62.496   8.899   2.564  1.00  0.00     0.085 A 
HETATM    3  N   UNL     1      61.711  11.005   2.845  1.00  0.00    -0.239 N 
ATOM      4  HN  UNL     1      61.471  11.925   3.214  1.00  0.00     0.197 HD
HETATM    5  O   UNL     1      61.403  10.502   1.592  1.00  0.00    -0.156 OA
HETATM    6  N   UNL     1      61.882   9.215   1.418  1.00  0.00    -0.240 N 
ATOM      7  HN  UNL     1      61.787   8.629   0.589  1.00  0.00     0.197 HD
HETATM    8  C   UNL     1      62.938  10.023   4.776  1.00  0.00    -0.031 A 
HETATM    9  C   UNL     1      63.697   7.705   4.218  1.00  0.00     0.003 A 
HETATM   10  C   UNL     1      63.155   7.708   2.920  1.00  0.00     0.034 A 
HETATM   11  C   UNL     1      63.593   8.811   5.104  1.00  0.00     0.009 A 
HETATM   12  C   UNL     1      62.855  11.163   5.735  1.00  0.00     0.050 C 
ENDROOT
TORSDOF 0
ENDMDL
