MODEL 1
REMARK VINA RESULT:      -5.5      0.000      0.000
REMARK  1 active torsions:
REMARK  status: ('A' for Active; 'I' for Inactive)
REMARK    1  A    between atoms: C_2  and  O_10 
ROOT
HETATM    1  C   UNL     1      62.635   9.821   4.081  1.00  0.00     0.080 A 
HETATM    2  C   UNL     1      63.020   9.671   5.407  1.00  0.00     0.156 A 
HETATM    3  N   UNL     1      63.499   8.548   5.959  1.00  0.00    -0.332 N 
ATOM      4  HN  UNL     1      63.769   8.487   6.941  1.00  0.00     0.168 HD
HETATM    5  N   UNL     1      63.255   7.517   3.817  1.00  0.00    -0.351 N 
ATOM      6  HN  UNL     1      63.357   6.682   3.240  1.00  0.00     0.166 HD
HETATM    7  C   UNL     1      63.594   7.515   5.116  1.00  0.00     0.182 A 
HETATM    8  C   UNL     1      62.132  10.997   3.487  1.00  0.00     0.133 A 
HETATM    9  C   UNL     1      62.777   8.664   3.312  1.00  0.00     0.050 A 
HETATM   10  F   UNL     1      62.000  12.125   4.201  1.00  0.00    -0.205 F 
HETATM   11  C   UNL     1      61.889   9.872   1.385  1.00  0.00     0.005 A 
HETATM   12  C   UNL     1      61.759  11.024   2.148  1.00  0.00     0.043 A 
HETATM   13  C   UNL     1      62.400   8.710   1.972  1.00  0.00     0.030 A 
ENDROOT
BRANCH   2  14
HETATM   14  O   UNL     1      62.926  10.689   6.301  1.00  0.00    -0.345 OA
HETATM   15  H   UNL     1      62.430  11.454   6.090  1.00  0.00     0.219 HD
ENDBRANCH   2  14
TORSDOF 1
ENDMDL
MODEL 2
REMARK VINA RESULT:      -5.4      1.350      1.647
REMARK  1 active torsions:
REMARK  status: ('A' for Active; 'I' for Inactive)
REMARK    1  A    between atoms: C_2  and  O_10 
ROOT
HETATM    1  C   UNL     1      62.382   9.884   3.286  1.00  0.00     0.080 A 
HETATM    2  C   UNL     1      62.486  10.658   4.434  1.00  0.00     0.156 A 
HETATM    3  N   UNL     1      62.895  10.224   5.634  1.00  0.00    -0.332 N 
ATOM      4  HN  UNL     1      62.954  10.832   6.451  1.00  0.00     0.168 HD
HETATM    5  N   UNL     1      63.162   8.066   4.645  1.00  0.00    -0.351 N 
ATOM      6  HN  UNL     1      63.426   7.087   4.757  1.00  0.00     0.166 HD
HETATM    7  C   UNL     1      63.219   8.928   5.672  1.00  0.00     0.182 A 
HETATM    8  C   UNL     1      61.955  10.328   2.017  1.00  0.00     0.133 A 
HETATM    9  C   UNL     1      62.743   8.546   3.465  1.00  0.00     0.050 A 
HETATM   10  F   UNL     1      61.618  11.610   1.816  1.00  0.00    -0.205 F 
HETATM   11  C   UNL     1      62.220   8.122   1.119  1.00  0.00     0.005 A 
HETATM   12  C   UNL     1      61.873   9.454   0.940  1.00  0.00     0.043 A 
HETATM   13  C   UNL     1      62.655   7.686   2.374  1.00  0.00     0.030 A 
ENDROOT
BRANCH   2  14
HETATM   14  O   UNL     1      62.153  11.975   4.445  1.00  0.00    -0.345 OA
HETATM   15  H   UNL     1      62.507  12.542   5.102  1.00  0.00     0.219 HD
ENDBRANCH   2  14
TORSDOF 1
ENDMDL
MODEL 3
REMARK VINA RESULT:      -5.2      2.391      3.403
REMARK  1 active torsions:
REMARK  status: ('A' for Active; 'I' for Inactive)
REMARK    1  A    between atoms: C_2  and  O_10 
ROOT
HETATM    1  C   UNL     1      63.888   9.409   4.850  1.00  0.00     0.080 A 
HETATM    2  C   UNL     1      63.623  10.666   5.379  1.00  0.00     0.156 A 
HETATM    3  N   UNL     1      62.616  11.471   5.013  1.00  0.00    -0.332 N 
ATOM      4  HN  UNL     1      62.462  12.388   5.432  1.00  0.00     0.168 HD
HETATM    5  N   UNL     1      61.971   9.780   3.453  1.00  0.00    -0.351 N 
ATOM      6  HN  UNL     1      61.327   9.472   2.725  1.00  0.00     0.166 HD
HETATM    7  C   UNL     1      61.830  10.971   4.054  1.00  0.00     0.182 A 
HETATM    8  C   UNL     1      64.943   8.552   5.227  1.00  0.00     0.133 A 
HETATM    9  C   UNL     1      62.996   9.012   3.851  1.00  0.00     0.050 A 
HETATM   10  F   UNL     1      65.803   8.905   6.194  1.00  0.00    -0.205 F 
HETATM   11  C   UNL     1      64.243   6.927   3.610  1.00  0.00     0.005 A 
HETATM   12  C   UNL     1      65.121   7.319   4.611  1.00  0.00     0.043 A 
HETATM   13  C   UNL     1      63.191   7.773   3.246  1.00  0.00     0.030 A 
ENDROOT
BRANCH   2  14
HETATM   14  O   UNL     1      64.403  11.219   6.343  1.00  0.00    -0.345 OA
HETATM   15  H   UNL     1      64.425  10.843   7.201  1.00  0.00     0.219 HD
ENDBRANCH   2  14
TORSDOF 1
ENDMDL
MODEL 4
REMARK VINA RESULT:      -5.2      2.305      2.927
REMARK  1 active torsions:
REMARK  status: ('A' for Active; 'I' for Inactive)
REMARK    1  A    between atoms: C_2  and  O_10 
ROOT
HETATM    1  C   UNL     1      62.894   9.067   3.738  1.00  0.00     0.080 A 
HETATM    2  C   UNL     1      63.327   9.259   5.044  1.00  0.00     0.156 A 
HETATM    3  N   UNL     1      63.153  10.374   5.767  1.00  0.00    -0.332 N 
ATOM      4  HN  UNL     1      63.491  10.468   6.726  1.00  0.00     0.168 HD
HETATM    5  N   UNL     1      62.032  11.303   3.873  1.00  0.00    -0.351 N 
ATOM      6  HN  UNL     1      61.543  12.096   3.458  1.00  0.00     0.166 HD
HETATM    7  C   UNL     1      62.500  11.350   5.130  1.00  0.00     0.182 A 
HETATM    8  C   UNL     1      63.069   7.899   2.966  1.00  0.00     0.133 A 
HETATM    9  C   UNL     1      62.234  10.168   3.188  1.00  0.00     0.050 A 
HETATM   10  F   UNL     1      63.686   6.824   3.477  1.00  0.00    -0.205 F 
HETATM   11  C   UNL     1      61.961   8.924   1.105  1.00  0.00     0.005 A 
HETATM   12  C   UNL     1      62.607   7.827   1.658  1.00  0.00     0.043 A 
HETATM   13  C   UNL     1      61.777  10.077   1.876  1.00  0.00     0.030 A 
ENDROOT
BRANCH   2  14
HETATM   14  O   UNL     1      64.007   8.301   5.724  1.00  0.00    -0.345 OA
HETATM   15  H   UNL     1      63.666   7.966   6.530  1.00  0.00     0.219 HD
ENDBRANCH   2  14
TORSDOF 1
ENDMDL
MODEL 5
REMARK VINA RESULT:      -4.9      1.968      3.304
REMARK  1 active torsions:
REMARK  status: ('A' for Active; 'I' for Inactive)
REMARK    1  A    between atoms: C_2  and  O_10 
ROOT
HETATM    1  C   UNL     1      62.773   9.485   3.714  1.00  0.00     0.080 A 
HETATM    2  C   UNL     1      61.959  10.499   3.224  1.00  0.00     0.156 A 
HETATM    3  N   UNL     1      61.315  10.484   2.050  1.00  0.00    -0.332 N 
ATOM      4  HN  UNL     1      60.728  11.255   1.732  1.00  0.00     0.168 HD
HETATM    5  N   UNL     1      62.265   8.324   1.676  1.00  0.00    -0.351 N 
ATOM      6  HN  UNL     1      62.360   7.512   1.066  1.00  0.00     0.166 HD
HETATM    7  C   UNL     1      61.505   9.374   1.329  1.00  0.00     0.182 A 
HETATM    8  C   UNL     1      63.455   9.488   4.949  1.00  0.00     0.133 A 
HETATM    9  C   UNL     1      62.893   8.387   2.859  1.00  0.00     0.050 A 
HETATM   10  F   UNL     1      63.344  10.523   5.794  1.00  0.00    -0.205 F 
HETATM   11  C   UNL     1      64.389   7.332   4.474  1.00  0.00     0.005 A 
HETATM   12  C   UNL     1      64.260   8.419   5.327  1.00  0.00     0.043 A 
HETATM   13  C   UNL     1      63.702   7.326   3.256  1.00  0.00     0.030 A 
ENDROOT
BRANCH   2  14
HETATM   14  O   UNL     1      61.750  11.649   3.915  1.00  0.00    -0.345 OA
HETATM   15  H   UNL     1      61.137  11.666   4.623  1.00  0.00     0.219 HD
ENDBRANCH   2  14
TORSDOF 1
ENDMDL
MODEL 6
REMARK VINA RESULT:      -4.9      2.215      2.865
REMARK  1 active torsions:
REMARK  status: ('A' for Active; 'I' for Inactive)
REMARK    1  A    between atoms: C_2  and  O_10 
ROOT
HETATM    1  C   UNL     1      62.754   8.943   3.150  1.00  0.00     0.080 A 
HETATM    2  C   UNL     1      63.256   7.650   3.221  1.00  0.00     0.156 A 
HETATM    3  N   UNL     1      63.719   7.053   4.327  1.00  0.00    -0.332 N 
ATOM      4  HN  UNL     1      64.079   6.098   4.329  1.00  0.00     0.168 HD
HETATM    5  N   UNL     1      63.218   9.071   5.502  1.00  0.00    -0.351 N 
ATOM      6  HN  UNL     1      63.216   9.584   6.384  1.00  0.00     0.166 HD
HETATM    7  C   UNL     1      63.671   7.810   5.427  1.00  0.00     0.182 A 
HETATM    8  C   UNL     1      62.262   9.584   1.994  1.00  0.00     0.133 A 
HETATM    9  C   UNL     1      62.767   9.628   4.368  1.00  0.00     0.050 A 
HETATM   10  F   UNL     1      62.224   8.943   0.817  1.00  0.00    -0.205 F 
HETATM   11  C   UNL     1      61.823  11.579   3.246  1.00  0.00     0.005 A 
HETATM   12  C   UNL     1      61.800  10.894   2.040  1.00  0.00     0.043 A 
HETATM   13  C   UNL     1      62.300  10.939   4.394  1.00  0.00     0.030 A 
ENDROOT
BRANCH   2  14
HETATM   14  O   UNL     1      63.338   6.851   2.127  1.00  0.00    -0.345 OA
HETATM   15  H   UNL     1      63.565   5.947   2.223  1.00  0.00     0.219 HD
ENDBRANCH   2  14
TORSDOF 1
ENDMDL
MODEL 7
REMARK VINA RESULT:      -4.6      2.636      3.589
REMARK  1 active torsions:
REMARK  status: ('A' for Active; 'I' for Inactive)
REMARK    1  A    between atoms: C_2  and  O_10 
ROOT
HETATM    1  C   UNL     1      62.836   8.893   3.383  1.00  0.00     0.080 A 
HETATM    2  C   UNL     1      63.054   7.699   2.708  1.00  0.00     0.156 A 
HETATM    3  N   UNL     1      62.673   7.433   1.451  1.00  0.00    -0.332 N 
ATOM      4  HN  UNL     1      62.856   6.538   0.997  1.00  0.00     0.168 HD
HETATM    5  N   UNL     1      61.751   9.635   1.375  1.00  0.00    -0.351 N 
ATOM      6  HN  UNL     1      61.256  10.350   0.842  1.00  0.00     0.166 HD
HETATM    7  C   UNL     1      62.033   8.436   0.843  1.00  0.00     0.182 A 
HETATM    8  C   UNL     1      63.233   9.188   4.704  1.00  0.00     0.133 A 
HETATM    9  C   UNL     1      62.150   9.854   2.636  1.00  0.00     0.050 A 
HETATM   10  F   UNL     1      63.905   8.288   5.437  1.00  0.00    -0.205 F 
HETATM   11  C   UNL     1      62.250  11.368   4.548  1.00  0.00     0.005 A 
HETATM   12  C   UNL     1      62.941  10.416   5.285  1.00  0.00     0.043 A 
HETATM   13  C   UNL     1      61.868  11.079   3.235  1.00  0.00     0.030 A 
ENDROOT
BRANCH   2  14
HETATM   14  O   UNL     1      63.686   6.649   3.292  1.00  0.00    -0.345 OA
HETATM   15  H   UNL     1      63.958   5.918   2.772  1.00  0.00     0.219 HD
ENDBRANCH   2  14
TORSDOF 1
ENDMDL
MODEL 8
REMARK VINA RESULT:      -4.5      2.213      3.372
REMARK  1 active torsions:
REMARK  status: ('A' for Active; 'I' for Inactive)
REMARK    1  A    between atoms: C_2  and  O_10 
ROOT
HETATM    1  C   UNL     1      62.909   8.664   3.678  1.00  0.00     0.080 A 
HETATM    2  C   UNL     1      61.755   9.330   3.283  1.00  0.00     0.156 A 
HETATM    3  N   UNL     1      60.928   8.943   2.303  1.00  0.00    -0.332 N 
ATOM      4  HN  UNL     1      60.090   9.467   2.049  1.00  0.00     0.168 HD
HETATM    5  N   UNL     1      62.378   7.076   1.959  1.00  0.00    -0.351 N 
ATOM      6  HN  UNL     1      62.586   6.224   1.437  1.00  0.00     0.166 HD
HETATM    7  C   UNL     1      61.291   7.815   1.686  1.00  0.00     0.182 A 
HETATM    8  C   UNL     1      63.787   9.059   4.708  1.00  0.00     0.133 A 
HETATM    9  C   UNL     1      63.177   7.505   2.946  1.00  0.00     0.050 A 
HETATM   10  F   UNL     1      63.544  10.159   5.435  1.00  0.00    -0.205 F 
HETATM   11  C   UNL     1      65.201   7.174   4.270  1.00  0.00     0.005 A 
HETATM   12  C   UNL     1      64.927   8.320   5.003  1.00  0.00     0.043 A 
HETATM   13  C   UNL     1      64.323   6.777   3.256  1.00  0.00     0.030 A 
ENDROOT
BRANCH   2  14
HETATM   14  O   UNL     1      61.357  10.487   3.872  1.00  0.00    -0.345 OA
HETATM   15  H   UNL     1      60.952  11.158   3.358  1.00  0.00     0.219 HD
ENDBRANCH   2  14
TORSDOF 1
ENDMDL
MODEL 9
REMARK VINA RESULT:      -4.5      3.106      4.719
REMARK  1 active torsions:
REMARK  status: ('A' for Active; 'I' for Inactive)
REMARK    1  A    between atoms: C_2  and  O_10 
ROOT
HETATM    1  C   UNL     1      65.519   7.899   5.062  1.00  0.00     0.080 A 
HETATM    2  C   UNL     1      64.512   8.855   5.019  1.00  0.00     0.156 A 
HETATM    3  N   UNL     1      63.466   8.849   4.181  1.00  0.00    -0.332 N 
ATOM      4  HN  UNL     1      62.750   9.576   4.187  1.00  0.00     0.168 HD
HETATM    5  N   UNL     1      64.344   6.825   3.266  1.00  0.00    -0.351 N 
ATOM      6  HN  UNL     1      64.251   6.067   2.589  1.00  0.00     0.166 HD
HETATM    7  C   UNL     1      63.439   7.813   3.338  1.00  0.00     0.182 A 
HETATM    8  C   UNL     1      66.623   7.891   5.939  1.00  0.00     0.133 A 
HETATM    9  C   UNL     1      65.374   6.875   4.123  1.00  0.00     0.050 A 
HETATM   10  F   UNL     1      66.776   8.854   6.860  1.00  0.00    -0.205 F 
HETATM   11  C   UNL     1      67.447   5.876   4.937  1.00  0.00     0.005 A 
HETATM   12  C   UNL     1      67.583   6.888   5.878  1.00  0.00     0.043 A 
HETATM   13  C   UNL     1      66.345   5.879   4.076  1.00  0.00     0.030 A 
ENDROOT
BRANCH   2  14
HETATM   14  O   UNL     1      64.508   9.931   5.846  1.00  0.00    -0.345 OA
HETATM   15  H   UNL     1      65.156  10.009   6.518  1.00  0.00     0.219 HD
ENDBRANCH   2  14
TORSDOF 1
ENDMDL
