MODEL 1
REMARK VINA RESULT:      -3.9      0.000      0.000
REMARK  1 active torsions:
REMARK  status: ('A' for Active; 'I' for Inactive)
REMARK    1  A    between atoms: C_1  and  C_3 
ROOT
HETATM    1  C   UNL     1      62.124   9.895   4.015  1.00  0.00     0.026 A 
HETATM    2  N   UNL     1      61.947   7.678   4.272  1.00  0.00    -0.374 N 
HETATM    3  C   UNL     1      61.452   8.761   3.590  1.00  0.00     0.102 A 
HETATM    4  C   UNL     1      63.058   9.455   4.997  1.00  0.00     0.033 A 
HETATM    5  C   UNL     1      62.927   8.092   5.133  1.00  0.00     0.088 A 
HETATM    6  H   UNL     1      61.645   6.748   4.159  1.00  0.00     0.164 HD
ENDROOT
BRANCH   1   7
HETATM    7  C   UNL     1      61.923  11.270   3.554  1.00  0.00     0.157 C 
HETATM    8  O   UNL     1      61.859  12.205   4.353  1.00  0.00    -0.293 OA
HETATM    9  C   UNL     1      61.793  11.526   2.074  1.00  0.00     0.097 C 
ENDBRANCH   1   7
TORSDOF 1
ENDMDL
MODEL 2
REMARK VINA RESULT:      -3.8      1.731      1.960
REMARK  1 active torsions:
REMARK  status: ('A' for Active; 'I' for Inactive)
REMARK    1  A    between atoms: C_1  and  C_3 
ROOT
HETATM    1  C   UNL     1      62.411  10.202   3.675  1.00  0.00     0.026 A 
HETATM    2  N   UNL     1      62.993  10.144   5.837  1.00  0.00    -0.374 N 
HETATM    3  C   UNL     1      62.541  10.958   4.829  1.00  0.00     0.102 A 
HETATM    4  C   UNL     1      62.808   8.878   4.024  1.00  0.00     0.033 A 
HETATM    5  C   UNL     1      63.159   8.874   5.355  1.00  0.00     0.088 A 
HETATM    6  H   UNL     1      63.169  10.429   6.762  1.00  0.00     0.164 HD
ENDROOT
BRANCH   1   7
HETATM    7  C   UNL     1      61.957  10.659   2.361  1.00  0.00     0.157 C 
HETATM    8  O   UNL     1      61.880  11.860   2.097  1.00  0.00    -0.293 OA
HETATM    9  C   UNL     1      61.581   9.629   1.326  1.00  0.00     0.097 C 
ENDBRANCH   1   7
TORSDOF 1
ENDMDL
MODEL 3
REMARK VINA RESULT:      -3.8      2.092      3.399
REMARK  1 active torsions:
REMARK  status: ('A' for Active; 'I' for Inactive)
REMARK    1  A    between atoms: C_1  and  C_3 
ROOT
HETATM    1  C   UNL     1      62.691   9.609   3.962  1.00  0.00     0.026 A 
HETATM    2  N   UNL     1      61.526  10.956   2.604  1.00  0.00    -0.374 N 
HETATM    3  C   UNL     1      62.059  10.838   3.864  1.00  0.00     0.102 A 
HETATM    4  C   UNL     1      62.519   8.974   2.698  1.00  0.00     0.033 A 
HETATM    5  C   UNL     1      61.801   9.823   1.886  1.00  0.00     0.088 A 
HETATM    6  H   UNL     1      61.025  11.734   2.269  1.00  0.00     0.164 HD
ENDROOT
BRANCH   1   7
HETATM    7  C   UNL     1      63.397   9.065   5.124  1.00  0.00     0.157 C 
HETATM    8  O   UNL     1      64.430   9.588   5.543  1.00  0.00    -0.293 OA
HETATM    9  C   UNL     1      62.835   7.842   5.804  1.00  0.00     0.097 C 
ENDBRANCH   1   7
TORSDOF 1
ENDMDL
MODEL 4
REMARK VINA RESULT:      -3.7      1.627      2.644
REMARK  1 active torsions:
REMARK  status: ('A' for Active; 'I' for Inactive)
REMARK    1  A    between atoms: C_1  and  C_3 
ROOT
HETATM    1  C   UNL     1      62.287   9.861   2.962  1.00  0.00     0.026 A 
HETATM    2  N   UNL     1      62.498   7.956   1.804  1.00  0.00    -0.374 N 
HETATM    3  C   UNL     1      62.687   8.537   3.033  1.00  0.00     0.102 A 
HETATM    4  C   UNL     1      61.842  10.068   1.623  1.00  0.00     0.033 A 
HETATM    5  C   UNL     1      61.984   8.883   0.937  1.00  0.00     0.088 A 
HETATM    6  H   UNL     1      62.700   7.019   1.580  1.00  0.00     0.164 HD
ENDROOT
BRANCH   1   7
HETATM    7  C   UNL     1      62.310  10.854   4.037  1.00  0.00     0.157 C 
HETATM    8  O   UNL     1      61.861  11.987   3.866  1.00  0.00    -0.293 OA
HETATM    9  C   UNL     1      62.902  10.464   5.369  1.00  0.00     0.097 C 
ENDBRANCH   1   7
TORSDOF 1
ENDMDL
MODEL 5
REMARK VINA RESULT:      -3.6      2.530      2.908
REMARK  1 active torsions:
REMARK  status: ('A' for Active; 'I' for Inactive)
REMARK    1  A    between atoms: C_1  and  C_3 
ROOT
HETATM    1  C   UNL     1      62.375   9.723   3.499  1.00  0.00     0.026 A 
HETATM    2  N   UNL     1      62.329  11.621   4.686  1.00  0.00    -0.374 N 
HETATM    3  C   UNL     1      61.954  11.043   3.499  1.00  0.00     0.102 A 
HETATM    4  C   UNL     1      63.033   9.518   4.747  1.00  0.00     0.033 A 
HETATM    5  C   UNL     1      62.990  10.700   5.452  1.00  0.00     0.088 A 
HETATM    6  H   UNL     1      62.152  12.554   4.945  1.00  0.00     0.164 HD
ENDROOT
BRANCH   1   7
HETATM    7  C   UNL     1      62.187   8.732   2.438  1.00  0.00     0.157 C 
HETATM    8  O   UNL     1      62.066   7.535   2.701  1.00  0.00    -0.293 OA
HETATM    9  C   UNL     1      62.145   9.203   1.007  1.00  0.00     0.097 C 
ENDBRANCH   1   7
TORSDOF 1
ENDMDL
MODEL 6
REMARK VINA RESULT:      -3.4      1.853      2.429
REMARK  1 active torsions:
REMARK  status: ('A' for Active; 'I' for Inactive)
REMARK    1  A    between atoms: C_1  and  C_3 
ROOT
HETATM    1  C   UNL     1      63.543   9.183   4.632  1.00  0.00     0.026 A 
HETATM    2  N   UNL     1      64.925   7.428   4.468  1.00  0.00    -0.374 N 
HETATM    3  C   UNL     1      64.691   8.600   5.143  1.00  0.00     0.102 A 
HETATM    4  C   UNL     1      63.082   8.311   3.603  1.00  0.00     0.033 A 
HETATM    5  C   UNL     1      63.949   7.245   3.525  1.00  0.00     0.088 A 
HETATM    6  H   UNL     1      65.676   6.816   4.634  1.00  0.00     0.164 HD
ENDROOT
BRANCH   1   7
HETATM    7  C   UNL     1      62.921  10.438   5.056  1.00  0.00     0.157 C 
HETATM    8  O   UNL     1      63.104  10.888   6.188  1.00  0.00    -0.293 OA
HETATM    9  C   UNL     1      62.044  11.178   4.077  1.00  0.00     0.097 C 
ENDBRANCH   1   7
TORSDOF 1
ENDMDL
MODEL 7
REMARK VINA RESULT:      -3.4      1.964      3.306
REMARK  1 active torsions:
REMARK  status: ('A' for Active; 'I' for Inactive)
REMARK    1  A    between atoms: C_1  and  C_3 
ROOT
HETATM    1  C   UNL     1      62.317   9.602   3.830  1.00  0.00     0.026 A 
HETATM    2  N   UNL     1      61.667  10.352   1.823  1.00  0.00    -0.374 N 
HETATM    3  C   UNL     1      62.012   9.229   2.531  1.00  0.00     0.102 A 
HETATM    4  C   UNL     1      62.144  11.016   3.886  1.00  0.00     0.033 A 
HETATM    5  C   UNL     1      61.745  11.448   2.641  1.00  0.00     0.088 A 
HETATM    6  H   UNL     1      61.404  10.369   0.875  1.00  0.00     0.164 HD
ENDROOT
BRANCH   1   7
HETATM    7  C   UNL     1      62.733   8.730   4.930  1.00  0.00     0.157 C 
HETATM    8  O   UNL     1      63.332   9.180   5.907  1.00  0.00    -0.293 OA
HETATM    9  C   UNL     1      62.415   7.258   4.845  1.00  0.00     0.097 C 
ENDBRANCH   1   7
TORSDOF 1
ENDMDL
MODEL 8
REMARK VINA RESULT:      -3.4      5.542      6.147
REMARK  1 active torsions:
REMARK  status: ('A' for Active; 'I' for Inactive)
REMARK    1  A    between atoms: C_1  and  C_3 
ROOT
HETATM    1  C   UNL     1      66.372   6.884   7.099  1.00  0.00     0.026 A 
HETATM    2  N   UNL     1      65.823   4.953   8.091  1.00  0.00    -0.374 N 
HETATM    3  C   UNL     1      65.699   5.684   6.936  1.00  0.00     0.102 A 
HETATM    4  C   UNL     1      66.915   6.857   8.417  1.00  0.00     0.033 A 
HETATM    5  C   UNL     1      66.561   5.662   9.001  1.00  0.00     0.088 A 
HETATM    6  H   UNL     1      65.440   4.059   8.243  1.00  0.00     0.164 HD
ENDROOT
BRANCH   1   7
HETATM    7  C   UNL     1      66.504   7.966   6.122  1.00  0.00     0.157 C 
HETATM    8  O   UNL     1      65.871   9.015   6.245  1.00  0.00    -0.293 OA
HETATM    9  C   UNL     1      67.435   7.774   4.951  1.00  0.00     0.097 C 
ENDBRANCH   1   7
TORSDOF 1
ENDMDL
MODEL 9
REMARK VINA RESULT:      -3.3      3.780      4.851
REMARK  1 active torsions:
REMARK  status: ('A' for Active; 'I' for Inactive)
REMARK    1  A    between atoms: C_1  and  C_3 
ROOT
HETATM    1  C   UNL     1      65.530   7.785   6.155  1.00  0.00     0.026 A 
HETATM    2  N   UNL     1      67.325   7.077   7.290  1.00  0.00    -0.374 N 
HETATM    3  C   UNL     1      66.874   8.015   6.396  1.00  0.00     0.102 A 
HETATM    4  C   UNL     1      65.175   6.653   6.945  1.00  0.00     0.033 A 
HETATM    5  C   UNL     1      66.296   6.241   7.630  1.00  0.00     0.088 A 
HETATM    6  H   UNL     1      68.245   7.014   7.634  1.00  0.00     0.164 HD
ENDROOT
BRANCH   1   7
HETATM    7  C   UNL     1      64.645   8.544   5.270  1.00  0.00     0.157 C 
HETATM    8  O   UNL     1      64.403   9.733   5.480  1.00  0.00    -0.293 OA
HETATM    9  C   UNL     1      64.025   7.840   4.089  1.00  0.00     0.097 C 
ENDBRANCH   1   7
TORSDOF 1
ENDMDL
