MODEL 1
REMARK VINA RESULT:      -4.3      0.000      0.000
REMARK  4 active torsions:
REMARK  status: ('A' for Active; 'I' for Inactive)
REMARK    1  A    between atoms: C_1  and  C_2 
REMARK    2  A    between atoms: C_1  and  N_3 
REMARK    3  A    between atoms: C_1  and  C_7 
REMARK    4  A    between atoms: N_4  and  C_7 
ROOT
HETATM    1  C   UNL     1      63.465   7.802   5.915  1.00  0.00     0.315 C 
ENDROOT
BRANCH   1   2
HETATM    2  C   UNL     1      62.938   8.921   5.033  1.00  0.00     0.026 A 
HETATM    3  S   UNL     1      62.309   8.558   3.474  1.00  0.00    -0.103 SA
HETATM    4  C   UNL     1      61.947  10.199   3.162  1.00  0.00     0.050 A 
HETATM    5  C   UNL     1      62.302  11.014   4.210  1.00  0.00     0.008 A 
HETATM    6  C   UNL     1      62.865  10.280   5.294  1.00  0.00     0.018 A 
ENDBRANCH   1   2
BRANCH   1   7
HETATM    7  N   UNL     1      64.591   7.066   5.260  1.00  0.00    -0.047 N 
HETATM    8  C   UNL     1      65.798   7.911   5.087  1.00  0.00     0.263 C 
HETATM    9  C   UNL     1      66.506   8.256   6.408  1.00  0.00     0.195 C 
HETATM   10  O   UNL     1      66.846   7.079   7.152  1.00  0.00    -0.388 OA
HETATM   11  C   UNL     1      65.705   6.240   7.375  1.00  0.00     0.195 C 
HETATM   12  C   UNL     1      65.024   5.878   6.045  1.00  0.00     0.263 C 
HETATM   13  H   UNL     1      64.215   6.786   4.355  1.00  0.00     0.282 HD
ENDBRANCH   1   7
BRANCH   1  14
HETATM   14  C   UNL     1      62.295   6.879   6.218  1.00  0.00    -0.038 C 
BRANCH  14  15
HETATM   15  N   UNL     1      61.325   6.115   6.470  1.00  0.00    -0.368 N 
ATOM     16  HN2 UNL     1      62.123   6.730   6.309  1.00  0.00     0.165 HD
ATOM     17  HN1 UNL     1      60.540   5.498   6.673  1.00  0.00     0.165 HD
ENDBRANCH  14  15
ENDBRANCH   1  14
TORSDOF 4
ENDMDL
MODEL 2
REMARK VINA RESULT:      -4.1      3.011      4.934
REMARK  4 active torsions:
REMARK  status: ('A' for Active; 'I' for Inactive)
REMARK    1  A    between atoms: C_1  and  C_2 
REMARK    2  A    between atoms: C_1  and  N_3 
REMARK    3  A    between atoms: C_1  and  C_7 
REMARK    4  A    between atoms: N_4  and  C_7 
ROOT
HETATM    1  C   UNL     1      63.236   8.677   4.939  1.00  0.00     0.315 C 
ENDROOT
BRANCH   1   2
HETATM    2  C   UNL     1      64.489   8.014   5.487  1.00  0.00     0.026 A 
HETATM    3  S   UNL     1      64.353   6.622   6.487  1.00  0.00    -0.103 SA
HETATM    4  C   UNL     1      66.048   6.492   6.657  1.00  0.00     0.050 A 
HETATM    5  C   UNL     1      66.712   7.487   5.980  1.00  0.00     0.008 A 
HETATM    6  C   UNL     1      65.817   8.362   5.297  1.00  0.00     0.018 A 
ENDBRANCH   1   2
BRANCH   1   7
HETATM    7  N   UNL     1      63.195   8.630   3.444  1.00  0.00    -0.047 N 
HETATM    8  C   UNL     1      63.298   7.248   2.915  1.00  0.00     0.263 C 
HETATM    9  C   UNL     1      62.054   6.386   3.192  1.00  0.00     0.195 C 
HETATM   10  O   UNL     1      60.859   7.003   2.696  1.00  0.00    -0.388 OA
HETATM   11  C   UNL     1      60.695   8.334   3.202  1.00  0.00     0.195 C 
HETATM   12  C   UNL     1      61.932   9.194   2.893  1.00  0.00     0.263 C 
HETATM   13  H   UNL     1      63.998   9.187   3.153  1.00  0.00     0.282 HD
ENDBRANCH   1   7
BRANCH   1  14
HETATM   14  C   UNL     1      63.223  10.108   5.454  1.00  0.00    -0.038 C 
BRANCH  14  15
HETATM   15  N   UNL     1      63.212  11.293   5.882  1.00  0.00    -0.368 N 
ATOM     16  HN2 UNL     1      63.187  10.325   5.563  1.00  0.00     0.165 HD
ATOM     17  HN1 UNL     1      63.204  12.252   6.228  1.00  0.00     0.165 HD
ENDBRANCH  14  15
ENDBRANCH   1  14
TORSDOF 4
ENDMDL
MODEL 3
REMARK VINA RESULT:      -4.1      3.041      5.654
REMARK  4 active torsions:
REMARK  status: ('A' for Active; 'I' for Inactive)
REMARK    1  A    between atoms: C_1  and  C_2 
REMARK    2  A    between atoms: C_1  and  N_3 
REMARK    3  A    between atoms: C_1  and  C_7 
REMARK    4  A    between atoms: N_4  and  C_7 
ROOT
HETATM    1  C   UNL     1      66.098   7.149   6.053  1.00  0.00     0.315 C 
ENDROOT
BRANCH   1   2
HETATM    2  C   UNL     1      66.796   6.467   7.218  1.00  0.00     0.026 A 
HETATM    3  S   UNL     1      67.567   4.948   6.983  1.00  0.00    -0.103 SA
HETATM    4  C   UNL     1      68.074   4.875   8.613  1.00  0.00     0.050 A 
HETATM    5  C   UNL     1      67.664   5.972   9.331  1.00  0.00     0.008 A 
HETATM    6  C   UNL     1      66.934   6.897   8.528  1.00  0.00     0.018 A 
ENDBRANCH   1   2
BRANCH   1   7
HETATM    7  N   UNL     1      65.118   6.237   5.386  1.00  0.00    -0.047 N 
HETATM    8  C   UNL     1      63.887   6.038   6.188  1.00  0.00     0.263 C 
HETATM    9  C   UNL     1      62.995   7.289   6.272  1.00  0.00     0.195 C 
HETATM   10  O   UNL     1      62.647   7.780   4.970  1.00  0.00    -0.388 OA
HETATM   11  C   UNL     1      63.806   8.018   4.162  1.00  0.00     0.195 C 
HETATM   12  C   UNL     1      64.674   6.753   4.062  1.00  0.00     0.263 C 
HETATM   13  H   UNL     1      65.625   5.358   5.281  1.00  0.00     0.282 HD
ENDBRANCH   1   7
BRANCH   1  14
HETATM   14  C   UNL     1      67.179   7.612   5.089  1.00  0.00    -0.038 C 
BRANCH  14  15
HETATM   15  N   UNL     1      68.075   7.995   4.289  1.00  0.00    -0.368 N 
ATOM     16  HN2 UNL     1      67.378   7.695   4.971  1.00  0.00     0.165 HD
ATOM     17  HN1 UNL     1      68.799   8.304   3.642  1.00  0.00     0.165 HD
ENDBRANCH  14  15
ENDBRANCH   1  14
TORSDOF 4
ENDMDL
MODEL 4
REMARK VINA RESULT:      -4.0      2.566      3.791
REMARK  4 active torsions:
REMARK  status: ('A' for Active; 'I' for Inactive)
REMARK    1  A    between atoms: C_1  and  C_2 
REMARK    2  A    between atoms: C_1  and  N_3 
REMARK    3  A    between atoms: C_1  and  C_7 
REMARK    4  A    between atoms: N_4  and  C_7 
ROOT
HETATM    1  C   UNL     1      63.008   7.735   4.331  1.00  0.00     0.315 C 
ENDROOT
BRANCH   1   2
HETATM    2  C   UNL     1      62.561   8.857   3.409  1.00  0.00     0.026 A 
HETATM    3  S   UNL     1      62.179  10.401   4.062  1.00  0.00    -0.103 SA
HETATM    4  C   UNL     1      61.815  11.041   2.520  1.00  0.00     0.050 A 
HETATM    5  C   UNL     1      61.969  10.107   1.524  1.00  0.00     0.008 A 
HETATM    6  C   UNL     1      62.407   8.848   2.031  1.00  0.00     0.018 A 
ENDBRANCH   1   2
BRANCH   1   7
HETATM    7  N   UNL     1      61.895   7.274   5.218  1.00  0.00    -0.047 N 
HETATM    8  C   UNL     1      60.769   6.680   4.458  1.00  0.00     0.263 C 
HETATM    9  C   UNL     1      61.106   5.323   3.813  1.00  0.00     0.195 C 
HETATM   10  O   UNL     1      61.585   4.380   4.781  1.00  0.00    -0.388 OA
HETATM   11  C   UNL     1      62.696   4.895   5.525  1.00  0.00     0.195 C 
HETATM   12  C   UNL     1      62.338   6.235   6.189  1.00  0.00     0.263 C 
HETATM   13  H   UNL     1      61.595   8.119   5.703  1.00  0.00     0.282 HD
ENDBRANCH   1   7
BRANCH   1  14
HETATM   14  C   UNL     1      64.187   8.257   5.136  1.00  0.00    -0.038 C 
BRANCH  14  15
HETATM   15  N   UNL     1      65.164   8.690   5.805  1.00  0.00    -0.368 N 
ATOM     16  HN2 UNL     1      64.356   8.324   5.302  1.00  0.00     0.165 HD
ATOM     17  HN1 UNL     1      65.954   9.041   6.345  1.00  0.00     0.165 HD
ENDBRANCH  14  15
ENDBRANCH   1  14
TORSDOF 4
ENDMDL
MODEL 5
REMARK VINA RESULT:      -4.0      2.680      4.836
REMARK  4 active torsions:
REMARK  status: ('A' for Active; 'I' for Inactive)
REMARK    1  A    between atoms: C_1  and  C_2 
REMARK    2  A    between atoms: C_1  and  N_3 
REMARK    3  A    between atoms: C_1  and  C_7 
REMARK    4  A    between atoms: N_4  and  C_7 
ROOT
HETATM    1  C   UNL     1      63.953   8.080   4.185  1.00  0.00     0.315 C 
ENDROOT
BRANCH   1   2
HETATM    2  C   UNL     1      64.868   7.662   5.324  1.00  0.00     0.026 A 
HETATM    3  S   UNL     1      64.469   6.290   6.283  1.00  0.00    -0.103 SA
HETATM    4  C   UNL     1      65.871   6.466   7.243  1.00  0.00     0.050 A 
HETATM    5  C   UNL     1      66.628   7.547   6.858  1.00  0.00     0.008 A 
HETATM    6  C   UNL     1      66.057   8.234   5.746  1.00  0.00     0.018 A 
ENDBRANCH   1   2
BRANCH   1   7
HETATM    7  N   UNL     1      62.564   8.355   4.665  1.00  0.00    -0.047 N 
HETATM    8  C   UNL     1      62.515   9.432   5.684  1.00  0.00     0.263 C 
HETATM    9  C   UNL     1      62.829  10.829   5.122  1.00  0.00     0.195 C 
HETATM   10  O   UNL     1      61.969  11.165   4.025  1.00  0.00    -0.388 OA
HETATM   11  C   UNL     1      62.002  10.169   2.995  1.00  0.00     0.195 C 
HETATM   12  C   UNL     1      61.658   8.782   3.564  1.00  0.00     0.263 C 
HETATM   13  H   UNL     1      62.256   7.468   5.064  1.00  0.00     0.282 HD
ENDBRANCH   1   7
BRANCH   1  14
HETATM   14  C   UNL     1      63.979   6.963   3.155  1.00  0.00    -0.038 C 
BRANCH  14  15
HETATM   15  N   UNL     1      64.000   6.036   2.301  1.00  0.00    -0.368 N 
ATOM     16  HN2 UNL     1      64.027   6.791   2.985  1.00  0.00     0.165 HD
ATOM     17  HN1 UNL     1      64.017   5.285   1.611  1.00  0.00     0.165 HD
ENDBRANCH  14  15
ENDBRANCH   1  14
TORSDOF 4
ENDMDL
MODEL 6
REMARK VINA RESULT:      -4.0      3.599      5.376
REMARK  4 active torsions:
REMARK  status: ('A' for Active; 'I' for Inactive)
REMARK    1  A    between atoms: C_1  and  C_2 
REMARK    2  A    between atoms: C_1  and  N_3 
REMARK    3  A    between atoms: C_1  and  C_7 
REMARK    4  A    between atoms: N_4  and  C_7 
ROOT
HETATM    1  C   UNL     1      62.274   8.773   3.582  1.00  0.00     0.315 C 
ENDROOT
BRANCH   1   2
HETATM    2  C   UNL     1      63.237   8.196   4.606  1.00  0.00     0.026 A 
HETATM    3  S   UNL     1      62.690   7.005   5.720  1.00  0.00    -0.103 SA
HETATM    4  C   UNL     1      64.231   6.878   6.448  1.00  0.00     0.050 A 
HETATM    5  C   UNL     1      65.146   7.725   5.871  1.00  0.00     0.008 A 
HETATM    6  C   UNL     1      64.579   8.480   4.802  1.00  0.00     0.018 A 
ENDBRANCH   1   2
BRANCH   1   7
HETATM    7  N   UNL     1      62.738   8.518   2.183  1.00  0.00    -0.047 N 
HETATM    8  C   UNL     1      62.816   7.071   1.864  1.00  0.00     0.263 C 
HETATM    9  C   UNL     1      61.443   6.384   1.765  1.00  0.00     0.195 C 
HETATM   10  O   UNL     1      60.589   7.040   0.818  1.00  0.00    -0.388 OA
HETATM   11  C   UNL     1      60.454   8.439   1.100  1.00  0.00     0.195 C 
HETATM   12  C   UNL     1      61.831   9.119   1.167  1.00  0.00     0.263 C 
HETATM   13  H   UNL     1      63.662   8.945   2.143  1.00  0.00     0.282 HD
ENDBRANCH   1   7
BRANCH   1  14
HETATM   14  C   UNL     1      62.153  10.261   3.869  1.00  0.00    -0.038 C 
BRANCH  14  15
HETATM   15  N   UNL     1      62.053  11.495   4.107  1.00  0.00    -0.368 N 
ATOM     16  HN2 UNL     1      62.155  10.507   3.876  1.00  0.00     0.165 HD
ATOM     17  HN1 UNL     1      61.972  12.493   4.300  1.00  0.00     0.165 HD
ENDBRANCH  14  15
ENDBRANCH   1  14
TORSDOF 4
ENDMDL
MODEL 7
REMARK VINA RESULT:      -3.9      2.100      2.890
REMARK  4 active torsions:
REMARK  status: ('A' for Active; 'I' for Inactive)
REMARK    1  A    between atoms: C_1  and  C_2 
REMARK    2  A    between atoms: C_1  and  N_3 
REMARK    3  A    between atoms: C_1  and  C_7 
REMARK    4  A    between atoms: N_4  and  C_7 
ROOT
HETATM    1  C   UNL     1      63.565   8.468   4.057  1.00  0.00     0.315 C 
ENDROOT
BRANCH   1   2
HETATM    2  C   UNL     1      62.443   8.412   3.034  1.00  0.00     0.026 A 
HETATM    3  S   UNL     1      60.930   7.711   3.459  1.00  0.00    -0.103 SA
HETATM    4  C   UNL     1      60.273   8.021   1.913  1.00  0.00     0.050 A 
HETATM    5  C   UNL     1      61.178   8.635   1.080  1.00  0.00     0.008 A 
HETATM    6  C   UNL     1      62.428   8.870   1.726  1.00  0.00     0.018 A 
ENDBRANCH   1   2
BRANCH   1   7
HETATM    7  N   UNL     1      63.697   7.178   4.803  1.00  0.00    -0.047 N 
HETATM    8  C   UNL     1      64.310   6.106   3.982  1.00  0.00     0.263 C 
HETATM    9  C   UNL     1      65.801   6.334   3.680  1.00  0.00     0.195 C 
HETATM   10  O   UNL     1      66.563   6.516   4.881  1.00  0.00    -0.388 OA
HETATM   11  C   UNL     1      66.030   7.564   5.699  1.00  0.00     0.195 C 
HETATM   12  C   UNL     1      64.547   7.310   6.018  1.00  0.00     0.263 C 
HETATM   13  H   UNL     1      62.739   6.935   5.055  1.00  0.00     0.282 HD
ENDBRANCH   1   7
BRANCH   1  14
HETATM   14  C   UNL     1      63.262   9.627   4.993  1.00  0.00    -0.038 C 
BRANCH  14  15
HETATM   15  N   UNL     1      63.012  10.589   5.768  1.00  0.00    -0.368 N 
ATOM     16  HN2 UNL     1      63.204   9.837   5.106  1.00  0.00     0.165 HD
ATOM     17  HN1 UNL     1      62.809  11.366   6.396  1.00  0.00     0.165 HD
ENDBRANCH  14  15
ENDBRANCH   1  14
TORSDOF 4
ENDMDL
MODEL 8
REMARK VINA RESULT:      -3.8      2.112      3.267
REMARK  4 active torsions:
REMARK  status: ('A' for Active; 'I' for Inactive)
REMARK    1  A    between atoms: C_1  and  C_2 
REMARK    2  A    between atoms: C_1  and  N_3 
REMARK    3  A    between atoms: C_1  and  C_7 
REMARK    4  A    between atoms: N_4  and  C_7 
ROOT
HETATM    1  C   UNL     1      63.661   7.743   4.929  1.00  0.00     0.315 C 
ENDROOT
BRANCH   1   2
HETATM    2  C   UNL     1      63.038   9.061   4.502  1.00  0.00     0.026 A 
HETATM    3  S   UNL     1      62.373   9.223   2.924  1.00  0.00    -0.103 SA
HETATM    4  C   UNL     1      61.907  10.842   3.211  1.00  0.00     0.050 A 
HETATM    5  C   UNL     1      62.254  11.263   4.472  1.00  0.00     0.008 A 
HETATM    6  C   UNL     1      62.898  10.236   5.223  1.00  0.00     0.018 A 
ENDBRANCH   1   2
BRANCH   1   7
HETATM    7  N   UNL     1      62.740   6.956   5.807  1.00  0.00    -0.047 N 
HETATM    8  C   UNL     1      61.480   6.582   5.121  1.00  0.00     0.263 C 
HETATM    9  C   UNL     1      61.669   5.532   4.011  1.00  0.00     0.195 C 
HETATM   10  O   UNL     1      62.318   4.352   4.502  1.00  0.00    -0.388 OA
HETATM   11  C   UNL     1      63.560   4.656   5.150  1.00  0.00     0.195 C 
HETATM   12  C   UNL     1      63.353   5.683   6.276  1.00  0.00     0.263 C 
HETATM   13  H   UNL     1      62.550   7.578   6.593  1.00  0.00     0.282 HD
ENDBRANCH   1   7
BRANCH   1  14
HETATM   14  C   UNL     1      64.966   8.071   5.638  1.00  0.00    -0.038 C 
BRANCH  14  15
HETATM   15  N   UNL     1      66.047   8.342   6.226  1.00  0.00    -0.368 N 
ATOM     16  HN2 UNL     1      65.187   8.080   5.745  1.00  0.00     0.165 HD
ATOM     17  HN1 UNL     1      66.921   8.562   6.702  1.00  0.00     0.165 HD
ENDBRANCH  14  15
ENDBRANCH   1  14
TORSDOF 4
ENDMDL
MODEL 9
REMARK VINA RESULT:      -3.7      2.465      3.275
REMARK  4 active torsions:
REMARK  status: ('A' for Active; 'I' for Inactive)
REMARK    1  A    between atoms: C_1  and  C_2 
REMARK    2  A    between atoms: C_1  and  N_3 
REMARK    3  A    between atoms: C_1  and  C_7 
REMARK    4  A    between atoms: N_4  and  C_7 
ROOT
HETATM    1  C   UNL     1      65.636   5.976   6.188  1.00  0.00     0.315 C 
ENDROOT
BRANCH   1   2
HETATM    2  C   UNL     1      64.713   7.097   5.740  1.00  0.00     0.026 A 
HETATM    3  S   UNL     1      63.039   7.036   6.131  1.00  0.00    -0.103 SA
HETATM    4  C   UNL     1      62.733   8.527   5.355  1.00  0.00     0.050 A 
HETATM    5  C   UNL     1      63.870   9.064   4.799  1.00  0.00     0.008 A 
HETATM    6  C   UNL     1      65.016   8.246   5.027  1.00  0.00     0.018 A 
ENDBRANCH   1   2
BRANCH   1   7
HETATM    7  N   UNL     1      66.958   6.500   6.652  1.00  0.00    -0.047 N 
HETATM    8  C   UNL     1      66.861   7.225   7.943  1.00  0.00     0.263 C 
HETATM    9  C   UNL     1      66.558   6.312   9.144  1.00  0.00     0.195 C 
HETATM   10  O   UNL     1      67.515   5.251   9.258  1.00  0.00    -0.388 OA
HETATM   11  C   UNL     1      67.626   4.497   8.044  1.00  0.00     0.195 C 
HETATM   12  C   UNL     1      67.957   5.417   6.857  1.00  0.00     0.263 C 
HETATM   13  H   UNL     1      67.253   7.131   5.907  1.00  0.00     0.282 HD
ENDBRANCH   1   7
BRANCH   1  14
HETATM   14  C   UNL     1      65.793   5.026   5.011  1.00  0.00    -0.038 C 
BRANCH  14  15
HETATM   15  N   UNL     1      65.922   4.239   4.035  1.00  0.00    -0.368 N 
ATOM     16  HN2 UNL     1      65.773   4.875   4.818  1.00  0.00     0.165 HD
ATOM     17  HN1 UNL     1      66.027   3.603   3.246  1.00  0.00     0.165 HD
ENDBRANCH  14  15
ENDBRANCH   1  14
TORSDOF 4
ENDMDL
