MODEL 1
REMARK VINA RESULT:      -5.3      0.000      0.000
REMARK  4 active torsions:
REMARK  status: ('A' for Active; 'I' for Inactive)
REMARK    1  A    between atoms: C_1  and  C_6 
REMARK    2  A    between atoms: C_2  and  C_5 
REMARK    3  A    between atoms: C_4  and  O_8 
REMARK    4  A    between atoms: C_5  and  C_6 
ROOT
HETATM    1  C   UNL     1      63.845   8.482   4.275  1.00  0.00    -0.024 A 
HETATM    2  C   UNL     1      65.082   8.211   4.894  1.00  0.00     0.074 A 
HETATM    3  C   UNL     1      63.426   7.612   3.247  1.00  0.00     0.010 A 
HETATM    4  C   UNL     1      65.800   7.053   4.557  1.00  0.00     0.037 A 
HETATM    5  C   UNL     1      64.154   6.470   2.908  1.00  0.00     0.001 A 
HETATM    6  C   UNL     1      65.335   6.180   3.575  1.00  0.00     0.003 A 
ENDROOT
BRANCH   1   7
HETATM    7  C   UNL     1      62.940   9.604   4.748  1.00  0.00     0.052 C 
BRANCH   7   8
HETATM    8  C   UNL     1      61.806  10.006   3.800  1.00  0.00     0.118 C 
BRANCH   8   9
HETATM    9  C   UNL     1      61.887  11.448   3.403  1.00  0.00     0.172 C 
HETATM   10  O   UNL     1      61.971  11.904   2.275  1.00  0.00    -0.648 OA
HETATM   11  O   UNL     1      61.853  12.259   4.480  1.00  0.00    -0.648 OA
ENDBRANCH   8   9
ENDBRANCH   7   8
ENDBRANCH   1   7
BRANCH   2  12
HETATM   12  O   UNL     1      65.637   8.925   5.925  1.00  0.00    -0.355 OA
HETATM   13  C   UNL     1      66.676   8.271   6.646  1.00  0.00     0.210 C 
ENDBRANCH   2  12
TORSDOF 4
ENDMDL
MODEL 2
REMARK VINA RESULT:      -5.2      1.673      4.495
REMARK  4 active torsions:
REMARK  status: ('A' for Active; 'I' for Inactive)
REMARK    1  A    between atoms: C_1  and  C_6 
REMARK    2  A    between atoms: C_2  and  C_5 
REMARK    3  A    between atoms: C_4  and  O_8 
REMARK    4  A    between atoms: C_5  and  C_6 
ROOT
HETATM    1  C   UNL     1      62.815   8.673   3.571  1.00  0.00    -0.024 A 
HETATM    2  C   UNL     1      62.508   9.841   4.298  1.00  0.00     0.074 A 
HETATM    3  C   UNL     1      62.524   8.668   2.191  1.00  0.00     0.010 A 
HETATM    4  C   UNL     1      62.031  10.980   3.632  1.00  0.00     0.037 A 
HETATM    5  C   UNL     1      62.036   9.802   1.539  1.00  0.00     0.001 A 
HETATM    6  C   UNL     1      61.804  10.966   2.257  1.00  0.00     0.003 A 
ENDROOT
BRANCH   1   7
HETATM    7  C   UNL     1      63.521   7.492   4.212  1.00  0.00     0.052 C 
BRANCH   7   8
HETATM    8  C   UNL     1      65.026   7.650   4.450  1.00  0.00     0.118 C 
BRANCH   8   9
HETATM    9  C   UNL     1      65.338   8.003   5.872  1.00  0.00     0.172 C 
HETATM   10  O   UNL     1      66.109   8.859   6.273  1.00  0.00    -0.648 OA
HETATM   11  O   UNL     1      64.637   7.240   6.735  1.00  0.00    -0.648 OA
ENDBRANCH   8   9
ENDBRANCH   7   8
ENDBRANCH   1   7
BRANCH   2  12
HETATM   12  O   UNL     1      62.744  10.040   5.634  1.00  0.00    -0.355 OA
HETATM   13  C   UNL     1      63.194  11.341   5.999  1.00  0.00     0.210 C 
ENDBRANCH   2  12
TORSDOF 4
ENDMDL
MODEL 3
REMARK VINA RESULT:      -5.0      2.169      5.179
REMARK  4 active torsions:
REMARK  status: ('A' for Active; 'I' for Inactive)
REMARK    1  A    between atoms: C_1  and  C_6 
REMARK    2  A    between atoms: C_2  and  C_5 
REMARK    3  A    between atoms: C_4  and  O_8 
REMARK    4  A    between atoms: C_5  and  C_6 
ROOT
HETATM    1  C   UNL     1      62.601   9.036   3.633  1.00  0.00    -0.024 A 
HETATM    2  C   UNL     1      62.455   9.017   2.231  1.00  0.00     0.074 A 
HETATM    3  C   UNL     1      62.376  10.260   4.296  1.00  0.00     0.010 A 
HETATM    4  C   UNL     1      61.998  10.159   1.555  1.00  0.00     0.037 A 
HETATM    5  C   UNL     1      61.936  11.396   3.613  1.00  0.00     0.001 A 
HETATM    6  C   UNL     1      61.730  11.341   2.243  1.00  0.00     0.003 A 
ENDROOT
BRANCH   1   7
HETATM    7  C   UNL     1      62.894   7.775   4.426  1.00  0.00     0.052 C 
BRANCH   7   8
HETATM    8  C   UNL     1      64.371   7.403   4.587  1.00  0.00     0.118 C 
BRANCH   8   9
HETATM    9  C   UNL     1      64.926   7.858   5.902  1.00  0.00     0.172 C 
HETATM   10  O   UNL     1      64.919   7.252   6.960  1.00  0.00    -0.648 OA
HETATM   11  O   UNL     1      65.480   9.084   5.807  1.00  0.00    -0.648 OA
ENDBRANCH   8   9
ENDBRANCH   7   8
ENDBRANCH   1   7
BRANCH   2  12
HETATM   12  O   UNL     1      62.604   7.919   1.423  1.00  0.00    -0.355 OA
HETATM   13  C   UNL     1      61.630   7.766   0.395  1.00  0.00     0.210 C 
ENDBRANCH   2  12
TORSDOF 4
ENDMDL
MODEL 4
REMARK VINA RESULT:      -4.9      1.727      4.777
REMARK  4 active torsions:
REMARK  status: ('A' for Active; 'I' for Inactive)
REMARK    1  A    between atoms: C_1  and  C_6 
REMARK    2  A    between atoms: C_2  and  C_5 
REMARK    3  A    between atoms: C_4  and  O_8 
REMARK    4  A    between atoms: C_5  and  C_6 
ROOT
HETATM    1  C   UNL     1      62.894   8.328   3.140  1.00  0.00    -0.024 A 
HETATM    2  C   UNL     1      62.267   9.413   2.495  1.00  0.00     0.074 A 
HETATM    3  C   UNL     1      63.065   7.140   2.400  1.00  0.00     0.010 A 
HETATM    4  C   UNL     1      61.931   9.326   1.135  1.00  0.00     0.037 A 
HETATM    5  C   UNL     1      62.714   7.057   1.051  1.00  0.00     0.001 A 
HETATM    6  C   UNL     1      62.162   8.157   0.412  1.00  0.00     0.003 A 
ENDROOT
BRANCH   1   7
HETATM    7  C   UNL     1      63.458   8.446   4.544  1.00  0.00     0.052 C 
BRANCH   7   8
HETATM    8  C   UNL     1      64.929   8.057   4.719  1.00  0.00     0.118 C 
BRANCH   8   9
HETATM    9  C   UNL     1      65.314   7.942   6.162  1.00  0.00     0.172 C 
HETATM   10  O   UNL     1      64.859   7.175   6.993  1.00  0.00    -0.648 OA
HETATM   11  O   UNL     1      66.282   8.823   6.486  1.00  0.00    -0.648 OA
ENDBRANCH   8   9
ENDBRANCH   7   8
ENDBRANCH   1   7
BRANCH   2  12
HETATM   12  O   UNL     1      62.041  10.650   3.042  1.00  0.00    -0.355 OA
HETATM   13  C   UNL     1      61.781  11.701   2.117  1.00  0.00     0.210 C 
ENDBRANCH   2  12
TORSDOF 4
ENDMDL
MODEL 5
REMARK VINA RESULT:      -4.6      1.937      2.468
REMARK  4 active torsions:
REMARK  status: ('A' for Active; 'I' for Inactive)
REMARK    1  A    between atoms: C_1  and  C_6 
REMARK    2  A    between atoms: C_2  and  C_5 
REMARK    3  A    between atoms: C_4  and  O_8 
REMARK    4  A    between atoms: C_5  and  C_6 
ROOT
HETATM    1  C   UNL     1      63.613   8.453   5.291  1.00  0.00    -0.024 A 
HETATM    2  C   UNL     1      63.276   7.393   6.156  1.00  0.00     0.074 A 
HETATM    3  C   UNL     1      64.873   8.403   4.658  1.00  0.00     0.010 A 
HETATM    4  C   UNL     1      64.132   6.288   6.283  1.00  0.00     0.037 A 
HETATM    5  C   UNL     1      65.725   7.307   4.802  1.00  0.00     0.001 A 
HETATM    6  C   UNL     1      65.348   6.239   5.603  1.00  0.00     0.003 A 
ENDROOT
BRANCH   1   7
HETATM    7  C   UNL     1      62.633   9.565   4.965  1.00  0.00     0.052 C 
BRANCH   7   8
HETATM    8  C   UNL     1      62.301   9.762   3.482  1.00  0.00     0.118 C 
BRANCH   8   9
HETATM    9  C   UNL     1      61.933  11.181   3.171  1.00  0.00     0.172 C 
HETATM   10  O   UNL     1      61.710  11.667   2.076  1.00  0.00    -0.648 OA
HETATM   11  O   UNL     1      61.861  11.929   4.291  1.00  0.00    -0.648 OA
ENDBRANCH   8   9
ENDBRANCH   7   8
ENDBRANCH   1   7
BRANCH   2  12
HETATM   12  O   UNL     1      62.092   7.256   6.833  1.00  0.00    -0.355 OA
HETATM   13  C   UNL     1      61.306   6.119   6.489  1.00  0.00     0.210 C 
ENDBRANCH   2  12
TORSDOF 4
ENDMDL
MODEL 6
REMARK VINA RESULT:      -4.6      2.413      2.823
REMARK  4 active torsions:
REMARK  status: ('A' for Active; 'I' for Inactive)
REMARK    1  A    between atoms: C_1  and  C_6 
REMARK    2  A    between atoms: C_2  and  C_5 
REMARK    3  A    between atoms: C_4  and  O_8 
REMARK    4  A    between atoms: C_5  and  C_6 
ROOT
HETATM    1  C   UNL     1      62.053   7.917   4.495  1.00  0.00    -0.024 A 
HETATM    2  C   UNL     1      62.452   7.370   5.731  1.00  0.00     0.074 A 
HETATM    3  C   UNL     1      60.885   7.399   3.899  1.00  0.00     0.010 A 
HETATM    4  C   UNL     1      61.642   6.421   6.376  1.00  0.00     0.037 A 
HETATM    5  C   UNL     1      60.093   6.444   4.540  1.00  0.00     0.001 A 
HETATM    6  C   UNL     1      60.462   5.967   5.789  1.00  0.00     0.003 A 
ENDROOT
BRANCH   1   7
HETATM    7  C   UNL     1      62.785   9.086   3.862  1.00  0.00     0.052 C 
BRANCH   7   8
HETATM    8  C   UNL     1      62.099   9.745   2.661  1.00  0.00     0.118 C 
BRANCH   8   9
HETATM    9  C   UNL     1      61.902  11.216   2.863  1.00  0.00     0.172 C 
HETATM   10  O   UNL     1      61.840  12.081   2.006  1.00  0.00    -0.648 OA
HETATM   11  O   UNL     1      61.785  11.524   4.171  1.00  0.00    -0.648 OA
ENDBRANCH   8   9
ENDBRANCH   7   8
ENDBRANCH   1   7
BRANCH   2  12
HETATM   12  O   UNL     1      63.537   7.763   6.471  1.00  0.00    -0.355 OA
HETATM   13  C   UNL     1      64.634   6.856   6.498  1.00  0.00     0.210 C 
ENDBRANCH   2  12
TORSDOF 4
ENDMDL
MODEL 7
REMARK VINA RESULT:      -4.6      2.915      5.318
REMARK  4 active torsions:
REMARK  status: ('A' for Active; 'I' for Inactive)
REMARK    1  A    between atoms: C_1  and  C_6 
REMARK    2  A    between atoms: C_2  and  C_5 
REMARK    3  A    between atoms: C_4  and  O_8 
REMARK    4  A    between atoms: C_5  and  C_6 
ROOT
HETATM    1  C   UNL     1      62.571   9.147   3.472  1.00  0.00    -0.024 A 
HETATM    2  C   UNL     1      62.380   9.099   2.077  1.00  0.00     0.074 A 
HETATM    3  C   UNL     1      62.377  10.388   4.115  1.00  0.00     0.010 A 
HETATM    4  C   UNL     1      61.909  10.230   1.391  1.00  0.00     0.037 A 
HETATM    5  C   UNL     1      61.923  11.511   3.422  1.00  0.00     0.001 A 
HETATM    6  C   UNL     1      61.672  11.429   2.061  1.00  0.00     0.003 A 
ENDROOT
BRANCH   1   7
HETATM    7  C   UNL     1      62.880   7.902   4.283  1.00  0.00     0.052 C 
BRANCH   7   8
HETATM    8  C   UNL     1      61.685   7.214   4.951  1.00  0.00     0.118 C 
BRANCH   8   9
HETATM    9  C   UNL     1      62.003   6.759   6.342  1.00  0.00     0.172 C 
HETATM   10  O   UNL     1      61.712   5.693   6.859  1.00  0.00    -0.648 OA
HETATM   11  O   UNL     1      62.693   7.696   7.023  1.00  0.00    -0.648 OA
ENDBRANCH   8   9
ENDBRANCH   7   8
ENDBRANCH   1   7
BRANCH   2  12
HETATM   12  O   UNL     1      62.494   7.983   1.289  1.00  0.00    -0.355 OA
HETATM   13  C   UNL     1      61.481   7.809   0.304  1.00  0.00     0.210 C 
ENDBRANCH   2  12
TORSDOF 4
ENDMDL
MODEL 8
REMARK VINA RESULT:      -4.3      3.072      4.544
REMARK  4 active torsions:
REMARK  status: ('A' for Active; 'I' for Inactive)
REMARK    1  A    between atoms: C_1  and  C_6 
REMARK    2  A    between atoms: C_2  and  C_5 
REMARK    3  A    between atoms: C_4  and  O_8 
REMARK    4  A    between atoms: C_5  and  C_6 
ROOT
HETATM    1  C   UNL     1      62.314   9.560   2.646  1.00  0.00    -0.024 A 
HETATM    2  C   UNL     1      63.031   8.729   3.531  1.00  0.00     0.074 A 
HETATM    3  C   UNL     1      61.874  10.808   3.135  1.00  0.00     0.010 A 
HETATM    4  C   UNL     1      63.373   9.193   4.811  1.00  0.00     0.037 A 
HETATM    5  C   UNL     1      62.206  11.255   4.415  1.00  0.00     0.001 A 
HETATM    6  C   UNL     1      62.971  10.454   5.250  1.00  0.00     0.003 A 
ENDROOT
BRANCH   1   7
HETATM    7  C   UNL     1      62.100   9.185   1.191  1.00  0.00     0.052 C 
BRANCH   7   8
HETATM    8  C   UNL     1      60.785   8.471   0.862  1.00  0.00     0.118 C 
BRANCH   8   9
HETATM    9  C   UNL     1      60.932   6.980   0.892  1.00  0.00     0.172 C 
HETATM   10  O   UNL     1      60.137   6.164   1.326  1.00  0.00    -0.648 OA
HETATM   11  O   UNL     1      62.104   6.588   0.351  1.00  0.00    -0.648 OA
ENDBRANCH   8   9
ENDBRANCH   7   8
ENDBRANCH   1   7
BRANCH   2  12
HETATM   12  O   UNL     1      63.560   7.502   3.229  1.00  0.00    -0.355 OA
HETATM   13  C   UNL     1      63.007   6.394   3.932  1.00  0.00     0.210 C 
ENDBRANCH   2  12
TORSDOF 4
ENDMDL
MODEL 9
REMARK VINA RESULT:      -4.2      3.012      4.876
REMARK  4 active torsions:
REMARK  status: ('A' for Active; 'I' for Inactive)
REMARK    1  A    between atoms: C_1  and  C_6 
REMARK    2  A    between atoms: C_2  and  C_5 
REMARK    3  A    between atoms: C_4  and  O_8 
REMARK    4  A    between atoms: C_5  and  C_6 
ROOT
HETATM    1  C   UNL     1      61.844   8.884   2.976  1.00  0.00    -0.024 A 
HETATM    2  C   UNL     1      60.779   7.961   2.999  1.00  0.00     0.074 A 
HETATM    3  C   UNL     1      62.390   9.218   1.719  1.00  0.00     0.010 A 
HETATM    4  C   UNL     1      60.230   7.488   1.797  1.00  0.00     0.037 A 
HETATM    5  C   UNL     1      61.847   8.732   0.528  1.00  0.00     0.001 A 
HETATM    6  C   UNL     1      60.754   7.878   0.566  1.00  0.00     0.003 A 
ENDROOT
BRANCH   1   7
HETATM    7  C   UNL     1      62.334   9.576   4.235  1.00  0.00     0.052 C 
BRANCH   7   8
HETATM    8  C   UNL     1      63.583   8.981   4.893  1.00  0.00     0.118 C 
BRANCH   8   9
HETATM    9  C   UNL     1      63.253   7.813   5.772  1.00  0.00     0.172 C 
HETATM   10  O   UNL     1      62.688   7.833   6.852  1.00  0.00    -0.648 OA
HETATM   11  O   UNL     1      63.661   6.651   5.223  1.00  0.00    -0.648 OA
ENDBRANCH   8   9
ENDBRANCH   7   8
ENDBRANCH   1   7
BRANCH   2  12
HETATM   12  O   UNL     1      60.107   7.540   4.117  1.00  0.00    -0.355 OA
HETATM   13  C   UNL     1      60.200   6.150   4.413  1.00  0.00     0.210 C 
ENDBRANCH   2  12
TORSDOF 4
ENDMDL
