MODEL 1
REMARK VINA RESULT:      -6.0      0.000      0.000
REMARK  4 active torsions:
REMARK  status: ('A' for Active; 'I' for Inactive)
REMARK    1  A    between atoms: C_1  and  N_6 
REMARK    2  A    between atoms: C_4  and  O_5 
REMARK    3  A    between atoms: O_5  and  C_7 
REMARK    4  A    between atoms: C_7  and  C_8 
ROOT
HETATM    1  C   UNL     1      66.850   7.999   6.522  1.00  0.00     0.132 A 
HETATM    2  N   UNL     1      67.748   6.993   6.442  1.00  0.00    -0.350 N 
ATOM      3  HN  UNL     1      68.489   6.895   7.137  1.00  0.00     0.166 HD
HETATM    4  C   UNL     1      65.821   8.170   5.587  1.00  0.00     0.112 A 
HETATM    5  C   UNL     1      67.638   6.122   5.419  1.00  0.00     0.090 A 
HETATM    6  C   UNL     1      65.762   7.260   4.526  1.00  0.00     0.042 A 
HETATM    7  C   UNL     1      66.674   6.216   4.435  1.00  0.00     0.020 A 
ENDROOT
BRANCH   4   8
HETATM    8  O   UNL     1      64.817   9.094   5.527  1.00  0.00    -0.343 OA
BRANCH   8   9
HETATM    9  C   UNL     1      63.468   8.713   5.275  1.00  0.00     0.214 C 
BRANCH   9  10
HETATM   10  C   UNL     1      62.843   9.377   4.061  1.00  0.00    -0.034 A 
HETATM   11  C   UNL     1      62.349  10.689   4.087  1.00  0.00     0.009 A 
HETATM   12  C   UNL     1      61.810  11.271   2.937  1.00  0.00     0.001 A 
HETATM   13  C   UNL     1      61.738  10.541   1.754  1.00  0.00     0.000 A 
HETATM   14  C   UNL     1      62.195   9.226   1.720  1.00  0.00     0.001 A 
HETATM   15  C   UNL     1      62.743   8.647   2.867  1.00  0.00     0.009 A 
ENDBRANCH   9  10
ENDBRANCH   8   9
ENDBRANCH   4   8
BRANCH   1  16
HETATM   16  N   UNL     1      67.068   8.823   7.623  1.00  0.00    -0.383 N 
HETATM   17  H   UNL     1      67.920   8.775   8.113  1.00  0.00     0.157 HD
HETATM   18  H   UNL     1      66.368   9.453   7.912  1.00  0.00     0.157 HD
ENDBRANCH   1  16
TORSDOF 4
ENDMDL
MODEL 2
REMARK VINA RESULT:      -5.6      2.427      6.238
REMARK  4 active torsions:
REMARK  status: ('A' for Active; 'I' for Inactive)
REMARK    1  A    between atoms: C_1  and  N_6 
REMARK    2  A    between atoms: C_4  and  O_5 
REMARK    3  A    between atoms: O_5  and  C_7 
REMARK    4  A    between atoms: C_7  and  C_8 
ROOT
HETATM    1  C   UNL     1      63.418  10.314   5.292  1.00  0.00     0.132 A 
HETATM    2  N   UNL     1      62.352  10.532   4.490  1.00  0.00    -0.350 N 
ATOM      3  HN  UNL     1      61.784  11.374   4.590  1.00  0.00     0.166 HD
HETATM    4  C   UNL     1      64.219   9.170   5.190  1.00  0.00     0.112 A 
HETATM    5  C   UNL     1      62.061   9.606   3.554  1.00  0.00     0.090 A 
HETATM    6  C   UNL     1      63.863   8.222   4.224  1.00  0.00     0.042 A 
HETATM    7  C   UNL     1      62.775   8.437   3.387  1.00  0.00     0.020 A 
ENDROOT
BRANCH   4   8
HETATM    8  O   UNL     1      65.338   8.803   5.882  1.00  0.00    -0.343 OA
BRANCH   8   9
HETATM    9  C   UNL     1      66.243   7.827   5.371  1.00  0.00     0.214 C 
BRANCH   9  10
HETATM   10  C   UNL     1      66.822   6.896   6.420  1.00  0.00    -0.034 A 
HETATM   11  C   UNL     1      67.531   5.732   6.089  1.00  0.00     0.009 A 
HETATM   12  C   UNL     1      68.073   4.919   7.088  1.00  0.00     0.001 A 
HETATM   13  C   UNL     1      67.893   5.247   8.428  1.00  0.00     0.000 A 
HETATM   14  C   UNL     1      67.164   6.382   8.774  1.00  0.00     0.001 A 
HETATM   15  C   UNL     1      66.630   7.200   7.776  1.00  0.00     0.009 A 
ENDBRANCH   9  10
ENDBRANCH   8   9
ENDBRANCH   4   8
BRANCH   1  16
HETATM   16  N   UNL     1      63.616  11.344   6.208  1.00  0.00    -0.383 N 
HETATM   17  H   UNL     1      62.852  11.711   6.709  1.00  0.00     0.157 HD
HETATM   18  H   UNL     1      64.520  11.705   6.354  1.00  0.00     0.157 HD
ENDBRANCH   1  16
TORSDOF 4
ENDMDL
MODEL 3
REMARK VINA RESULT:      -5.2      2.722      5.808
REMARK  4 active torsions:
REMARK  status: ('A' for Active; 'I' for Inactive)
REMARK    1  A    between atoms: C_1  and  N_6 
REMARK    2  A    between atoms: C_4  and  O_5 
REMARK    3  A    between atoms: O_5  and  C_7 
REMARK    4  A    between atoms: C_7  and  C_8 
ROOT
HETATM    1  C   UNL     1      62.287  10.765   4.000  1.00  0.00     0.132 A 
HETATM    2  N   UNL     1      61.779  11.051   2.781  1.00  0.00    -0.350 N 
ATOM      3  HN  UNL     1      61.425  11.984   2.566  1.00  0.00     0.166 HD
HETATM    4  C   UNL     1      62.779   9.497   4.336  1.00  0.00     0.112 A 
HETATM    5  C   UNL     1      61.753  10.069   1.857  1.00  0.00     0.090 A 
HETATM    6  C   UNL     1      62.706   8.502   3.355  1.00  0.00     0.042 A 
HETATM    7  C   UNL     1      62.193   8.783   2.095  1.00  0.00     0.020 A 
ENDROOT
BRANCH   4   8
HETATM    8  O   UNL     1      63.351   9.042   5.489  1.00  0.00    -0.343 OA
BRANCH   8   9
HETATM    9  C   UNL     1      63.622   7.657   5.690  1.00  0.00     0.214 C 
BRANCH   9  10
HETATM   10  C   UNL     1      65.090   7.325   5.883  1.00  0.00    -0.034 A 
HETATM   11  C   UNL     1      65.592   6.773   7.071  1.00  0.00     0.009 A 
HETATM   12  C   UNL     1      66.946   6.455   7.193  1.00  0.00     0.001 A 
HETATM   13  C   UNL     1      67.820   6.704   6.138  1.00  0.00     0.000 A 
HETATM   14  C   UNL     1      67.344   7.281   4.964  1.00  0.00     0.001 A 
HETATM   15  C   UNL     1      65.988   7.591   4.837  1.00  0.00     0.009 A 
ENDBRANCH   9  10
ENDBRANCH   8   9
ENDBRANCH   4   8
BRANCH   1  16
HETATM   16  N   UNL     1      62.264  11.861   4.858  1.00  0.00    -0.383 N 
HETATM   17  H   UNL     1      62.274  11.724   5.833  1.00  0.00     0.157 HD
HETATM   18  H   UNL     1      62.235  12.774   4.489  1.00  0.00     0.157 HD
ENDBRANCH   1  16
TORSDOF 4
ENDMDL
MODEL 4
REMARK VINA RESULT:      -5.1      2.399      3.100
REMARK  4 active torsions:
REMARK  status: ('A' for Active; 'I' for Inactive)
REMARK    1  A    between atoms: C_1  and  N_6 
REMARK    2  A    between atoms: C_4  and  O_5 
REMARK    3  A    between atoms: O_5  and  C_7 
REMARK    4  A    between atoms: C_7  and  C_8 
ROOT
HETATM    1  C   UNL     1      65.671   4.964   7.656  1.00  0.00     0.132 A 
HETATM    2  N   UNL     1      66.565   4.167   8.282  1.00  0.00    -0.350 N 
ATOM      3  HN  UNL     1      66.445   3.154   8.295  1.00  0.00     0.166 HD
HETATM    4  C   UNL     1      65.799   6.359   7.618  1.00  0.00     0.112 A 
HETATM    5  C   UNL     1      67.620   4.749   8.888  1.00  0.00     0.090 A 
HETATM    6  C   UNL     1      66.893   6.921   8.284  1.00  0.00     0.042 A 
HETATM    7  C   UNL     1      67.824   6.113   8.925  1.00  0.00     0.020 A 
ENDROOT
BRANCH   4   8
HETATM    8  O   UNL     1      65.024   7.307   7.013  1.00  0.00    -0.343 OA
BRANCH   8   9
HETATM    9  C   UNL     1      65.451   7.975   5.829  1.00  0.00     0.214 C 
BRANCH   9  10
HETATM   10  C   UNL     1      64.328   8.363   4.885  1.00  0.00    -0.034 A 
HETATM   11  C   UNL     1      63.529   9.499   5.087  1.00  0.00     0.009 A 
HETATM   12  C   UNL     1      62.525   9.835   4.176  1.00  0.00     0.001 A 
HETATM   13  C   UNL     1      62.293   9.030   3.064  1.00  0.00     0.000 A 
HETATM   14  C   UNL     1      63.057   7.882   2.866  1.00  0.00     0.001 A 
HETATM   15  C   UNL     1      64.066   7.550   3.772  1.00  0.00     0.009 A 
ENDBRANCH   9  10
ENDBRANCH   8   9
ENDBRANCH   4   8
BRANCH   1  16
HETATM   16  N   UNL     1      64.636   4.245   7.066  1.00  0.00    -0.383 N 
HETATM   17  H   UNL     1      64.815   3.365   6.662  1.00  0.00     0.157 HD
HETATM   18  H   UNL     1      63.724   4.618   7.051  1.00  0.00     0.157 HD
ENDBRANCH   1  16
TORSDOF 4
ENDMDL
MODEL 5
REMARK VINA RESULT:      -5.1      2.322      3.083
REMARK  4 active torsions:
REMARK  status: ('A' for Active; 'I' for Inactive)
REMARK    1  A    between atoms: C_1  and  N_6 
REMARK    2  A    between atoms: C_4  and  O_5 
REMARK    3  A    between atoms: O_5  and  C_7 
REMARK    4  A    between atoms: C_7  and  C_8 
ROOT
HETATM    1  C   UNL     1      65.095   5.097   7.171  1.00  0.00     0.132 A 
HETATM    2  N   UNL     1      65.929   4.203   7.746  1.00  0.00    -0.350 N 
ATOM      3  HN  UNL     1      65.743   3.201   7.693  1.00  0.00     0.166 HD
HETATM    4  C   UNL     1      65.315   6.479   7.226  1.00  0.00     0.112 A 
HETATM    5  C   UNL     1      67.016   4.672   8.393  1.00  0.00     0.090 A 
HETATM    6  C   UNL     1      66.439   6.922   7.931  1.00  0.00     0.042 A 
HETATM    7  C   UNL     1      67.309   6.014   8.521  1.00  0.00     0.020 A 
ENDROOT
BRANCH   4   8
HETATM    8  O   UNL     1      64.608   7.514   6.682  1.00  0.00    -0.343 OA
BRANCH   8   9
HETATM    9  C   UNL     1      65.018   8.140   5.469  1.00  0.00     0.214 C 
BRANCH   9  10
HETATM   10  C   UNL     1      63.909   8.863   4.729  1.00  0.00    -0.034 A 
HETATM   11  C   UNL     1      63.334   8.363   3.551  1.00  0.00     0.009 A 
HETATM   12  C   UNL     1      62.293   9.047   2.919  1.00  0.00     0.001 A 
HETATM   13  C   UNL     1      61.829  10.250   3.443  1.00  0.00     0.000 A 
HETATM   14  C   UNL     1      62.410  10.776   4.594  1.00  0.00     0.001 A 
HETATM   15  C   UNL     1      63.444  10.088   5.232  1.00  0.00     0.009 A 
ENDBRANCH   9  10
ENDBRANCH   8   9
ENDBRANCH   4   8
BRANCH   1  16
HETATM   16  N   UNL     1      64.019   4.487   6.532  1.00  0.00    -0.383 N 
HETATM   17  H   UNL     1      63.339   5.037   6.081  1.00  0.00     0.157 HD
HETATM   18  H   UNL     1      63.939   3.506   6.531  1.00  0.00     0.157 HD
ENDBRANCH   1  16
TORSDOF 4
ENDMDL
MODEL 6
REMARK VINA RESULT:      -4.8      2.161      2.346
REMARK  4 active torsions:
REMARK  status: ('A' for Active; 'I' for Inactive)
REMARK    1  A    between atoms: C_1  and  N_6 
REMARK    2  A    between atoms: C_4  and  O_5 
REMARK    3  A    between atoms: O_5  and  C_7 
REMARK    4  A    between atoms: C_7  and  C_8 
ROOT
HETATM    1  C   UNL     1      64.765   6.511   6.772  1.00  0.00     0.132 A 
HETATM    2  N   UNL     1      65.159   5.222   6.864  1.00  0.00    -0.350 N 
ATOM      3  HN  UNL     1      66.091   4.981   7.203  1.00  0.00     0.166 HD
HETATM    4  C   UNL     1      63.496   6.882   6.309  1.00  0.00     0.112 A 
HETATM    5  C   UNL     1      64.286   4.262   6.497  1.00  0.00     0.090 A 
HETATM    6  C   UNL     1      62.633   5.854   5.912  1.00  0.00     0.042 A 
HETATM    7  C   UNL     1      63.023   4.524   6.008  1.00  0.00     0.020 A 
ENDROOT
BRANCH   4   8
HETATM    8  O   UNL     1      62.920   8.114   6.181  1.00  0.00    -0.343 OA
BRANCH   8   9
HETATM    9  C   UNL     1      63.556   9.162   5.455  1.00  0.00     0.214 C 
BRANCH   9  10
HETATM   10  C   UNL     1      62.907   9.487   4.122  1.00  0.00    -0.034 A 
HETATM   11  C   UNL     1      62.304  10.726   3.856  1.00  0.00     0.009 A 
HETATM   12  C   UNL     1      61.745  10.992   2.604  1.00  0.00     0.001 A 
HETATM   13  C   UNL     1      61.762  10.018   1.610  1.00  0.00     0.000 A 
HETATM   14  C   UNL     1      62.328   8.772   1.868  1.00  0.00     0.001 A 
HETATM   15  C   UNL     1      62.895   8.508   3.117  1.00  0.00     0.009 A 
ENDBRANCH   9  10
ENDBRANCH   8   9
ENDBRANCH   4   8
BRANCH   1  16
HETATM   16  N   UNL     1      65.751   7.402   7.186  1.00  0.00    -0.383 N 
HETATM   17  H   UNL     1      66.686   7.103   7.257  1.00  0.00     0.157 HD
HETATM   18  H   UNL     1      65.512   8.331   7.409  1.00  0.00     0.157 HD
ENDBRANCH   1  16
TORSDOF 4
ENDMDL
MODEL 7
REMARK VINA RESULT:      -4.7      1.454      2.051
REMARK  4 active torsions:
REMARK  status: ('A' for Active; 'I' for Inactive)
REMARK    1  A    between atoms: C_1  and  N_6 
REMARK    2  A    between atoms: C_4  and  O_5 
REMARK    3  A    between atoms: O_5  and  C_7 
REMARK    4  A    between atoms: C_7  and  C_8 
ROOT
HETATM    1  C   UNL     1      65.555   7.783   5.967  1.00  0.00     0.132 A 
HETATM    2  N   UNL     1      66.372   7.576   7.023  1.00  0.00    -0.350 N 
ATOM      3  HN  UNL     1      66.571   8.325   7.687  1.00  0.00     0.166 HD
HETATM    4  C   UNL     1      65.261   6.782   5.032  1.00  0.00     0.112 A 
HETATM    5  C   UNL     1      66.918   6.352   7.175  1.00  0.00     0.090 A 
HETATM    6  C   UNL     1      65.871   5.536   5.213  1.00  0.00     0.042 A 
HETATM    7  C   UNL     1      66.708   5.307   6.298  1.00  0.00     0.020 A 
ENDROOT
BRANCH   4   8
HETATM    8  O   UNL     1      64.443   6.800   3.938  1.00  0.00    -0.343 OA
BRANCH   8   9
HETATM    9  C   UNL     1      63.062   7.134   4.046  1.00  0.00     0.214 C 
BRANCH   9  10
HETATM   10  C   UNL     1      62.644   8.352   3.243  1.00  0.00    -0.034 A 
HETATM   11  C   UNL     1      62.556   8.341   1.843  1.00  0.00     0.009 A 
HETATM   12  C   UNL     1      62.138   9.477   1.146  1.00  0.00     0.001 A 
HETATM   13  C   UNL     1      61.824  10.644   1.837  1.00  0.00     0.000 A 
HETATM   14  C   UNL     1      61.936  10.680   3.225  1.00  0.00     0.001 A 
HETATM   15  C   UNL     1      62.346   9.542   3.923  1.00  0.00     0.009 A 
ENDBRANCH   9  10
ENDBRANCH   8   9
ENDBRANCH   4   8
BRANCH   1  16
HETATM   16  N   UNL     1      65.053   9.081   5.927  1.00  0.00    -0.383 N 
HETATM   17  H   UNL     1      64.081   9.233   5.941  1.00  0.00     0.157 HD
HETATM   18  H   UNL     1      65.672   9.846   5.884  1.00  0.00     0.157 HD
ENDBRANCH   1  16
TORSDOF 4
ENDMDL
MODEL 8
REMARK VINA RESULT:      -4.7      3.103      6.121
REMARK  4 active torsions:
REMARK  status: ('A' for Active; 'I' for Inactive)
REMARK    1  A    between atoms: C_1  and  N_6 
REMARK    2  A    between atoms: C_4  and  O_5 
REMARK    3  A    between atoms: O_5  and  C_7 
REMARK    4  A    between atoms: C_7  and  C_8 
ROOT
HETATM    1  C   UNL     1      62.228   9.191   2.274  1.00  0.00     0.132 A 
HETATM    2  N   UNL     1      61.785  10.393   1.845  1.00  0.00    -0.350 N 
ATOM      3  HN  UNL     1      61.511  10.535   0.873  1.00  0.00     0.166 HD
HETATM    4  C   UNL     1      62.618   8.957   3.599  1.00  0.00     0.112 A 
HETATM    5  C   UNL     1      61.716  11.401   2.739  1.00  0.00     0.090 A 
HETATM    6  C   UNL     1      62.556  10.038   4.485  1.00  0.00     0.042 A 
HETATM    7  C   UNL     1      62.096  11.278   4.060  1.00  0.00     0.020 A 
ENDROOT
BRANCH   4   8
HETATM    8  O   UNL     1      63.052   7.816   4.211  1.00  0.00    -0.343 OA
BRANCH   8   9
HETATM    9  C   UNL     1      63.449   7.809   5.580  1.00  0.00     0.214 C 
BRANCH   9  10
HETATM   10  C   UNL     1      64.902   7.436   5.811  1.00  0.00    -0.034 A 
HETATM   11  C   UNL     1      65.308   6.576   6.842  1.00  0.00     0.009 A 
HETATM   12  C   UNL     1      66.654   6.237   6.999  1.00  0.00     0.001 A 
HETATM   13  C   UNL     1      67.613   6.769   6.141  1.00  0.00     0.000 A 
HETATM   14  C   UNL     1      67.230   7.649   5.132  1.00  0.00     0.001 A 
HETATM   15  C   UNL     1      65.883   7.983   4.969  1.00  0.00     0.009 A 
ENDBRANCH   9  10
ENDBRANCH   8   9
ENDBRANCH   4   8
BRANCH   1  16
HETATM   16  N   UNL     1      62.246   8.236   1.260  1.00  0.00    -0.383 N 
HETATM   17  H   UNL     1      62.339   7.283   1.484  1.00  0.00     0.157 HD
HETATM   18  H   UNL     1      62.166   8.517   0.320  1.00  0.00     0.157 HD
ENDBRANCH   1  16
TORSDOF 4
ENDMDL
MODEL 9
REMARK VINA RESULT:      -4.7      1.582      2.058
REMARK  4 active torsions:
REMARK  status: ('A' for Active; 'I' for Inactive)
REMARK    1  A    between atoms: C_1  and  N_6 
REMARK    2  A    between atoms: C_4  and  O_5 
REMARK    3  A    between atoms: O_5  and  C_7 
REMARK    4  A    between atoms: C_7  and  C_8 
ROOT
HETATM    1  C   UNL     1      66.788   7.438   7.040  1.00  0.00     0.132 A 
HETATM    2  N   UNL     1      67.819   6.580   7.207  1.00  0.00    -0.350 N 
ATOM      3  HN  UNL     1      68.712   6.901   7.582  1.00  0.00     0.166 HD
HETATM    4  C   UNL     1      65.548   7.038   6.524  1.00  0.00     0.112 A 
HETATM    5  C   UNL     1      67.634   5.289   6.864  1.00  0.00     0.090 A 
HETATM    6  C   UNL     1      65.410   5.695   6.155  1.00  0.00     0.042 A 
HETATM    7  C   UNL     1      66.459   4.801   6.328  1.00  0.00     0.020 A 
ENDROOT
BRANCH   4   8
HETATM    8  O   UNL     1      64.398   7.747   6.320  1.00  0.00    -0.343 OA
BRANCH   8   9
HETATM    9  C   UNL     1      64.233   8.586   5.181  1.00  0.00     0.214 C 
BRANCH   9  10
HETATM   10  C   UNL     1      62.960   8.335   4.394  1.00  0.00    -0.034 A 
HETATM   11  C   UNL     1      62.055   7.316   4.725  1.00  0.00     0.009 A 
HETATM   12  C   UNL     1      60.879   7.140   3.991  1.00  0.00     0.001 A 
HETATM   13  C   UNL     1      60.604   7.967   2.905  1.00  0.00     0.000 A 
HETATM   14  C   UNL     1      61.507   8.963   2.544  1.00  0.00     0.001 A 
HETATM   15  C   UNL     1      62.679   9.145   3.283  1.00  0.00     0.009 A 
ENDBRANCH   9  10
ENDBRANCH   8   9
ENDBRANCH   4   8
BRANCH   1  16
HETATM   16  N   UNL     1      67.102   8.735   7.436  1.00  0.00    -0.383 N 
HETATM   17  H   UNL     1      67.975   8.925   7.850  1.00  0.00     0.157 HD
HETATM   18  H   UNL     1      66.451   9.461   7.303  1.00  0.00     0.157 HD
ENDBRANCH   1  16
TORSDOF 4
ENDMDL
