MODEL 1
REMARK VINA RESULT:      -4.7      0.000      0.000
REMARK  1 active torsions:
REMARK  status: ('A' for Active; 'I' for Inactive)
REMARK    1  A    between atoms: C_4  and  N_6 
ROOT
HETATM    1  C   UNL     1      63.274   9.338   4.473  1.00  0.00     0.092 A 
HETATM    2  C   UNL     1      64.113   8.562   5.338  1.00  0.00     0.103 C 
HETATM    3  N   UNL     1      64.824   7.975   6.047  1.00  0.00    -0.191 NA
HETATM    4  C   UNL     1      62.914  10.654   4.839  1.00  0.00     0.048 A 
HETATM    5  C   UNL     1      62.840   8.811   3.246  1.00  0.00     0.057 A 
HETATM    6 CL   UNL     1      63.228   7.200   2.746  1.00  0.00    -0.083 Cl
HETATM    7  C   UNL     1      61.668  10.862   2.754  1.00  0.00     0.004 A 
HETATM    8  C   UNL     1      62.070  11.379   3.985  1.00  0.00     0.030 A 
HETATM    9  C   UNL     1      62.053   9.577   2.384  1.00  0.00     0.025 A 
ENDROOT
BRANCH   4  10
HETATM   10  N   UNL     1      63.171  11.180   6.118  1.00  0.00    -0.398 N 
HETATM   11  H   UNL     1      63.419  12.127   6.220  1.00  0.00     0.156 HD
HETATM   12  H   UNL     1      63.103  10.601   6.910  1.00  0.00     0.156 HD
ENDBRANCH   4  10
TORSDOF 1
ENDMDL
MODEL 2
REMARK VINA RESULT:      -4.5      2.148      2.907
REMARK  1 active torsions:
REMARK  status: ('A' for Active; 'I' for Inactive)
REMARK    1  A    between atoms: C_4  and  N_6 
ROOT
HETATM    1  C   UNL     1      62.847   9.115   3.983  1.00  0.00     0.092 A 
HETATM    2  C   UNL     1      63.359   8.482   5.162  1.00  0.00     0.103 C 
HETATM    3  N   UNL     1      63.746   7.925   6.108  1.00  0.00    -0.191 NA
HETATM    4  C   UNL     1      62.734   8.380   2.783  1.00  0.00     0.048 A 
HETATM    5  C   UNL     1      62.421  10.453   4.025  1.00  0.00     0.057 A 
HETATM    6 CL   UNL     1      62.550  11.417   5.456  1.00  0.00    -0.083 Cl
HETATM    7  C   UNL     1      61.803  10.353   1.695  1.00  0.00     0.004 A 
HETATM    8  C   UNL     1      62.254   9.033   1.639  1.00  0.00     0.030 A 
HETATM    9  C   UNL     1      61.887  11.063   2.888  1.00  0.00     0.025 A 
ENDROOT
BRANCH   4  10
HETATM   10  N   UNL     1      63.292   7.099   2.626  1.00  0.00    -0.398 N 
HETATM   11  H   UNL     1      63.669   6.829   1.758  1.00  0.00     0.156 HD
HETATM   12  H   UNL     1      63.306   6.472   3.385  1.00  0.00     0.156 HD
ENDBRANCH   4  10
TORSDOF 1
ENDMDL
MODEL 3
REMARK VINA RESULT:      -4.5      2.504      3.216
REMARK  1 active torsions:
REMARK  status: ('A' for Active; 'I' for Inactive)
REMARK    1  A    between atoms: C_4  and  N_6 
ROOT
HETATM    1  C   UNL     1      62.474   9.454   2.786  1.00  0.00     0.092 A 
HETATM    2  C   UNL     1      62.228   8.916   1.481  1.00  0.00     0.103 C 
HETATM    3  N   UNL     1      61.979   8.498   0.424  1.00  0.00    -0.191 NA
HETATM    4  C   UNL     1      61.979  10.732   3.125  1.00  0.00     0.048 A 
HETATM    5  C   UNL     1      63.171   8.700   3.744  1.00  0.00     0.057 A 
HETATM    6 CL   UNL     1      63.822   7.136   3.390  1.00  0.00    -0.083 Cl
HETATM    7  C   UNL     1      62.923  10.477   5.358  1.00  0.00     0.004 A 
HETATM    8  C   UNL     1      62.257  11.243   4.401  1.00  0.00     0.030 A 
HETATM    9  C   UNL     1      63.380   9.205   5.029  1.00  0.00     0.025 A 
ENDROOT
BRANCH   4  10
HETATM   10  N   UNL     1      61.423  11.605   2.171  1.00  0.00    -0.398 N 
HETATM   11  H   UNL     1      61.326  12.562   2.377  1.00  0.00     0.156 HD
HETATM   12  H   UNL     1      61.131  11.257   1.298  1.00  0.00     0.156 HD
ENDBRANCH   4  10
TORSDOF 1
ENDMDL
MODEL 4
REMARK VINA RESULT:      -4.5      1.639      2.251
REMARK  1 active torsions:
REMARK  status: ('A' for Active; 'I' for Inactive)
REMARK    1  A    between atoms: C_4  and  N_6 
ROOT
HETATM    1  C   UNL     1      62.983   8.851   3.532  1.00  0.00     0.092 A 
HETATM    2  C   UNL     1      63.412   7.558   3.089  1.00  0.00     0.103 C 
HETATM    3  N   UNL     1      63.809   6.517   2.751  1.00  0.00    -0.191 NA
HETATM    4  C   UNL     1      63.311   9.293   4.832  1.00  0.00     0.048 A 
HETATM    5  C   UNL     1      62.270   9.696   2.667  1.00  0.00     0.057 A 
HETATM    6 CL   UNL     1      61.817   9.210   1.069  1.00  0.00    -0.083 Cl
HETATM    7  C   UNL     1      62.174  11.400   4.373  1.00  0.00     0.004 A 
HETATM    8  C   UNL     1      62.854  10.552   5.248  1.00  0.00     0.030 A 
HETATM    9  C   UNL     1      61.881  10.972   3.082  1.00  0.00     0.025 A 
ENDROOT
BRANCH   4  10
HETATM   10  N   UNL     1      63.871   8.441   5.801  1.00  0.00    -0.398 N 
HETATM   11  H   UNL     1      63.617   7.491   5.827  1.00  0.00     0.156 HD
HETATM   12  H   UNL     1      64.517   8.797   6.454  1.00  0.00     0.156 HD
ENDBRANCH   4  10
TORSDOF 1
ENDMDL
MODEL 5
REMARK VINA RESULT:      -4.3      2.162      3.005
REMARK  1 active torsions:
REMARK  status: ('A' for Active; 'I' for Inactive)
REMARK    1  A    between atoms: C_4  and  N_6 
ROOT
HETATM    1  C   UNL     1      63.709   8.749   4.398  1.00  0.00     0.092 A 
HETATM    2  C   UNL     1      64.822   8.727   5.302  1.00  0.00     0.103 C 
HETATM    3  N   UNL     1      65.716   8.657   6.042  1.00  0.00    -0.191 NA
HETATM    4  C   UNL     1      63.541   7.703   3.465  1.00  0.00     0.048 A 
HETATM    5  C   UNL     1      62.764   9.786   4.463  1.00  0.00     0.057 A 
HETATM    6 CL   UNL     1      62.920  11.108   5.569  1.00  0.00    -0.083 Cl
HETATM    7  C   UNL     1      61.506   8.781   2.666  1.00  0.00     0.004 A 
HETATM    8  C   UNL     1      62.458   7.765   2.576  1.00  0.00     0.030 A 
HETATM    9  C   UNL     1      61.659   9.792   3.610  1.00  0.00     0.025 A 
ENDROOT
BRANCH   4  10
HETATM   10  N   UNL     1      64.531   6.731   3.233  1.00  0.00    -0.398 N 
HETATM   11  H   UNL     1      65.276   6.625   3.868  1.00  0.00     0.156 HD
HETATM   12  H   UNL     1      64.479   6.157   2.435  1.00  0.00     0.156 HD
ENDBRANCH   4  10
TORSDOF 1
ENDMDL
MODEL 6
REMARK VINA RESULT:      -4.1      2.686      3.191
REMARK  1 active torsions:
REMARK  status: ('A' for Active; 'I' for Inactive)
REMARK    1  A    between atoms: C_4  and  N_6 
ROOT
HETATM    1  C   UNL     1      62.522   8.731   2.890  1.00  0.00     0.092 A 
HETATM    2  C   UNL     1      62.840   7.338   2.782  1.00  0.00     0.103 C 
HETATM    3  N   UNL     1      63.056   6.201   2.662  1.00  0.00    -0.191 NA
HETATM    4  C   UNL     1      62.143   9.457   1.740  1.00  0.00     0.048 A 
HETATM    5  C   UNL     1      62.548   9.369   4.141  1.00  0.00     0.057 A 
HETATM    6 CL   UNL     1      63.023   8.544   5.587  1.00  0.00    -0.083 Cl
HETATM    7  C   UNL     1      61.861  11.445   3.122  1.00  0.00     0.004 A 
HETATM    8  C   UNL     1      61.863  10.824   1.872  1.00  0.00     0.030 A 
HETATM    9  C   UNL     1      62.203  10.717   4.257  1.00  0.00     0.025 A 
ENDROOT
BRANCH   4  10
HETATM   10  N   UNL     1      62.257   8.929   0.441  1.00  0.00    -0.398 N 
HETATM   11  H   UNL     1      63.105   8.524   0.147  1.00  0.00     0.156 HD
HETATM   12  H   UNL     1      61.489   8.965  -0.173  1.00  0.00     0.156 HD
ENDBRANCH   4  10
TORSDOF 1
ENDMDL
MODEL 7
REMARK VINA RESULT:      -3.9      2.756      4.732
REMARK  1 active torsions:
REMARK  status: ('A' for Active; 'I' for Inactive)
REMARK    1  A    between atoms: C_4  and  N_6 
ROOT
HETATM    1  C   UNL     1      65.502   7.723   5.103  1.00  0.00     0.092 A 
HETATM    2  C   UNL     1      64.532   8.763   5.278  1.00  0.00     0.103 C 
HETATM    3  N   UNL     1      63.746   9.599   5.472  1.00  0.00    -0.191 NA
HETATM    4  C   UNL     1      66.581   7.609   6.007  1.00  0.00     0.048 A 
HETATM    5  C   UNL     1      65.363   6.792   4.061  1.00  0.00     0.057 A 
HETATM    6 CL   UNL     1      64.076   6.885   2.908  1.00  0.00    -0.083 Cl
HETATM    7  C   UNL     1      67.368   5.656   4.777  1.00  0.00     0.004 A 
HETATM    8  C   UNL     1      67.529   6.597   5.795  1.00  0.00     0.030 A 
HETATM    9  C   UNL     1      66.284   5.754   3.910  1.00  0.00     0.025 A 
ENDROOT
BRANCH   4  10
HETATM   10  N   UNL     1      66.874   8.598   6.963  1.00  0.00    -0.398 N 
HETATM   11  H   UNL     1      66.159   9.186   7.297  1.00  0.00     0.156 HD
HETATM   12  H   UNL     1      67.793   8.701   7.298  1.00  0.00     0.156 HD
ENDBRANCH   4  10
TORSDOF 1
ENDMDL
MODEL 8
REMARK VINA RESULT:      -3.6      4.786      6.687
REMARK  1 active torsions:
REMARK  status: ('A' for Active; 'I' for Inactive)
REMARK    1  A    between atoms: C_4  and  N_6 
ROOT
HETATM    1  C   UNL     1      65.731   6.025   7.331  1.00  0.00     0.092 A 
HETATM    2  C   UNL     1      64.537   6.716   6.946  1.00  0.00     0.103 C 
HETATM    3  N   UNL     1      63.576   7.313   6.672  1.00  0.00    -0.191 NA
HETATM    4  C   UNL     1      66.895   6.757   7.652  1.00  0.00     0.048 A 
HETATM    5  C   UNL     1      65.739   4.624   7.430  1.00  0.00     0.057 A 
HETATM    6 CL   UNL     1      64.355   3.664   7.033  1.00  0.00    -0.083 Cl
HETATM    7  C   UNL     1      68.049   4.663   8.126  1.00  0.00     0.004 A 
HETATM    8  C   UNL     1      68.056   6.053   8.000  1.00  0.00     0.030 A 
HETATM    9  C   UNL     1      66.890   3.948   7.841  1.00  0.00     0.025 A 
ENDROOT
BRANCH   4  10
HETATM   10  N   UNL     1      67.007   8.139   7.415  1.00  0.00    -0.398 N 
HETATM   11  H   UNL     1      66.974   8.772   8.168  1.00  0.00     0.156 HD
HETATM   12  H   UNL     1      67.118   8.473   6.495  1.00  0.00     0.156 HD
ENDBRANCH   4  10
TORSDOF 1
ENDMDL
MODEL 9
REMARK VINA RESULT:      -3.6     12.273     13.319
REMARK  1 active torsions:
REMARK  status: ('A' for Active; 'I' for Inactive)
REMARK    1  A    between atoms: C_4  and  N_6 
ROOT
HETATM    1  C   UNL     1      56.916   2.127  12.645  1.00  0.00     0.092 A 
HETATM    2  C   UNL     1      55.737   2.684  12.053  1.00  0.00     0.103 C 
HETATM    3  N   UNL     1      54.755   3.089  11.578  1.00  0.00    -0.191 NA
HETATM    4  C   UNL     1      56.807   1.300  13.784  1.00  0.00     0.048 A 
HETATM    5  C   UNL     1      58.177   2.368  12.076  1.00  0.00     0.057 A 
HETATM    6 CL   UNL     1      58.384   3.387  10.693  1.00  0.00    -0.083 Cl
HETATM    7  C   UNL     1      59.227   1.007  13.770  1.00  0.00     0.004 A 
HETATM    8  C   UNL     1      57.980   0.790  14.358  1.00  0.00     0.030 A 
HETATM    9  C   UNL     1      59.325   1.796  12.628  1.00  0.00     0.025 A 
ENDROOT
BRANCH   4  10
HETATM   10  N   UNL     1      55.605   1.154  14.501  1.00  0.00    -0.398 N 
HETATM   11  H   UNL     1      55.224   0.258  14.646  1.00  0.00     0.156 HD
HETATM   12  H   UNL     1      55.144   1.948  14.855  1.00  0.00     0.156 HD
ENDBRANCH   4  10
TORSDOF 1
ENDMDL
