MODEL 1
REMARK VINA RESULT:      -5.8      0.000      0.000
REMARK  3 active torsions:
REMARK  status: ('A' for Active; 'I' for Inactive)
REMARK    1  A    between atoms: C_1  and  C_2 
REMARK    2  A    between atoms: C_2  and  C_3 
REMARK    3  A    between atoms: C_2  and  O_10 
ROOT
HETATM    1  C   UNL     1      62.980   8.989   4.108  1.00  0.00    -0.013 A 
HETATM    2  C   UNL     1      62.593  10.332   4.297  1.00  0.00    -0.053 A 
HETATM    3  C   UNL     1      62.769   8.398   2.839  1.00  0.00     0.017 A 
HETATM    4  C   UNL     1      62.007  11.030   3.224  1.00  0.00     0.008 A 
HETATM    5  C   UNL     1      62.188   9.103   1.780  1.00  0.00    -0.061 A 
HETATM    6  C   UNL     1      61.805  10.426   1.984  1.00  0.00     0.007 A 
HETATM    7  C   UNL     1      62.754  11.100   5.583  1.00  0.00     0.049 C 
HETATM    8  C   UNL     1      61.971   8.455   0.444  1.00  0.00     0.048 C 
ENDROOT
BRANCH   1   9
HETATM    9  C   UNL     1      63.601   8.131   5.197  1.00  0.00     0.252 C 
BRANCH   9  10
HETATM   10  C   UNL     1      65.107   8.407   5.357  1.00  0.00     0.207 C 
HETATM   11  O   UNL     1      65.611   9.237   6.098  1.00  0.00    -0.646 OA
HETATM   12  O   UNL     1      65.885   7.636   4.567  1.00  0.00    -0.646 OA
ENDBRANCH   9  10
BRANCH   9  13
HETATM   13  O   UNL     1      62.867   8.334   6.406  1.00  0.00    -0.380 OA
HETATM   14  H   UNL     1      62.615   7.474   6.779  1.00  0.00     0.211 HD
ENDBRANCH   9  13
ENDBRANCH   1   9
TORSDOF 3
ENDMDL
MODEL 2
REMARK VINA RESULT:      -5.8      0.949      2.577
REMARK  3 active torsions:
REMARK  status: ('A' for Active; 'I' for Inactive)
REMARK    1  A    between atoms: C_1  and  C_2 
REMARK    2  A    between atoms: C_2  and  C_3 
REMARK    3  A    between atoms: C_2  and  O_10 
ROOT
HETATM    1  C   UNL     1      62.982   8.475   3.711  1.00  0.00    -0.013 A 
HETATM    2  C   UNL     1      62.881   7.583   2.623  1.00  0.00    -0.053 A 
HETATM    3  C   UNL     1      62.574   9.817   3.525  1.00  0.00     0.017 A 
HETATM    4  C   UNL     1      62.388   8.061   1.394  1.00  0.00     0.008 A 
HETATM    5  C   UNL     1      62.084  10.280   2.299  1.00  0.00    -0.061 A 
HETATM    6  C   UNL     1      61.995   9.389   1.232  1.00  0.00     0.007 A 
HETATM    7  C   UNL     1      63.270   6.129   2.664  1.00  0.00     0.049 C 
HETATM    8  C   UNL     1      61.660  11.709   2.123  1.00  0.00     0.048 C 
ENDROOT
BRANCH   1   9
HETATM    9  C   UNL     1      63.519   8.078   5.076  1.00  0.00     0.252 C 
BRANCH   9  10
HETATM   10  C   UNL     1      65.039   8.292   5.180  1.00  0.00     0.207 C 
HETATM   11  O   UNL     1      65.900   7.593   4.669  1.00  0.00    -0.646 OA
HETATM   12  O   UNL     1      65.386   9.359   5.933  1.00  0.00    -0.646 OA
ENDBRANCH   9  10
BRANCH   9  13
HETATM   13  O   UNL     1      62.787   8.792   6.074  1.00  0.00    -0.380 OA
HETATM   14  H   UNL     1      62.064   9.284   5.654  1.00  0.00     0.211 HD
ENDBRANCH   9  13
ENDBRANCH   1   9
TORSDOF 3
ENDMDL
MODEL 3
REMARK VINA RESULT:      -5.8      0.893      1.768
REMARK  3 active torsions:
REMARK  status: ('A' for Active; 'I' for Inactive)
REMARK    1  A    between atoms: C_1  and  C_2 
REMARK    2  A    between atoms: C_2  and  C_3 
REMARK    3  A    between atoms: C_2  and  O_10 
ROOT
HETATM    1  C   UNL     1      63.182   8.984   4.056  1.00  0.00    -0.013 A 
HETATM    2  C   UNL     1      62.674  10.280   4.280  1.00  0.00    -0.053 A 
HETATM    3  C   UNL     1      62.950   8.374   2.800  1.00  0.00     0.017 A 
HETATM    4  C   UNL     1      61.951  10.915   3.251  1.00  0.00     0.008 A 
HETATM    5  C   UNL     1      62.231   9.016   1.785  1.00  0.00    -0.061 A 
HETATM    6  C   UNL     1      61.731  10.293   2.023  1.00  0.00     0.007 A 
HETATM    7  C   UNL     1      62.840  11.061   5.557  1.00  0.00     0.049 C 
HETATM    8  C   UNL     1      61.994   8.349   0.463  1.00  0.00     0.048 C 
ENDROOT
BRANCH   1   9
HETATM    9  C   UNL     1      63.958   8.193   5.097  1.00  0.00     0.252 C 
BRANCH   9  10
HETATM   10  C   UNL     1      63.026   7.384   6.016  1.00  0.00     0.207 C 
HETATM   11  O   UNL     1      62.546   7.768   7.072  1.00  0.00    -0.646 OA
HETATM   12  O   UNL     1      62.767   6.139   5.563  1.00  0.00    -0.646 OA
ENDBRANCH   9  10
BRANCH   9  13
HETATM   13  O   UNL     1      64.919   7.379   4.422  1.00  0.00    -0.380 OA
HETATM   14  H   UNL     1      65.445   7.931   3.823  1.00  0.00     0.211 HD
ENDBRANCH   9  13
ENDBRANCH   1   9
TORSDOF 3
ENDMDL
MODEL 4
REMARK VINA RESULT:      -5.5      1.309      2.192
REMARK  3 active torsions:
REMARK  status: ('A' for Active; 'I' for Inactive)
REMARK    1  A    between atoms: C_1  and  C_2 
REMARK    2  A    between atoms: C_2  and  C_3 
REMARK    3  A    between atoms: C_2  and  O_10 
ROOT
HETATM    1  C   UNL     1      62.810   9.014   3.799  1.00  0.00    -0.013 A 
HETATM    2  C   UNL     1      62.205  10.098   3.129  1.00  0.00    -0.053 A 
HETATM    3  C   UNL     1      63.070   7.829   3.070  1.00  0.00     0.017 A 
HETATM    4  C   UNL     1      61.876   9.958   1.767  1.00  0.00     0.008 A 
HETATM    5  C   UNL     1      62.740   7.704   1.716  1.00  0.00    -0.061 A 
HETATM    6  C   UNL     1      62.138   8.780   1.069  1.00  0.00     0.007 A 
HETATM    7  C   UNL     1      61.868  11.421   3.763  1.00  0.00     0.049 C 
HETATM    8  C   UNL     1      63.023   6.437   0.964  1.00  0.00     0.048 C 
ENDROOT
BRANCH   1   9
HETATM    9  C   UNL     1      63.188   9.041   5.271  1.00  0.00     0.252 C 
BRANCH   9  10
HETATM   10  C   UNL     1      62.816   7.729   5.983  1.00  0.00     0.207 C 
HETATM   11  O   UNL     1      61.793   7.084   5.814  1.00  0.00    -0.646 OA
HETATM   12  O   UNL     1      63.741   7.317   6.876  1.00  0.00    -0.646 OA
ENDBRANCH   9  10
BRANCH   9  13
HETATM   13  O   UNL     1      64.579   9.355   5.373  1.00  0.00    -0.380 OA
HETATM   14  H   UNL     1      64.681  10.296   5.589  1.00  0.00     0.211 HD
ENDBRANCH   9  13
ENDBRANCH   1   9
TORSDOF 3
ENDMDL
MODEL 5
REMARK VINA RESULT:      -5.2      2.791      4.039
REMARK  3 active torsions:
REMARK  status: ('A' for Active; 'I' for Inactive)
REMARK    1  A    between atoms: C_1  and  C_2 
REMARK    2  A    between atoms: C_2  and  C_3 
REMARK    3  A    between atoms: C_2  and  O_10 
ROOT
HETATM    1  C   UNL     1      62.832   8.985   3.838  1.00  0.00    -0.013 A 
HETATM    2  C   UNL     1      63.561   9.505   4.927  1.00  0.00    -0.053 A 
HETATM    3  C   UNL     1      63.264   7.770   3.254  1.00  0.00     0.017 A 
HETATM    4  C   UNL     1      64.692   8.803   5.387  1.00  0.00     0.008 A 
HETATM    5  C   UNL     1      64.388   7.081   3.721  1.00  0.00    -0.061 A 
HETATM    6  C   UNL     1      65.101   7.610   4.794  1.00  0.00     0.007 A 
HETATM    7  C   UNL     1      63.228  10.781   5.655  1.00  0.00     0.049 C 
HETATM    8  C   UNL     1      64.829   5.796   3.085  1.00  0.00     0.048 C 
ENDROOT
BRANCH   1   9
HETATM    9  C   UNL     1      61.610   9.665   3.242  1.00  0.00     0.252 C 
BRANCH   9  10
HETATM   10  C   UNL     1      61.932  10.358   1.906  1.00  0.00     0.207 C 
HETATM   11  O   UNL     1      62.118   9.803   0.835  1.00  0.00    -0.646 OA
HETATM   12  O   UNL     1      62.017  11.702   2.001  1.00  0.00    -0.646 OA
ENDBRANCH   9  10
BRANCH   9  13
HETATM   13  O   UNL     1      60.565   8.697   3.130  1.00  0.00    -0.380 OA
HETATM   14  H   UNL     1      59.821   8.958   3.695  1.00  0.00     0.211 HD
ENDBRANCH   9  13
ENDBRANCH   1   9
TORSDOF 3
ENDMDL
MODEL 6
REMARK VINA RESULT:      -5.1      2.198      3.875
REMARK  3 active torsions:
REMARK  status: ('A' for Active; 'I' for Inactive)
REMARK    1  A    between atoms: C_1  and  C_2 
REMARK    2  A    between atoms: C_2  and  C_3 
REMARK    3  A    between atoms: C_2  and  O_10 
ROOT
HETATM    1  C   UNL     1      62.647   8.654   4.525  1.00  0.00    -0.013 A 
HETATM    2  C   UNL     1      61.941   8.473   3.318  1.00  0.00    -0.053 A 
HETATM    3  C   UNL     1      62.446   7.723   5.572  1.00  0.00     0.017 A 
HETATM    4  C   UNL     1      61.058   7.382   3.202  1.00  0.00     0.008 A 
HETATM    5  C   UNL     1      61.567   6.641   5.444  1.00  0.00    -0.061 A 
HETATM    6  C   UNL     1      60.872   6.479   4.248  1.00  0.00     0.007 A 
HETATM    7  C   UNL     1      62.049   9.373   2.115  1.00  0.00     0.049 C 
HETATM    8  C   UNL     1      61.367   5.668   6.568  1.00  0.00     0.048 C 
ENDROOT
BRANCH   1   9
HETATM    9  C   UNL     1      63.608   9.805   4.773  1.00  0.00     0.252 C 
BRANCH   9  10
HETATM   10  C   UNL     1      62.889  11.043   5.337  1.00  0.00     0.207 C 
HETATM   11  O   UNL     1      62.074  11.732   4.745  1.00  0.00    -0.646 OA
HETATM   12  O   UNL     1      63.250  11.349   6.602  1.00  0.00    -0.646 OA
ENDBRANCH   9  10
BRANCH   9  13
HETATM   13  O   UNL     1      64.662   9.339   5.619  1.00  0.00    -0.380 OA
HETATM   14  H   UNL     1      64.633   8.371   5.666  1.00  0.00     0.211 HD
ENDBRANCH   9  13
ENDBRANCH   1   9
TORSDOF 3
ENDMDL
MODEL 7
REMARK VINA RESULT:      -4.9      1.918      3.698
REMARK  3 active torsions:
REMARK  status: ('A' for Active; 'I' for Inactive)
REMARK    1  A    between atoms: C_1  and  C_2 
REMARK    2  A    between atoms: C_2  and  C_3 
REMARK    3  A    between atoms: C_2  and  O_10 
ROOT
HETATM    1  C   UNL     1      65.094   8.074   4.963  1.00  0.00    -0.013 A 
HETATM    2  C   UNL     1      65.005   7.012   4.040  1.00  0.00    -0.053 A 
HETATM    3  C   UNL     1      64.101   9.082   4.932  1.00  0.00     0.017 A 
HETATM    4  C   UNL     1      63.939   6.997   3.120  1.00  0.00     0.008 A 
HETATM    5  C   UNL     1      63.045   9.055   4.014  1.00  0.00    -0.061 A 
HETATM    6  C   UNL     1      62.973   8.002   3.105  1.00  0.00     0.007 A 
HETATM    7  C   UNL     1      65.979   5.867   3.950  1.00  0.00     0.049 C 
HETATM    8  C   UNL     1      62.004  10.135   3.997  1.00  0.00     0.048 C 
ENDROOT
BRANCH   1   9
HETATM    9  C   UNL     1      66.210   8.208   5.987  1.00  0.00     0.252 C 
BRANCH   9  10
HETATM   10  C   UNL     1      66.149   7.099   7.051  1.00  0.00     0.207 C 
HETATM   11  O   UNL     1      67.074   6.377   7.391  1.00  0.00    -0.646 OA
HETATM   12  O   UNL     1      64.929   6.952   7.611  1.00  0.00    -0.646 OA
ENDBRANCH   9  10
BRANCH   9  13
HETATM   13  O   UNL     1      67.458   8.246   5.292  1.00  0.00    -0.380 OA
HETATM   14  H   UNL     1      68.185   8.211   5.933  1.00  0.00     0.211 HD
ENDBRANCH   9  13
ENDBRANCH   1   9
TORSDOF 3
ENDMDL
MODEL 8
REMARK VINA RESULT:      -4.8      3.017      4.345
REMARK  3 active torsions:
REMARK  status: ('A' for Active; 'I' for Inactive)
REMARK    1  A    between atoms: C_1  and  C_2 
REMARK    2  A    between atoms: C_2  and  C_3 
REMARK    3  A    between atoms: C_2  and  O_10 
ROOT
HETATM    1  C   UNL     1      61.784   9.206   2.622  1.00  0.00    -0.013 A 
HETATM    2  C   UNL     1      61.975  10.562   2.955  1.00  0.00    -0.053 A 
HETATM    3  C   UNL     1      62.090   8.222   3.593  1.00  0.00     0.017 A 
HETATM    4  C   UNL     1      62.468  10.887   4.233  1.00  0.00     0.008 A 
HETATM    5  C   UNL     1      62.578   8.558   4.861  1.00  0.00    -0.061 A 
HETATM    6  C   UNL     1      62.767   9.902   5.173  1.00  0.00     0.007 A 
HETATM    7  C   UNL     1      61.693  11.721   2.036  1.00  0.00     0.049 C 
HETATM    8  C   UNL     1      62.899   7.498   5.873  1.00  0.00     0.048 C 
ENDROOT
BRANCH   1   9
HETATM    9  C   UNL     1      61.278   8.734   1.269  1.00  0.00     0.252 C 
BRANCH   9  10
HETATM   10  C   UNL     1      61.808   7.334   0.913  1.00  0.00     0.207 C 
HETATM   11  O   UNL     1      62.939   7.068   0.536  1.00  0.00    -0.646 OA
HETATM   12  O   UNL     1      60.883   6.358   1.034  1.00  0.00    -0.646 OA
ENDBRANCH   9  10
BRANCH   9  13
HETATM   13  O   UNL     1      59.851   8.806   1.270  1.00  0.00    -0.380 OA
HETATM   14  H   UNL     1      59.528   8.795   2.185  1.00  0.00     0.211 HD
ENDBRANCH   9  13
ENDBRANCH   1   9
TORSDOF 3
ENDMDL
MODEL 9
REMARK VINA RESULT:      -4.8      2.530      3.687
REMARK  3 active torsions:
REMARK  status: ('A' for Active; 'I' for Inactive)
REMARK    1  A    between atoms: C_1  and  C_2 
REMARK    2  A    between atoms: C_2  and  C_3 
REMARK    3  A    between atoms: C_2  and  O_10 
ROOT
HETATM    1  C   UNL     1      61.608   8.560   3.206  1.00  0.00    -0.013 A 
HETATM    2  C   UNL     1      61.390   8.725   1.823  1.00  0.00    -0.053 A 
HETATM    3  C   UNL     1      60.661   7.822   3.956  1.00  0.00     0.017 A 
HETATM    4  C   UNL     1      60.239   8.158   1.242  1.00  0.00     0.008 A 
HETATM    5  C   UNL     1      59.522   7.261   3.367  1.00  0.00    -0.061 A 
HETATM    6  C   UNL     1      59.318   7.438   2.001  1.00  0.00     0.007 A 
HETATM    7  C   UNL     1      62.303   9.478   0.892  1.00  0.00     0.049 C 
HETATM    8  C   UNL     1      58.531   6.485   4.182  1.00  0.00     0.048 C 
ENDROOT
BRANCH   1   9
HETATM    9  C   UNL     1      62.800   9.144   3.946  1.00  0.00     0.252 C 
BRANCH   9  10
HETATM   10  C   UNL     1      62.462  10.492   4.608  1.00  0.00     0.207 C 
HETATM   11  O   UNL     1      61.744  11.362   4.141  1.00  0.00    -0.646 OA
HETATM   12  O   UNL     1      63.060  10.671   5.805  1.00  0.00    -0.646 OA
ENDBRANCH   9  10
BRANCH   9  13
HETATM   13  O   UNL     1      63.276   8.170   4.877  1.00  0.00    -0.380 OA
HETATM   14  H   UNL     1      63.983   8.557   5.416  1.00  0.00     0.211 HD
ENDBRANCH   9  13
ENDBRANCH   1   9
TORSDOF 3
ENDMDL
