MODEL 1
REMARK VINA RESULT:      -5.0      0.000      0.000
REMARK  0 active torsions:
REMARK  status: ('A' for Active; 'I' for Inactive)
ROOT
HETATM    1  N   UNL     1      62.095  11.941   4.226  1.00  0.00    -0.071 N 
HETATM    2  C   UNL     1      62.212   9.666   2.182  1.00  0.00    -0.026 A 
HETATM    3  C   UNL     1      62.939   8.657   3.266  1.00  0.00    -0.049 A 
HETATM    4  C   UNL     1      61.764  11.419   2.611  1.00  0.00     0.271 A 
HETATM    5  C   UNL     1      62.848  10.997   5.461  1.00  0.00     0.237 A 
HETATM    6  C   UNL     1      63.359   9.208   4.980  1.00  0.00     0.066 A 
HETATM    7  C   UNL     1      61.923   9.146   0.928  1.00  0.00     0.009 A 
HETATM    8  C   UNL     1      63.208   7.364   2.844  1.00  0.00     0.007 A 
HETATM    9  C   UNL     1      62.232   7.813   0.630  1.00  0.00     0.001 A 
HETATM   10  C   UNL     1      62.852   6.953   1.555  1.00  0.00     0.001 A 
HETATM   11  H   UNL     1      61.190  12.211   4.612  1.00  0.00     0.277 HD
HETATM   12  H   UNL     1      62.838  12.615   4.043  1.00  0.00     0.277 HD
ENDROOT
TORSDOF 0
ENDMDL
MODEL 2
REMARK VINA RESULT:      -4.9      1.204      2.525
REMARK  0 active torsions:
REMARK  status: ('A' for Active; 'I' for Inactive)
ROOT
HETATM    1  N   UNL     1      63.612   9.571   5.763  1.00  0.00    -0.071 N 
HETATM    2  C   UNL     1      63.040   8.127   3.126  1.00  0.00    -0.026 A 
HETATM    3  C   UNL     1      62.205   9.422   2.536  1.00  0.00    -0.049 A 
HETATM    4  C   UNL     1      63.786   8.126   4.830  1.00  0.00     0.271 A 
HETATM    5  C   UNL     1      62.768  10.996   5.276  1.00  0.00     0.237 A 
HETATM    6  C   UNL     1      61.952  10.956   3.536  1.00  0.00     0.066 A 
HETATM    7  C   UNL     1      63.188   7.032   2.286  1.00  0.00     0.009 A 
HETATM    8  C   UNL     1      61.711   9.320   1.244  1.00  0.00     0.007 A 
HETATM    9  C   UNL     1      62.653   7.061   0.992  1.00  0.00     0.001 A 
HETATM   10  C   UNL     1      61.941   8.165   0.489  1.00  0.00     0.001 A 
HETATM   11  H   UNL     1      64.565   9.879   5.960  1.00  0.00     0.277 HD
HETATM   12  H   UNL     1      62.982   9.234   6.491  1.00  0.00     0.277 HD
ENDROOT
TORSDOF 0
ENDMDL
MODEL 3
REMARK VINA RESULT:      -4.8      2.027      4.636
REMARK  0 active torsions:
REMARK  status: ('A' for Active; 'I' for Inactive)
ROOT
HETATM    1  N   UNL     1      63.152   6.487   1.671  1.00  0.00    -0.071 N 
HETATM    2  C   UNL     1      63.119   8.755   3.726  1.00  0.00    -0.026 A 
HETATM    3  C   UNL     1      62.242   9.725   2.720  1.00  0.00    -0.049 A 
HETATM    4  C   UNL     1      63.657   7.046   3.227  1.00  0.00     0.271 A 
HETATM    5  C   UNL     1      62.236   7.389   0.519  1.00  0.00     0.237 A 
HETATM    6  C   UNL     1      61.741   9.175   1.028  1.00  0.00     0.066 A 
HETATM    7  C   UNL     1      63.426   9.258   4.982  1.00  0.00     0.009 A 
HETATM    8  C   UNL     1      61.877  10.972   3.204  1.00  0.00     0.007 A 
HETATM    9  C   UNL     1      62.983  10.532   5.358  1.00  0.00     0.001 A 
HETATM   10  C   UNL     1      62.235  11.359   4.500  1.00  0.00     0.001 A 
HETATM   11  H   UNL     1      62.600   5.648   1.854  1.00  0.00     0.277 HD
HETATM   12  H   UNL     1      64.053   6.458   1.195  1.00  0.00     0.277 HD
ENDROOT
TORSDOF 0
ENDMDL
MODEL 4
REMARK VINA RESULT:      -4.7      2.006      3.970
REMARK  0 active torsions:
REMARK  status: ('A' for Active; 'I' for Inactive)
ROOT
HETATM    1  N   UNL     1      62.513   7.301   0.531  1.00  0.00    -0.071 N 
HETATM    2  C   UNL     1      62.270   9.505   2.641  1.00  0.00    -0.026 A 
HETATM    3  C   UNL     1      63.140   8.628   3.735  1.00  0.00    -0.049 A 
HETATM    4  C   UNL     1      61.878   8.856   0.943  1.00  0.00     0.271 A 
HETATM    5  C   UNL     1      63.435   6.276   1.571  1.00  0.00     0.237 A 
HETATM    6  C   UNL     1      63.778   6.938   3.342  1.00  0.00     0.066 A 
HETATM    7  C   UNL     1      61.855  10.771   3.031  1.00  0.00     0.009 A 
HETATM    8  C   UNL     1      63.391   9.220   4.964  1.00  0.00     0.007 A 
HETATM    9  C   UNL     1      62.189  11.262   4.299  1.00  0.00     0.001 A 
HETATM   10  C   UNL     1      62.930  10.513   5.231  1.00  0.00     0.001 A 
HETATM   11  H   UNL     1      63.107   7.461  -0.282  1.00  0.00     0.277 HD
HETATM   12  H   UNL     1      61.646   6.766   0.482  1.00  0.00     0.277 HD
ENDROOT
TORSDOF 0
ENDMDL
MODEL 5
REMARK VINA RESULT:      -4.5      2.262      3.669
REMARK  0 active torsions:
REMARK  status: ('A' for Active; 'I' for Inactive)
ROOT
HETATM    1  N   UNL     1      63.422   5.962   3.350  1.00  0.00    -0.071 N 
HETATM    2  C   UNL     1      62.476   8.744   2.495  1.00  0.00    -0.026 A 
HETATM    3  C   UNL     1      62.536   9.301   4.047  1.00  0.00    -0.049 A 
HETATM    4  C   UNL     1      62.903   6.988   2.058  1.00  0.00     0.271 A 
HETATM    5  C   UNL     1      63.531   6.407   5.014  1.00  0.00     0.237 A 
HETATM    6  C   UNL     1      63.028   8.209   5.455  1.00  0.00     0.066 A 
HETATM    7  C   UNL     1      62.112   9.653   1.510  1.00  0.00     0.009 A 
HETATM    8  C   UNL     1      62.217  10.634   4.253  1.00  0.00     0.007 A 
HETATM    9  C   UNL     1      61.829  10.982   1.848  1.00  0.00     0.001 A 
HETATM   10  C   UNL     1      61.880  11.455   3.171  1.00  0.00     0.001 A 
HETATM   11  H   UNL     1      64.361   5.659   3.091  1.00  0.00     0.277 HD
HETATM   12  H   UNL     1      62.630   5.321   3.392  1.00  0.00     0.277 HD
ENDROOT
TORSDOF 0
ENDMDL
MODEL 6
REMARK VINA RESULT:      -4.5      2.002      3.923
REMARK  0 active torsions:
REMARK  status: ('A' for Active; 'I' for Inactive)
ROOT
HETATM    1  N   UNL     1      63.462   6.732   5.286  1.00  0.00    -0.071 N 
HETATM    2  C   UNL     1      62.608   9.415   4.085  1.00  0.00    -0.026 A 
HETATM    3  C   UNL     1      62.574   8.783   2.561  1.00  0.00    -0.049 A 
HETATM    4  C   UNL     1      63.093   8.399   5.565  1.00  0.00     0.271 A 
HETATM    5  C   UNL     1      63.468   5.940   3.753  1.00  0.00     0.237 A 
HETATM    6  C   UNL     1      63.023   7.021   2.227  1.00  0.00     0.066 A 
HETATM    7  C   UNL     1      62.235  10.744   4.227  1.00  0.00     0.009 A 
HETATM    8  C   UNL     1      62.176   9.627   1.535  1.00  0.00     0.007 A 
HETATM    9  C   UNL     1      61.836  11.487   3.110  1.00  0.00     0.001 A 
HETATM   10  C   UNL     1      61.807  10.948   1.811  1.00  0.00     0.001 A 
HETATM   11  H   UNL     1      62.793   6.212   5.854  1.00  0.00     0.277 HD
HETATM   12  H   UNL     1      64.462   6.740   5.484  1.00  0.00     0.277 HD
ENDROOT
TORSDOF 0
ENDMDL
MODEL 7
REMARK VINA RESULT:      -4.4      1.214      1.776
REMARK  0 active torsions:
REMARK  status: ('A' for Active; 'I' for Inactive)
ROOT
HETATM    1  N   UNL     1      61.501  11.076   2.683  1.00  0.00    -0.071 N 
HETATM    2  C   UNL     1      62.682   8.288   2.232  1.00  0.00    -0.026 A 
HETATM    3  C   UNL     1      63.365   8.276   3.734  1.00  0.00    -0.049 A 
HETATM    4  C   UNL     1      61.709   9.742   1.602  1.00  0.00     0.271 A 
HETATM    5  C   UNL     1      62.157  11.199   4.275  1.00  0.00     0.237 A 
HETATM    6  C   UNL     1      63.210   9.713   4.887  1.00  0.00     0.066 A 
HETATM    7  C   UNL     1      62.843   7.150   1.454  1.00  0.00     0.009 A 
HETATM    8  C   UNL     1      64.050   7.130   4.108  1.00  0.00     0.007 A 
HETATM    9  C   UNL     1      63.546   6.048   1.955  1.00  0.00     0.001 A 
HETATM   10  C   UNL     1      64.129   6.038   3.236  1.00  0.00     0.001 A 
HETATM   11  H   UNL     1      60.493  11.171   2.801  1.00  0.00     0.277 HD
HETATM   12  H   UNL     1      62.067  11.777   2.206  1.00  0.00     0.277 HD
ENDROOT
TORSDOF 0
ENDMDL
MODEL 8
REMARK VINA RESULT:      -4.0      2.227      3.394
REMARK  0 active torsions:
REMARK  status: ('A' for Active; 'I' for Inactive)
ROOT
HETATM    1  N   UNL     1      64.954   6.330   4.612  1.00  0.00    -0.071 N 
HETATM    2  C   UNL     1      63.139   7.537   2.464  1.00  0.00    -0.026 A 
HETATM    3  C   UNL     1      62.895   8.901   3.361  1.00  0.00    -0.049 A 
HETATM    4  C   UNL     1      64.191   6.130   3.074  1.00  0.00     0.271 A 
HETATM    5  C   UNL     1      64.789   7.697   5.655  1.00  0.00     0.237 A 
HETATM    6  C   UNL     1      63.649   9.114   5.035  1.00  0.00     0.066 A 
HETATM    7  C   UNL     1      62.541   7.487   1.212  1.00  0.00     0.009 A 
HETATM    8  C   UNL     1      62.109   9.895   2.797  1.00  0.00     0.007 A 
HETATM    9  C   UNL     1      61.783   8.569   0.750  1.00  0.00     0.001 A 
HETATM   10  C   UNL     1      61.574   9.731   1.515  1.00  0.00     0.001 A 
HETATM   11  H   UNL     1      65.955   6.255   4.427  1.00  0.00     0.277 HD
HETATM   12  H   UNL     1      64.442   5.634   5.153  1.00  0.00     0.277 HD
ENDROOT
TORSDOF 0
ENDMDL
MODEL 9
REMARK VINA RESULT:      -4.0      1.833      3.653
REMARK  0 active torsions:
REMARK  status: ('A' for Active; 'I' for Inactive)
ROOT
HETATM    1  N   UNL     1      61.293  10.021   3.155  1.00  0.00    -0.071 N 
HETATM    2  C   UNL     1      63.755   8.620   4.315  1.00  0.00    -0.026 A 
HETATM    3  C   UNL     1      63.675   7.424   3.181  1.00  0.00    -0.049 A 
HETATM    4  C   UNL     1      62.516  10.006   4.377  1.00  0.00     0.271 A 
HETATM    5  C   UNL     1      61.089   8.840   1.912  1.00  0.00     0.237 A 
HETATM    6  C   UNL     1      62.343   7.383   1.900  1.00  0.00     0.066 A 
HETATM    7  C   UNL     1      64.807   8.567   5.219  1.00  0.00     0.009 A 
HETATM    8  C   UNL     1      64.665   6.453   3.215  1.00  0.00     0.007 A 
HETATM    9  C   UNL     1      65.754   7.539   5.137  1.00  0.00     0.001 A 
HETATM   10  C   UNL     1      65.686   6.519   4.170  1.00  0.00     0.001 A 
HETATM   11  H   UNL     1      61.416  10.907   2.664  1.00  0.00     0.277 HD
HETATM   12  H   UNL     1      60.473   9.817   3.726  1.00  0.00     0.277 HD
ENDROOT
TORSDOF 0
ENDMDL
