MODEL 1
REMARK VINA RESULT:      -4.5      0.000      0.000
REMARK  1 active torsions:
REMARK  status: ('A' for Active; 'I' for Inactive)
REMARK    1  A    between atoms: C_1  and  C_7 
ROOT
HETATM    1  C   UNL     1      62.496   9.935   4.013  1.00  0.00     0.140 A 
HETATM    2  C   UNL     1      62.192  10.039   2.602  1.00  0.00     0.098 A 
HETATM    3  N   UNL     1      62.760   8.686   4.439  1.00  0.00    -0.318 N 
ATOM      4  HN  UNL     1      62.993   8.428   5.398  1.00  0.00     0.174 HD
HETATM    5  C   UNL     1      62.249   8.798   2.015  1.00  0.00     0.115 A 
HETATM    6  S   UNL     1      62.651   7.633   3.169  1.00  0.00     0.000 SA
HETATM    7 CL   UNL     1      61.816  11.492   1.777  1.00  0.00    -0.079 Cl
HETATM    8 CL   UNL     1      61.979   8.347   0.384  1.00  0.00    -0.073 Cl
ENDROOT
BRANCH   1   9
HETATM    9  C   UNL     1      62.534  11.048   4.970  1.00  0.00     0.229 C 
HETATM   10  O   UNL     1      61.973  12.129   4.841  1.00  0.00    -0.643 OA
HETATM   11  O   UNL     1      63.267  10.823   6.089  1.00  0.00    -0.643 OA
ENDBRANCH   1   9
TORSDOF 1
ENDMDL
MODEL 2
REMARK VINA RESULT:      -4.4      2.425      2.972
REMARK  1 active torsions:
REMARK  status: ('A' for Active; 'I' for Inactive)
REMARK    1  A    between atoms: C_1  and  C_7 
ROOT
HETATM    1  C   UNL     1      62.702   8.609   4.712  1.00  0.00     0.140 A 
HETATM    2  C   UNL     1      62.538  10.021   4.439  1.00  0.00     0.098 A 
HETATM    3  N   UNL     1      62.378   7.800   3.685  1.00  0.00    -0.318 N 
ATOM      4  HN  UNL     1      62.432   6.781   3.700  1.00  0.00     0.174 HD
HETATM    5  C   UNL     1      62.079  10.205   3.158  1.00  0.00     0.115 A 
HETATM    6  S   UNL     1      61.882   8.710   2.397  1.00  0.00     0.000 SA
HETATM    7 CL   UNL     1      62.869  11.285   5.548  1.00  0.00    -0.079 Cl
HETATM    8 CL   UNL     1      61.716  11.656   2.324  1.00  0.00    -0.073 Cl
ENDROOT
BRANCH   1   9
HETATM    9  C   UNL     1      63.174   8.024   5.973  1.00  0.00     0.229 C 
HETATM   10  O   UNL     1      62.469   7.604   6.881  1.00  0.00    -0.643 OA
HETATM   11  O   UNL     1      64.523   7.960   6.110  1.00  0.00    -0.643 OA
ENDBRANCH   1   9
TORSDOF 1
ENDMDL
MODEL 3
REMARK VINA RESULT:      -4.3      2.708      2.955
REMARK  1 active torsions:
REMARK  status: ('A' for Active; 'I' for Inactive)
REMARK    1  A    between atoms: C_1  and  C_7 
ROOT
HETATM    1  C   UNL     1      61.768   9.730   3.615  1.00  0.00     0.140 A 
HETATM    2  C   UNL     1      62.671   8.822   4.290  1.00  0.00     0.098 A 
HETATM    3  N   UNL     1      60.714   9.136   3.025  1.00  0.00    -0.318 N 
ATOM      4  HN  UNL     1      59.980   9.619   2.507  1.00  0.00     0.174 HD
HETATM    5  C   UNL     1      62.222   7.530   4.164  1.00  0.00     0.115 A 
HETATM    6  S   UNL     1      60.790   7.502   3.269  1.00  0.00     0.000 SA
HETATM    7 CL   UNL     1      64.092   9.285   5.127  1.00  0.00    -0.079 Cl
HETATM    8 CL   UNL     1      62.899   6.075   4.764  1.00  0.00    -0.073 Cl
ENDROOT
BRANCH   1   9
HETATM    9  C   UNL     1      61.915  11.188   3.533  1.00  0.00     0.229 C 
HETATM   10  O   UNL     1      61.956  11.964   4.480  1.00  0.00    -0.643 OA
HETATM   11  O   UNL     1      62.012  11.689   2.276  1.00  0.00    -0.643 OA
ENDBRANCH   1   9
TORSDOF 1
ENDMDL
MODEL 4
REMARK VINA RESULT:      -4.3      1.846      1.890
REMARK  1 active torsions:
REMARK  status: ('A' for Active; 'I' for Inactive)
REMARK    1  A    between atoms: C_1  and  C_7 
ROOT
HETATM    1  C   UNL     1      63.352   9.701   4.862  1.00  0.00     0.140 A 
HETATM    2  C   UNL     1      62.925   8.977   3.683  1.00  0.00     0.098 A 
HETATM    3  N   UNL     1      64.319   9.092   5.573  1.00  0.00    -0.318 N 
ATOM      4  HN  UNL     1      64.737   9.457   6.429  1.00  0.00     0.174 HD
HETATM    5  C   UNL     1      63.632   7.804   3.569  1.00  0.00     0.115 A 
HETATM    6  S   UNL     1      64.725   7.663   4.848  1.00  0.00     0.000 SA
HETATM    7 CL   UNL     1      61.717   9.499   2.587  1.00  0.00    -0.079 Cl
HETATM    8 CL   UNL     1      63.532   6.581   2.374  1.00  0.00    -0.073 Cl
ENDROOT
BRANCH   1   9
HETATM    9  C   UNL     1      62.827  10.995   5.314  1.00  0.00     0.229 C 
HETATM   10  O   UNL     1      62.088  11.735   4.678  1.00  0.00    -0.643 OA
HETATM   11  O   UNL     1      63.217  11.374   6.557  1.00  0.00    -0.643 OA
ENDBRANCH   1   9
TORSDOF 1
ENDMDL
MODEL 5
REMARK VINA RESULT:      -4.1      2.465      3.082
REMARK  1 active torsions:
REMARK  status: ('A' for Active; 'I' for Inactive)
REMARK    1  A    between atoms: C_1  and  C_7 
ROOT
HETATM    1  C   UNL     1      63.489   8.953   4.676  1.00  0.00     0.140 A 
HETATM    2  C   UNL     1      63.210   8.353   3.389  1.00  0.00     0.098 A 
HETATM    3  N   UNL     1      62.873  10.130   4.891  1.00  0.00    -0.318 N 
ATOM      4  HN  UNL     1      62.955  10.692   5.739  1.00  0.00     0.174 HD
HETATM    5  C   UNL     1      62.354   9.153   2.671  1.00  0.00     0.115 A 
HETATM    6  S   UNL     1      61.961  10.527   3.570  1.00  0.00     0.000 SA
HETATM    7 CL   UNL     1      63.849   6.863   2.836  1.00  0.00    -0.079 Cl
HETATM    8 CL   UNL     1      61.703   8.926   1.104  1.00  0.00    -0.073 Cl
ENDROOT
BRANCH   1   9
HETATM    9  C   UNL     1      64.360   8.393   5.717  1.00  0.00     0.229 C 
HETATM   10  O   UNL     1      64.094   7.446   6.446  1.00  0.00    -0.643 OA
HETATM   11  O   UNL     1      65.562   9.006   5.857  1.00  0.00    -0.643 OA
ENDBRANCH   1   9
TORSDOF 1
ENDMDL
MODEL 6
REMARK VINA RESULT:      -4.1      7.025      7.495
REMARK  1 active torsions:
REMARK  status: ('A' for Active; 'I' for Inactive)
REMARK    1  A    between atoms: C_1  and  C_7 
ROOT
HETATM    1  C   UNL     1      67.178   7.019   6.831  1.00  0.00     0.140 A 
HETATM    2  C   UNL     1      67.425   5.625   6.529  1.00  0.00     0.098 A 
HETATM    3  N   UNL     1      67.275   7.335   8.136  1.00  0.00    -0.318 N 
ATOM      4  HN  UNL     1      67.133   8.266   8.529  1.00  0.00     0.174 HD
HETATM    5  C   UNL     1      67.709   4.936   7.683  1.00  0.00     0.115 A 
HETATM    6  S   UNL     1      67.659   5.983   9.007  1.00  0.00     0.000 SA
HETATM    7 CL   UNL     1      67.373   4.931   4.964  1.00  0.00    -0.079 Cl
HETATM    8 CL   UNL     1      68.075   3.277   7.902  1.00  0.00    -0.073 Cl
ENDROOT
BRANCH   1   9
HETATM    9  C   UNL     1      66.844   8.066   5.857  1.00  0.00     0.229 C 
HETATM   10  O   UNL     1      67.431   8.285   4.805  1.00  0.00    -0.643 OA
HETATM   11  O   UNL     1      65.781   8.843   6.185  1.00  0.00    -0.643 OA
ENDBRANCH   1   9
TORSDOF 1
ENDMDL
MODEL 7
REMARK VINA RESULT:      -4.0      2.310      2.658
REMARK  1 active torsions:
REMARK  status: ('A' for Active; 'I' for Inactive)
REMARK    1  A    between atoms: C_1  and  C_7 
ROOT
HETATM    1  C   UNL     1      63.830   8.093   4.306  1.00  0.00     0.140 A 
HETATM    2  C   UNL     1      62.904   9.014   3.682  1.00  0.00     0.098 A 
HETATM    3  N   UNL     1      64.043   6.958   3.614  1.00  0.00    -0.318 N 
ATOM      4  HN  UNL     1      64.662   6.200   3.904  1.00  0.00     0.174 HD
HETATM    5  C   UNL     1      62.451   8.493   2.494  1.00  0.00     0.115 A 
HETATM    6  S   UNL     1      63.150   6.980   2.224  1.00  0.00     0.000 SA
HETATM    7 CL   UNL     1      62.438  10.532   4.324  1.00  0.00    -0.079 Cl
HETATM    8 CL   UNL     1      61.352   9.156   1.359  1.00  0.00    -0.073 Cl
ENDROOT
BRANCH   1   9
HETATM    9  C   UNL     1      64.521   8.301   5.585  1.00  0.00     0.229 C 
HETATM   10  O   UNL     1      65.377   9.146   5.813  1.00  0.00    -0.643 OA
HETATM   11  O   UNL     1      64.151   7.462   6.585  1.00  0.00    -0.643 OA
ENDBRANCH   1   9
TORSDOF 1
ENDMDL
MODEL 8
REMARK VINA RESULT:      -3.9      3.075      3.883
REMARK  1 active torsions:
REMARK  status: ('A' for Active; 'I' for Inactive)
REMARK    1  A    between atoms: C_1  and  C_7 
ROOT
HETATM    1  C   UNL     1      62.023   8.947   2.541  1.00  0.00     0.140 A 
HETATM    2  C   UNL     1      62.114  10.252   3.159  1.00  0.00     0.098 A 
HETATM    3  N   UNL     1      62.344   7.920   3.351  1.00  0.00    -0.318 N 
ATOM      4  HN  UNL     1      62.337   6.936   3.084  1.00  0.00     0.174 HD
HETATM    5  C   UNL     1      62.519  10.128   4.466  1.00  0.00     0.115 A 
HETATM    6  S   UNL     1      62.753   8.499   4.844  1.00  0.00     0.000 SA
HETATM    7 CL   UNL     1      61.768  11.738   2.381  1.00  0.00    -0.079 Cl
HETATM    8 CL   UNL     1      62.786  11.340   5.647  1.00  0.00    -0.073 Cl
ENDROOT
BRANCH   1   9
HETATM    9  C   UNL     1      61.622   8.676   1.155  1.00  0.00     0.229 C 
HETATM   10  O   UNL     1      62.376   8.540   0.200  1.00  0.00    -0.643 OA
HETATM   11  O   UNL     1      60.285   8.575   0.949  1.00  0.00    -0.643 OA
ENDBRANCH   1   9
TORSDOF 1
ENDMDL
MODEL 9
REMARK VINA RESULT:      -3.6      2.481      2.624
REMARK  1 active torsions:
REMARK  status: ('A' for Active; 'I' for Inactive)
REMARK    1  A    between atoms: C_1  and  C_7 
ROOT
HETATM    1  C   UNL     1      62.906   8.551   5.399  1.00  0.00     0.140 A 
HETATM    2  C   UNL     1      62.183   8.228   4.188  1.00  0.00     0.098 A 
HETATM    3  N   UNL     1      62.732   7.674   6.406  1.00  0.00    -0.318 N 
ATOM      4  HN  UNL     1      63.163   7.743   7.328  1.00  0.00     0.174 HD
HETATM    5  C   UNL     1      61.468   7.068   4.360  1.00  0.00     0.115 A 
HETATM    6  S   UNL     1      61.712   6.467   5.919  1.00  0.00     0.000 SA
HETATM    7 CL   UNL     1      62.209   9.154   2.747  1.00  0.00    -0.079 Cl
HETATM    8 CL   UNL     1      60.449   6.239   3.261  1.00  0.00    -0.073 Cl
ENDROOT
BRANCH   1   9
HETATM    9  C   UNL     1      63.779   9.715   5.597  1.00  0.00     0.229 C 
HETATM   10  O   UNL     1      63.413  10.877   5.716  1.00  0.00    -0.643 OA
HETATM   11  O   UNL     1      65.107   9.440   5.648  1.00  0.00    -0.643 OA
ENDBRANCH   1   9
TORSDOF 1
ENDMDL
