MODEL 1
REMARK VINA RESULT:      -4.2      0.000      0.000
REMARK  4 active torsions:
REMARK  status: ('A' for Active; 'I' for Inactive)
REMARK    1  A    between atoms: C_3  and  C_4 
REMARK    2  A    between atoms: C_4  and  C_7 
REMARK    3  A    between atoms: O_5  and  C_7 
REMARK    4  A    between atoms: O_5  and  C_9 
ROOT
HETATM    1  N   UNL     1      63.385   9.685   5.596  1.00  0.00    -0.369 N 
ATOM      2  HN  UNL     1      63.888   9.401   6.436  1.00  0.00     0.165 HD
HETATM    3  C   UNL     1      63.191   8.822   4.566  1.00  0.00     0.011 A 
HETATM    4  C   UNL     1      62.888  10.933   5.466  1.00  0.00     0.088 A 
HETATM    5  C   UNL     1      62.479   9.179   3.423  1.00  0.00     0.025 A 
HETATM    6  C   UNL     1      62.188  11.373   4.354  1.00  0.00     0.017 A 
HETATM    7  C   UNL     1      61.976  10.472   3.317  1.00  0.00     0.003 A 
ENDROOT
BRANCH   3   8
HETATM    8  C   UNL     1      63.767   7.439   4.729  1.00  0.00     0.083 C 
BRANCH   8   9
HETATM    9  C   UNL     1      63.505   6.804   6.100  1.00  0.00     0.173 C 
BRANCH   9  10
HETATM   10  O   UNL     1      64.338   7.277   7.159  1.00  0.00    -0.391 OA
BRANCH  10  11
HETATM   11  C   UNL     1      65.648   6.717   7.158  1.00  0.00     0.163 C 
HETATM   12  C   UNL     1      66.647   7.827   6.890  1.00  0.00     0.033 C 
ENDBRANCH  10  11
ENDBRANCH   9  10
ENDBRANCH   8   9
ENDBRANCH   3   8
TORSDOF 4
ENDMDL
MODEL 2
REMARK VINA RESULT:      -4.2      2.063      3.463
REMARK  4 active torsions:
REMARK  status: ('A' for Active; 'I' for Inactive)
REMARK    1  A    between atoms: C_3  and  C_4 
REMARK    2  A    between atoms: C_4  and  C_7 
REMARK    3  A    between atoms: O_5  and  C_7 
REMARK    4  A    between atoms: O_5  and  C_9 
ROOT
HETATM    1  N   UNL     1      60.977   9.114   3.632  1.00  0.00    -0.369 N 
ATOM      2  HN  UNL     1      60.652   9.072   4.597  1.00  0.00     0.165 HD
HETATM    3  C   UNL     1      61.745  10.144   3.192  1.00  0.00     0.011 A 
HETATM    4  C   UNL     1      60.660   8.149   2.743  1.00  0.00     0.088 A 
HETATM    5  C   UNL     1      62.226  10.205   1.886  1.00  0.00     0.025 A 
HETATM    6  C   UNL     1      61.081   8.147   1.424  1.00  0.00     0.017 A 
HETATM    7  C   UNL     1      61.885   9.195   0.992  1.00  0.00     0.003 A 
ENDROOT
BRANCH   3   8
HETATM    8  C   UNL     1      62.074  11.216   4.199  1.00  0.00     0.083 C 
BRANCH   8   9
HETATM    9  C   UNL     1      62.972  10.746   5.349  1.00  0.00     0.173 C 
BRANCH   9  10
HETATM   10  O   UNL     1      63.115   9.331   5.471  1.00  0.00    -0.391 OA
BRANCH  10  11
HETATM   11  C   UNL     1      64.414   8.850   5.138  1.00  0.00     0.163 C 
HETATM   12  C   UNL     1      64.264   7.650   4.220  1.00  0.00     0.033 C 
ENDBRANCH  10  11
ENDBRANCH   9  10
ENDBRANCH   8   9
ENDBRANCH   3   8
TORSDOF 4
ENDMDL
MODEL 3
REMARK VINA RESULT:      -4.2      1.346      1.644
REMARK  4 active torsions:
REMARK  status: ('A' for Active; 'I' for Inactive)
REMARK    1  A    between atoms: C_3  and  C_4 
REMARK    2  A    between atoms: C_4  and  C_7 
REMARK    3  A    between atoms: O_5  and  C_7 
REMARK    4  A    between atoms: O_5  and  C_9 
ROOT
HETATM    1  N   UNL     1      62.651   9.988   4.379  1.00  0.00    -0.369 N 
ATOM      2  HN  UNL     1      62.896   9.955   5.368  1.00  0.00     0.165 HD
HETATM    3  C   UNL     1      62.867   8.923   3.564  1.00  0.00     0.011 A 
HETATM    4  C   UNL     1      62.099  11.090   3.830  1.00  0.00     0.088 A 
HETATM    5  C   UNL     1      62.511   8.935   2.217  1.00  0.00     0.025 A 
HETATM    6  C   UNL     1      61.736  11.190   2.498  1.00  0.00     0.017 A 
HETATM    7  C   UNL     1      61.942  10.085   1.679  1.00  0.00     0.003 A 
ENDROOT
BRANCH   3   8
HETATM    8  C   UNL     1      63.497   7.709   4.197  1.00  0.00     0.083 C 
BRANCH   8   9
HETATM    9  C   UNL     1      64.092   7.960   5.588  1.00  0.00     0.173 C 
BRANCH   9  10
HETATM   10  O   UNL     1      65.254   8.789   5.612  1.00  0.00    -0.391 OA
BRANCH  10  11
HETATM   11  C   UNL     1      66.391   8.174   6.211  1.00  0.00     0.163 C 
HETATM   12  C   UNL     1      67.365   7.788   5.113  1.00  0.00     0.033 C 
ENDBRANCH  10  11
ENDBRANCH   9  10
ENDBRANCH   8   9
ENDBRANCH   3   8
TORSDOF 4
ENDMDL
MODEL 4
REMARK VINA RESULT:      -4.1      1.059      2.063
REMARK  4 active torsions:
REMARK  status: ('A' for Active; 'I' for Inactive)
REMARK    1  A    between atoms: C_3  and  C_4 
REMARK    2  A    between atoms: C_4  and  C_7 
REMARK    3  A    between atoms: O_5  and  C_7 
REMARK    4  A    between atoms: O_5  and  C_9 
ROOT
HETATM    1  N   UNL     1      63.873   9.864   5.578  1.00  0.00    -0.369 N 
ATOM      2  HN  UNL     1      64.460   9.971   6.405  1.00  0.00     0.165 HD
HETATM    3  C   UNL     1      64.052   8.831   4.716  1.00  0.00     0.011 A 
HETATM    4  C   UNL     1      62.890  10.745   5.299  1.00  0.00     0.088 A 
HETATM    5  C   UNL     1      63.242   8.649   3.597  1.00  0.00     0.025 A 
HETATM    6  C   UNL     1      62.055  10.647   4.198  1.00  0.00     0.017 A 
HETATM    7  C   UNL     1      62.234   9.572   3.336  1.00  0.00     0.003 A 
ENDROOT
BRANCH   3   8
HETATM    8  C   UNL     1      65.165   7.869   5.042  1.00  0.00     0.083 C 
BRANCH   8   9
HETATM    9  C   UNL     1      64.989   7.128   6.373  1.00  0.00     0.173 C 
BRANCH   9  10
HETATM   10  O   UNL     1      63.650   7.067   6.863  1.00  0.00    -0.391 OA
BRANCH  10  11
HETATM   11  C   UNL     1      62.903   5.959   6.370  1.00  0.00     0.163 C 
HETATM   12  C   UNL     1      61.463   6.397   6.172  1.00  0.00     0.033 C 
ENDBRANCH  10  11
ENDBRANCH   9  10
ENDBRANCH   8   9
ENDBRANCH   3   8
TORSDOF 4
ENDMDL
MODEL 5
REMARK VINA RESULT:      -3.9      1.529      2.368
REMARK  4 active torsions:
REMARK  status: ('A' for Active; 'I' for Inactive)
REMARK    1  A    between atoms: C_3  and  C_4 
REMARK    2  A    between atoms: C_4  and  C_7 
REMARK    3  A    between atoms: O_5  and  C_7 
REMARK    4  A    between atoms: O_5  and  C_9 
ROOT
HETATM    1  N   UNL     1      62.892   8.151   3.001  1.00  0.00    -0.369 N 
ATOM      2  HN  UNL     1      63.308   7.319   3.418  1.00  0.00     0.165 HD
HETATM    3  C   UNL     1      62.634   9.258   3.743  1.00  0.00     0.011 A 
HETATM    4  C   UNL     1      62.575   8.192   1.689  1.00  0.00     0.088 A 
HETATM    5  C   UNL     1      62.095  10.416   3.186  1.00  0.00     0.025 A 
HETATM    6  C   UNL     1      62.018   9.295   1.064  1.00  0.00     0.017 A 
HETATM    7  C   UNL     1      61.781  10.431   1.831  1.00  0.00     0.003 A 
ENDROOT
BRANCH   3   8
HETATM    8  C   UNL     1      62.984   9.183   5.207  1.00  0.00     0.083 C 
BRANCH   8   9
HETATM    9  C   UNL     1      62.803   7.792   5.827  1.00  0.00     0.173 C 
BRANCH   9  10
HETATM   10  O   UNL     1      63.673   7.496   6.921  1.00  0.00    -0.391 OA
BRANCH  10  11
HETATM   11  C   UNL     1      64.708   6.571   6.603  1.00  0.00     0.163 C 
HETATM   12  C   UNL     1      65.748   6.613   7.707  1.00  0.00     0.033 C 
ENDBRANCH  10  11
ENDBRANCH   9  10
ENDBRANCH   8   9
ENDBRANCH   3   8
TORSDOF 4
ENDMDL
MODEL 6
REMARK VINA RESULT:      -3.6      1.966      5.170
REMARK  4 active torsions:
REMARK  status: ('A' for Active; 'I' for Inactive)
REMARK    1  A    between atoms: C_3  and  C_4 
REMARK    2  A    between atoms: C_4  and  C_7 
REMARK    3  A    between atoms: O_5  and  C_7 
REMARK    4  A    between atoms: O_5  and  C_9 
ROOT
HETATM    1  N   UNL     1      65.040   7.375   6.840  1.00  0.00    -0.369 N 
ATOM      2  HN  UNL     1      64.131   7.636   7.220  1.00  0.00     0.165 HD
HETATM    3  C   UNL     1      65.499   7.911   5.680  1.00  0.00     0.011 A 
HETATM    4  C   UNL     1      65.833   6.483   7.470  1.00  0.00     0.088 A 
HETATM    5  C   UNL     1      66.752   7.592   5.159  1.00  0.00     0.025 A 
HETATM    6  C   UNL     1      67.080   6.097   7.009  1.00  0.00     0.017 A 
HETATM    7  C   UNL     1      67.548   6.671   5.832  1.00  0.00     0.003 A 
ENDROOT
BRANCH   3   8
HETATM    8  C   UNL     1      64.590   8.894   4.988  1.00  0.00     0.083 C 
BRANCH   8   9
HETATM    9  C   UNL     1      63.098   8.678   5.266  1.00  0.00     0.173 C 
BRANCH   9  10
HETATM   10  O   UNL     1      62.215   9.145   4.246  1.00  0.00    -0.391 OA
BRANCH  10  11
HETATM   11  C   UNL     1      62.135  10.564   4.154  1.00  0.00     0.163 C 
HETATM   12  C   UNL     1      61.836  10.938   2.714  1.00  0.00     0.033 C 
ENDBRANCH  10  11
ENDBRANCH   9  10
ENDBRANCH   8   9
ENDBRANCH   3   8
TORSDOF 4
ENDMDL
MODEL 7
REMARK VINA RESULT:      -3.6      2.241      4.715
REMARK  4 active torsions:
REMARK  status: ('A' for Active; 'I' for Inactive)
REMARK    1  A    between atoms: C_3  and  C_4 
REMARK    2  A    between atoms: C_4  and  C_7 
REMARK    3  A    between atoms: O_5  and  C_7 
REMARK    4  A    between atoms: O_5  and  C_9 
ROOT
HETATM    1  N   UNL     1      65.542   7.497   6.958  1.00  0.00    -0.369 N 
ATOM      2  HN  UNL     1      64.754   7.735   7.559  1.00  0.00     0.165 HD
HETATM    3  C   UNL     1      65.640   7.989   5.697  1.00  0.00     0.011 A 
HETATM    4  C   UNL     1      66.527   6.679   7.386  1.00  0.00     0.088 A 
HETATM    5  C   UNL     1      66.724   7.701   4.870  1.00  0.00     0.025 A 
HETATM    6  C   UNL     1      67.626   6.328   6.620  1.00  0.00     0.017 A 
HETATM    7  C   UNL     1      67.726   6.857   5.338  1.00  0.00     0.003 A 
ENDROOT
BRANCH   3   8
HETATM    8  C   UNL     1      64.522   8.889   5.237  1.00  0.00     0.083 C 
BRANCH   8   9
HETATM    9  C   UNL     1      63.132   8.243   5.290  1.00  0.00     0.173 C 
BRANCH   9  10
HETATM   10  O   UNL     1      62.754   7.715   6.561  1.00  0.00    -0.391 OA
BRANCH  10  11
HETATM   11  C   UNL     1      61.890   6.585   6.484  1.00  0.00     0.163 C 
HETATM   12  C   UNL     1      61.222   6.580   5.122  1.00  0.00     0.033 C 
ENDBRANCH  10  11
ENDBRANCH   9  10
ENDBRANCH   8   9
ENDBRANCH   3   8
TORSDOF 4
ENDMDL
MODEL 8
REMARK VINA RESULT:      -3.5      2.340      3.374
REMARK  4 active torsions:
REMARK  status: ('A' for Active; 'I' for Inactive)
REMARK    1  A    between atoms: C_3  and  C_4 
REMARK    2  A    between atoms: C_4  and  C_7 
REMARK    3  A    between atoms: O_5  and  C_7 
REMARK    4  A    between atoms: O_5  and  C_9 
ROOT
HETATM    1  N   UNL     1      65.708   8.319   5.403  1.00  0.00    -0.369 N 
ATOM      2  HN  UNL     1      66.247   8.800   6.123  1.00  0.00     0.165 HD
HETATM    3  C   UNL     1      66.207   7.235   4.755  1.00  0.00     0.011 A 
HETATM    4  C   UNL     1      64.472   8.737   5.058  1.00  0.00     0.088 A 
HETATM    5  C   UNL     1      65.476   6.545   3.791  1.00  0.00     0.025 A 
HETATM    6  C   UNL     1      63.689   8.119   4.096  1.00  0.00     0.017 A 
HETATM    7  C   UNL     1      64.203   6.997   3.456  1.00  0.00     0.003 A 
ENDROOT
BRANCH   3   8
HETATM    8  C   UNL     1      67.595   6.797   5.148  1.00  0.00     0.083 C 
BRANCH   8   9
HETATM    9  C   UNL     1      67.684   6.158   6.539  1.00  0.00     0.173 C 
BRANCH   9  10
HETATM   10  O   UNL     1      66.475   6.184   7.299  1.00  0.00    -0.391 OA
BRANCH  10  11
HETATM   11  C   UNL     1      66.656   6.565   8.660  1.00  0.00     0.163 C 
HETATM   12  C   UNL     1      67.946   5.948   9.167  1.00  0.00     0.033 C 
ENDBRANCH  10  11
ENDBRANCH   9  10
ENDBRANCH   8   9
ENDBRANCH   3   8
TORSDOF 4
ENDMDL
MODEL 9
REMARK VINA RESULT:      -3.5      2.650      5.940
REMARK  4 active torsions:
REMARK  status: ('A' for Active; 'I' for Inactive)
REMARK    1  A    between atoms: C_3  and  C_4 
REMARK    2  A    between atoms: C_4  and  C_7 
REMARK    3  A    between atoms: O_5  and  C_7 
REMARK    4  A    between atoms: O_5  and  C_9 
ROOT
HETATM    1  N   UNL     1      67.816   5.616   6.441  1.00  0.00    -0.369 N 
ATOM      2  HN  UNL     1      68.088   5.278   5.518  1.00  0.00     0.165 HD
HETATM    3  C   UNL     1      67.180   6.805   6.597  1.00  0.00     0.011 A 
HETATM    4  C   UNL     1      68.075   4.897   7.553  1.00  0.00     0.088 A 
HETATM    5  C   UNL     1      66.772   7.270   7.845  1.00  0.00     0.025 A 
HETATM    6  C   UNL     1      67.721   5.298   8.831  1.00  0.00     0.017 A 
HETATM    7  C   UNL     1      67.051   6.507   8.974  1.00  0.00     0.003 A 
ENDROOT
BRANCH   3   8
HETATM    8  C   UNL     1      66.915   7.595   5.341  1.00  0.00     0.083 C 
BRANCH   8   9
HETATM    9  C   UNL     1      65.431   7.866   5.068  1.00  0.00     0.173 C 
BRANCH   9  10
HETATM   10  O   UNL     1      64.961   9.151   5.478  1.00  0.00    -0.391 OA
BRANCH  10  11
HETATM   11  C   UNL     1      63.620   9.429   5.088  1.00  0.00     0.163 C 
HETATM   12  C   UNL     1      62.876   8.114   4.947  1.00  0.00     0.033 C 
ENDBRANCH  10  11
ENDBRANCH   9  10
ENDBRANCH   8   9
ENDBRANCH   3   8
TORSDOF 4
ENDMDL
