MODEL 1
REMARK VINA RESULT:      -5.2      0.000      0.000
REMARK  2 active torsions:
REMARK  status: ('A' for Active; 'I' for Inactive)
REMARK    1  A    between atoms: C_1  and  C_4 
REMARK    2  A    between atoms: C_3  and  O_5 
ROOT
HETATM    1  C   UNL     1      62.574   8.984   3.391  1.00  0.00    -0.021 A 
HETATM    2  C   UNL     1      62.271   9.262   2.035  1.00  0.00     0.074 A 
HETATM    3  C   UNL     1      62.425  10.057   4.302  1.00  0.00     0.010 A 
HETATM    4  C   UNL     1      61.856  10.555   1.653  1.00  0.00     0.037 A 
HETATM    5  C   UNL     1      62.010  11.334   3.909  1.00  0.00     0.001 A 
HETATM    6  C   UNL     1      61.742  11.591   2.579  1.00  0.00     0.003 A 
ENDROOT
BRANCH   1   7
HETATM    7  C   UNL     1      63.092   7.637   3.901  1.00  0.00     0.024 C 
HETATM    8  C   UNL     1      62.238   6.985   5.005  1.00  0.00     0.037 C 
HETATM    9  C   UNL     1      62.673   7.287   6.439  1.00  0.00     0.233 C 
HETATM   10  N   UNL     1      64.104   7.105   6.655  1.00  0.00    -0.075 N 
HETATM   11  C   UNL     1      64.900   7.896   5.726  1.00  0.00     0.233 C 
HETATM   12  H   UNL     1      64.332   7.388   7.607  1.00  0.00     0.277 HD
HETATM   13  H   UNL     1      64.323   6.120   6.499  1.00  0.00     0.277 HD
HETATM   14  C   UNL     1      64.590   7.542   4.273  1.00  0.00     0.037 C 
ENDBRANCH   1   7
BRANCH   2  15
HETATM   15  O   UNL     1      62.226   8.411   0.964  1.00  0.00    -0.355 OA
HETATM   16  C   UNL     1      60.985   7.963   0.451  1.00  0.00     0.210 C 
ENDBRANCH   2  15
TORSDOF 2
ENDMDL
MODEL 2
REMARK VINA RESULT:      -5.2      1.466      2.565
REMARK  2 active torsions:
REMARK  status: ('A' for Active; 'I' for Inactive)
REMARK    1  A    between atoms: C_1  and  C_4 
REMARK    2  A    between atoms: C_3  and  O_5 
ROOT
HETATM    1  C   UNL     1      62.836   8.535   3.277  1.00  0.00    -0.021 A 
HETATM    2  C   UNL     1      62.556   9.721   4.001  1.00  0.00     0.074 A 
HETATM    3  C   UNL     1      62.545   8.560   1.892  1.00  0.00     0.010 A 
HETATM    4  C   UNL     1      62.007  10.840   3.341  1.00  0.00     0.037 A 
HETATM    5  C   UNL     1      62.002   9.679   1.251  1.00  0.00     0.001 A 
HETATM    6  C   UNL     1      61.715  10.817   1.978  1.00  0.00     0.003 A 
ENDROOT
BRANCH   1   7
HETATM    7  C   UNL     1      63.373   7.247   3.905  1.00  0.00     0.024 C 
HETATM    8  C   UNL     1      62.499   6.654   5.027  1.00  0.00     0.037 C 
HETATM    9  C   UNL     1      62.875   7.078   6.447  1.00  0.00     0.233 C 
HETATM   10  N   UNL     1      64.302   6.956   6.723  1.00  0.00    -0.075 N 
HETATM   11  C   UNL     1      65.108   7.699   5.763  1.00  0.00     0.233 C 
HETATM   12  H   UNL     1      64.489   7.317   7.659  1.00  0.00     0.277 HD
HETATM   13  H   UNL     1      64.554   5.970   6.652  1.00  0.00     0.277 HD
HETATM   14  C   UNL     1      64.859   7.226   4.333  1.00  0.00     0.037 C 
ENDBRANCH   1   7
BRANCH   2  15
HETATM   15  O   UNL     1      62.824  10.022   5.309  1.00  0.00    -0.355 OA
HETATM   16  C   UNL     1      62.909  11.368   5.737  1.00  0.00     0.210 C 
ENDBRANCH   2  15
TORSDOF 2
ENDMDL
MODEL 3
REMARK VINA RESULT:      -5.2      1.427      2.851
REMARK  2 active torsions:
REMARK  status: ('A' for Active; 'I' for Inactive)
REMARK    1  A    between atoms: C_1  and  C_4 
REMARK    2  A    between atoms: C_3  and  O_5 
ROOT
HETATM    1  C   UNL     1      62.833   8.581   3.547  1.00  0.00    -0.021 A 
HETATM    2  C   UNL     1      62.197   9.547   2.729  1.00  0.00     0.074 A 
HETATM    3  C   UNL     1      63.159   7.350   2.930  1.00  0.00     0.010 A 
HETATM    4  C   UNL     1      61.912   9.255   1.379  1.00  0.00     0.037 A 
HETATM    5  C   UNL     1      62.871   7.074   1.589  1.00  0.00     0.001 A 
HETATM    6  C   UNL     1      62.230   8.020   0.814  1.00  0.00     0.003 A 
ENDROOT
BRANCH   1   7
HETATM    7  C   UNL     1      63.131   8.773   5.036  1.00  0.00     0.024 C 
HETATM    8  C   UNL     1      64.598   9.104   5.372  1.00  0.00     0.037 C 
HETATM    9  C   UNL     1      65.481   7.905   5.718  1.00  0.00     0.233 C 
HETATM   10  N   UNL     1      64.872   7.006   6.692  1.00  0.00    -0.075 N 
HETATM   11  C   UNL     1      63.562   6.538   6.256  1.00  0.00     0.233 C 
HETATM   12  H   UNL     1      65.482   6.200   6.823  1.00  0.00     0.277 HD
HETATM   13  H   UNL     1      64.749   7.522   7.563  1.00  0.00     0.277 HD
HETATM   14  C   UNL     1      62.600   7.699   6.014  1.00  0.00     0.037 C 
ENDBRANCH   1   7
BRANCH   2  15
HETATM   15  O   UNL     1      61.862  10.843   3.017  1.00  0.00    -0.355 OA
HETATM   16  C   UNL     1      61.751  11.806   1.986  1.00  0.00     0.210 C 
ENDBRANCH   2  15
TORSDOF 2
ENDMDL
MODEL 4
REMARK VINA RESULT:      -5.0      1.282      1.466
REMARK  2 active torsions:
REMARK  status: ('A' for Active; 'I' for Inactive)
REMARK    1  A    between atoms: C_1  and  C_4 
REMARK    2  A    between atoms: C_3  and  O_5 
ROOT
HETATM    1  C   UNL     1      63.571   8.706   4.157  1.00  0.00    -0.021 A 
HETATM    2  C   UNL     1      62.801   8.907   2.984  1.00  0.00     0.074 A 
HETATM    3  C   UNL     1      63.467   9.704   5.156  1.00  0.00     0.010 A 
HETATM    4  C   UNL     1      61.996  10.058   2.854  1.00  0.00     0.037 A 
HETATM    5  C   UNL     1      62.663  10.839   5.013  1.00  0.00     0.001 A 
HETATM    6  C   UNL     1      61.938  11.028   3.853  1.00  0.00     0.003 A 
ENDROOT
BRANCH   1   7
HETATM    7  C   UNL     1      64.523   7.527   4.373  1.00  0.00     0.024 C 
HETATM    8  C   UNL     1      63.985   6.414   5.292  1.00  0.00     0.037 C 
HETATM    9  C   UNL     1      64.373   6.532   6.766  1.00  0.00     0.233 C 
HETATM   10  N   UNL     1      65.796   6.788   6.966  1.00  0.00    -0.075 N 
HETATM   11  C   UNL     1      66.242   7.973   6.247  1.00  0.00     0.233 C 
HETATM   12  H   UNL     1      65.969   6.921   7.962  1.00  0.00     0.277 HD
HETATM   13  H   UNL     1      66.314   5.986   6.606  1.00  0.00     0.277 HD
HETATM   14  C   UNL     1      65.988   7.852   4.746  1.00  0.00     0.037 C 
ENDBRANCH   1   7
BRANCH   2  15
HETATM   15  O   UNL     1      62.623   8.076   1.911  1.00  0.00    -0.355 OA
HETATM   16  C   UNL     1      62.121   8.577   0.686  1.00  0.00     0.210 C 
ENDBRANCH   2  15
TORSDOF 2
ENDMDL
MODEL 5
REMARK VINA RESULT:      -4.9      2.652      4.299
REMARK  2 active torsions:
REMARK  status: ('A' for Active; 'I' for Inactive)
REMARK    1  A    between atoms: C_1  and  C_4 
REMARK    2  A    between atoms: C_3  and  O_5 
ROOT
HETATM    1  C   UNL     1      65.112   7.863   4.808  1.00  0.00    -0.021 A 
HETATM    2  C   UNL     1      64.165   8.916   4.884  1.00  0.00     0.074 A 
HETATM    3  C   UNL     1      64.896   6.895   3.798  1.00  0.00     0.010 A 
HETATM    4  C   UNL     1      63.075   8.953   3.990  1.00  0.00     0.037 A 
HETATM    5  C   UNL     1      63.810   6.946   2.918  1.00  0.00     0.001 A 
HETATM    6  C   UNL     1      62.886   7.967   3.023  1.00  0.00     0.003 A 
ENDROOT
BRANCH   1   7
HETATM    7  C   UNL     1      66.294   7.694   5.766  1.00  0.00     0.024 C 
HETATM    8  C   UNL     1      67.522   6.982   5.169  1.00  0.00     0.037 C 
HETATM    9  C   UNL     1      67.585   5.472   5.398  1.00  0.00     0.233 C 
HETATM   10  N   UNL     1      67.334   5.092   6.784  1.00  0.00    -0.075 N 
HETATM   11  C   UNL     1      66.060   5.608   7.268  1.00  0.00     0.233 C 
HETATM   12  H   UNL     1      67.324   4.075   6.849  1.00  0.00     0.277 HD
HETATM   13  H   UNL     1      68.076   5.491   7.359  1.00  0.00     0.277 HD
HETATM   14  C   UNL     1      65.995   7.130   7.174  1.00  0.00     0.037 C 
ENDBRANCH   1   7
BRANCH   2  15
HETATM   15  O   UNL     1      64.171  10.031   5.677  1.00  0.00    -0.355 OA
HETATM   16  C   UNL     1      63.082  10.935   5.659  1.00  0.00     0.210 C 
ENDBRANCH   2  15
TORSDOF 2
ENDMDL
MODEL 6
REMARK VINA RESULT:      -4.8      1.184      1.917
REMARK  2 active torsions:
REMARK  status: ('A' for Active; 'I' for Inactive)
REMARK    1  A    between atoms: C_1  and  C_4 
REMARK    2  A    between atoms: C_3  and  O_5 
ROOT
HETATM    1  C   UNL     1      62.824   9.359   4.057  1.00  0.00    -0.021 A 
HETATM    2  C   UNL     1      62.721   8.772   2.771  1.00  0.00     0.074 A 
HETATM    3  C   UNL     1      62.350  10.686   4.182  1.00  0.00     0.010 A 
HETATM    4  C   UNL     1      62.179   9.509   1.698  1.00  0.00     0.037 A 
HETATM    5  C   UNL     1      61.813  11.404   3.109  1.00  0.00     0.001 A 
HETATM    6  C   UNL     1      61.742  10.824   1.858  1.00  0.00     0.003 A 
ENDROOT
BRANCH   1   7
HETATM    7  C   UNL     1      63.451   8.670   5.272  1.00  0.00     0.024 C 
HETATM    8  C   UNL     1      64.954   8.356   5.140  1.00  0.00     0.037 C 
HETATM    9  C   UNL     1      65.291   6.957   4.625  1.00  0.00     0.233 C 
HETATM   10  N   UNL     1      64.554   5.900   5.310  1.00  0.00    -0.075 N 
HETATM   11  C   UNL     1      63.113   6.111   5.245  1.00  0.00     0.233 C 
HETATM   12  H   UNL     1      64.776   5.007   4.872  1.00  0.00     0.277 HD
HETATM   13  H   UNL     1      64.830   5.909   6.292  1.00  0.00     0.277 HD
HETATM   14  C   UNL     1      62.710   7.448   5.862  1.00  0.00     0.037 C 
ENDBRANCH   1   7
BRANCH   2  15
HETATM   15  O   UNL     1      62.998   7.490   2.378  1.00  0.00    -0.355 OA
HETATM   16  C   UNL     1      62.020   6.713   1.713  1.00  0.00     0.210 C 
ENDBRANCH   2  15
TORSDOF 2
ENDMDL
MODEL 7
REMARK VINA RESULT:      -4.8      2.669      5.047
REMARK  2 active torsions:
REMARK  status: ('A' for Active; 'I' for Inactive)
REMARK    1  A    between atoms: C_1  and  C_4 
REMARK    2  A    between atoms: C_3  and  O_5 
ROOT
HETATM    1  C   UNL     1      61.881   7.571   4.643  1.00  0.00    -0.021 A 
HETATM    2  C   UNL     1      62.199   7.068   5.930  1.00  0.00     0.074 A 
HETATM    3  C   UNL     1      60.675   7.106   4.066  1.00  0.00     0.010 A 
HETATM    4  C   UNL     1      61.337   6.149   6.563  1.00  0.00     0.037 A 
HETATM    5  C   UNL     1      59.829   6.195   4.708  1.00  0.00     0.001 A 
HETATM    6  C   UNL     1      60.167   5.700   5.951  1.00  0.00     0.003 A 
ENDROOT
BRANCH   1   7
HETATM    7  C   UNL     1      62.775   8.521   3.843  1.00  0.00     0.024 C 
HETATM    8  C   UNL     1      62.838   9.965   4.377  1.00  0.00     0.037 C 
HETATM    9  C   UNL     1      61.847  10.943   3.747  1.00  0.00     0.233 C 
HETATM   10  N   UNL     1      61.831  10.885   2.290  1.00  0.00    -0.075 N 
HETATM   11  C   UNL     1      61.565   9.538   1.802  1.00  0.00     0.233 C 
HETATM   12  H   UNL     1      61.105  11.510   1.943  1.00  0.00     0.277 HD
HETATM   13  H   UNL     1      62.752  11.166   1.953  1.00  0.00     0.277 HD
HETATM   14  C   UNL     1      62.603   8.539   2.306  1.00  0.00     0.037 C 
ENDBRANCH   1   7
BRANCH   2  15
HETATM   15  O   UNL     1      63.229   7.410   6.764  1.00  0.00    -0.355 OA
HETATM   16  C   UNL     1      64.468   6.731   6.695  1.00  0.00     0.210 C 
ENDBRANCH   2  15
TORSDOF 2
ENDMDL
MODEL 8
REMARK VINA RESULT:      -4.8      2.496      4.131
REMARK  2 active torsions:
REMARK  status: ('A' for Active; 'I' for Inactive)
REMARK    1  A    between atoms: C_1  and  C_4 
REMARK    2  A    between atoms: C_3  and  O_5 
ROOT
HETATM    1  C   UNL     1      62.397   9.062   2.690  1.00  0.00    -0.021 A 
HETATM    2  C   UNL     1      62.744   9.289   4.045  1.00  0.00     0.074 A 
HETATM    3  C   UNL     1      61.856  10.165   1.986  1.00  0.00     0.010 A 
HETATM    4  C   UNL     1      62.537  10.557   4.626  1.00  0.00     0.037 A 
HETATM    5  C   UNL     1      61.659  11.418   2.575  1.00  0.00     0.001 A 
HETATM    6  C   UNL     1      61.982  11.613   3.904  1.00  0.00     0.003 A 
ENDROOT
BRANCH   1   7
HETATM    7  C   UNL     1      62.521   7.711   1.981  1.00  0.00     0.024 C 
HETATM    8  C   UNL     1      62.122   7.714   0.493  1.00  0.00     0.037 C 
HETATM    9  C   UNL     1      60.672   7.328   0.200  1.00  0.00     0.233 C 
HETATM   10  N   UNL     1      60.250   6.115   0.892  1.00  0.00    -0.075 N 
HETATM   11  C   UNL     1      60.448   6.213   2.332  1.00  0.00     0.233 C 
HETATM   12  H   UNL     1      59.261   5.957   0.706  1.00  0.00     0.277 HD
HETATM   13  H   UNL     1      60.819   5.342   0.547  1.00  0.00     0.277 HD
HETATM   14  C   UNL     1      61.910   6.478   2.685  1.00  0.00     0.037 C 
ENDBRANCH   1   7
BRANCH   2  15
HETATM   15  O   UNL     1      63.371   8.455   4.931  1.00  0.00    -0.355 OA
HETATM   16  C   UNL     1      64.773   8.520   5.115  1.00  0.00     0.210 C 
ENDBRANCH   2  15
TORSDOF 2
ENDMDL
MODEL 9
REMARK VINA RESULT:      -4.6      2.701      4.841
REMARK  2 active torsions:
REMARK  status: ('A' for Active; 'I' for Inactive)
REMARK    1  A    between atoms: C_1  and  C_4 
REMARK    2  A    between atoms: C_3  and  O_5 
ROOT
HETATM    1  C   UNL     1      63.027   8.305   3.800  1.00  0.00    -0.021 A 
HETATM    2  C   UNL     1      63.597   8.789   5.004  1.00  0.00     0.074 A 
HETATM    3  C   UNL     1      63.730   7.266   3.144  1.00  0.00     0.010 A 
HETATM    4  C   UNL     1      64.806   8.245   5.483  1.00  0.00     0.037 A 
HETATM    5  C   UNL     1      64.928   6.735   3.633  1.00  0.00     0.001 A 
HETATM    6  C   UNL     1      65.479   7.236   4.795  1.00  0.00     0.003 A 
ENDROOT
BRANCH   1   7
HETATM    7  C   UNL     1      61.755   8.866   3.160  1.00  0.00     0.024 C 
HETATM    8  C   UNL     1      60.586   7.869   3.045  1.00  0.00     0.037 C 
HETATM    9  C   UNL     1      60.491   7.117   1.717  1.00  0.00     0.233 C 
HETATM   10  N   UNL     1      60.600   7.992   0.554  1.00  0.00    -0.075 N 
HETATM   11  C   UNL     1      61.822   8.784   0.581  1.00  0.00     0.233 C 
HETATM   12  H   UNL     1      60.596   7.420  -0.289  1.00  0.00     0.277 HD
HETATM   13  H   UNL     1      59.807   8.634   0.568  1.00  0.00     0.277 HD
HETATM   14  C   UNL     1      61.907   9.649   1.836  1.00  0.00     0.037 C 
ENDBRANCH   1   7
BRANCH   2  15
HETATM   15  O   UNL     1      63.098   9.702   5.894  1.00  0.00    -0.355 OA
HETATM   16  C   UNL     1      63.008  11.071   5.549  1.00  0.00     0.210 C 
ENDBRANCH   2  15
TORSDOF 2
ENDMDL
