MODEL 1
REMARK VINA RESULT:      -5.1      0.000      0.000
REMARK  2 active torsions:
REMARK  status: ('A' for Active; 'I' for Inactive)
REMARK    1  A    between atoms: C_1  and  C_6 
REMARK    2  A    between atoms: C_2  and  C_6 
ROOT
HETATM    1  C   UNL     1      62.141   8.903   3.174  1.00  0.00    -0.030 C 
HETATM    2  C   UNL     1      62.716   6.856   1.794  1.00  0.00    -0.013 C 
HETATM    3  C   UNL     1      60.311   7.334   2.385  1.00  0.00    -0.013 C 
HETATM    4  C   UNL     1      61.502   8.781   0.713  1.00  0.00    -0.013 C 
HETATM    5  C   UNL     1      60.777   8.260   3.510  1.00  0.00     0.014 C 
HETATM    6  C   UNL     1      61.978   9.708   1.852  1.00  0.00     0.014 C 
HETATM    7  C   UNL     1      63.187   7.792   2.919  1.00  0.00     0.014 C 
HETATM    8  C   UNL     1      60.155   8.148   1.099  1.00  0.00     0.009 C 
HETATM    9  C   UNL     1      61.367   6.234   2.189  1.00  0.00     0.009 C 
HETATM   10  C   UNL     1      62.539   7.665   0.501  1.00  0.00     0.009 C 
ENDROOT
BRANCH   1  11
HETATM   11  C   UNL     1      62.596   9.828   4.321  1.00  0.00     0.122 C 
BRANCH  11  12
HETATM   12  C   UNL     1      63.359   9.129   5.412  1.00  0.00     0.173 C 
HETATM   13  O   UNL     1      62.875   8.359   6.232  1.00  0.00    -0.648 OA
HETATM   14  O   UNL     1      64.649   9.488   5.500  1.00  0.00    -0.648 OA
ENDBRANCH  11  12
ENDBRANCH   1  11
TORSDOF 2
ENDMDL
MODEL 2
REMARK VINA RESULT:      -5.1      0.031      2.020
REMARK  2 active torsions:
REMARK  status: ('A' for Active; 'I' for Inactive)
REMARK    1  A    between atoms: C_1  and  C_6 
REMARK    2  A    between atoms: C_2  and  C_6 
ROOT
HETATM    1  C   UNL     1      62.146   8.925   3.174  1.00  0.00    -0.030 C 
HETATM    2  C   UNL     1      61.505   8.815   0.724  1.00  0.00    -0.013 C 
HETATM    3  C   UNL     1      62.723   6.880   1.788  1.00  0.00    -0.013 C 
HETATM    4  C   UNL     1      60.325   7.331   2.383  1.00  0.00    -0.013 C 
HETATM    5  C   UNL     1      63.172   7.796   2.928  1.00  0.00     0.014 C 
HETATM    6  C   UNL     1      60.782   8.263   3.527  1.00  0.00     0.014 C 
HETATM    7  C   UNL     1      61.949   9.737   1.872  1.00  0.00     0.014 C 
HETATM    8  C   UNL     1      61.384   6.239   2.160  1.00  0.00     0.009 C 
HETATM    9  C   UNL     1      62.569   7.726   0.513  1.00  0.00     0.009 C 
HETATM   10  C   UNL     1      60.170   8.153   1.092  1.00  0.00     0.009 C 
ENDROOT
BRANCH   1  11
HETATM   11  C   UNL     1      62.619   9.839   4.322  1.00  0.00     0.122 C 
BRANCH  11  12
HETATM   12  C   UNL     1      63.374   9.124   5.409  1.00  0.00     0.173 C 
HETATM   13  O   UNL     1      62.880   8.360   6.228  1.00  0.00    -0.648 OA
HETATM   14  O   UNL     1      64.670   9.463   5.495  1.00  0.00    -0.648 OA
ENDBRANCH  11  12
ENDBRANCH   1  11
TORSDOF 2
ENDMDL
MODEL 3
REMARK VINA RESULT:      -4.5      2.409      3.890
REMARK  2 active torsions:
REMARK  status: ('A' for Active; 'I' for Inactive)
REMARK    1  A    between atoms: C_1  and  C_6 
REMARK    2  A    between atoms: C_2  and  C_6 
ROOT
HETATM    1  C   UNL     1      63.209   8.341   4.505  1.00  0.00    -0.030 C 
HETATM    2  C   UNL     1      65.512   7.737   5.377  1.00  0.00    -0.013 C 
HETATM    3  C   UNL     1      63.517   6.338   6.031  1.00  0.00    -0.013 C 
HETATM    4  C   UNL     1      64.397   6.246   3.680  1.00  0.00    -0.013 C 
HETATM    5  C   UNL     1      62.588   7.486   5.632  1.00  0.00     0.014 C 
HETATM    6  C   UNL     1      63.463   7.411   3.284  1.00  0.00     0.014 C 
HETATM    7  C   UNL     1      64.580   8.890   4.969  1.00  0.00     0.014 C 
HETATM    8  C   UNL     1      63.749   5.437   4.816  1.00  0.00     0.009 C 
HETATM    9  C   UNL     1      64.852   6.934   6.509  1.00  0.00     0.009 C 
HETATM   10  C   UNL     1      65.739   6.816   4.170  1.00  0.00     0.009 C 
ENDROOT
BRANCH   1  11
HETATM   11  C   UNL     1      62.261   9.494   4.121  1.00  0.00     0.122 C 
BRANCH  11  12
HETATM   12  C   UNL     1      62.510  10.774   4.872  1.00  0.00     0.173 C 
HETATM   13  O   UNL     1      62.933  10.851   6.019  1.00  0.00    -0.648 OA
HETATM   14  O   UNL     1      62.134  11.882   4.214  1.00  0.00    -0.648 OA
ENDBRANCH  11  12
ENDBRANCH   1  11
TORSDOF 2
ENDMDL
MODEL 4
REMARK VINA RESULT:      -4.5      1.383      2.860
REMARK  2 active torsions:
REMARK  status: ('A' for Active; 'I' for Inactive)
REMARK    1  A    between atoms: C_1  and  C_6 
REMARK    2  A    between atoms: C_2  and  C_6 
ROOT
HETATM    1  C   UNL     1      63.460   7.286   3.801  1.00  0.00    -0.030 C 
HETATM    2  C   UNL     1      61.983   9.143   2.909  1.00  0.00    -0.013 C 
HETATM    3  C   UNL     1      62.457   7.120   1.478  1.00  0.00    -0.013 C 
HETATM    4  C   UNL     1      60.962   6.913   3.485  1.00  0.00    -0.013 C 
HETATM    5  C   UNL     1      63.668   6.791   2.353  1.00  0.00     0.014 C 
HETATM    6  C   UNL     1      62.188   6.590   4.367  1.00  0.00     0.014 C 
HETATM    7  C   UNL     1      63.195   8.811   3.794  1.00  0.00     0.014 C 
HETATM    8  C   UNL     1      61.221   6.423   2.051  1.00  0.00     0.009 C 
HETATM    9  C   UNL     1      62.252   8.644   1.479  1.00  0.00     0.009 C 
HETATM   10  C   UNL     1      60.739   8.435   3.464  1.00  0.00     0.009 C 
ENDROOT
BRANCH   1  11
HETATM   11  C   UNL     1      64.692   6.950   4.665  1.00  0.00     0.122 C 
BRANCH  11  12
HETATM   12  C   UNL     1      64.841   7.812   5.889  1.00  0.00     0.173 C 
HETATM   13  O   UNL     1      65.575   8.789   5.981  1.00  0.00    -0.648 OA
HETATM   14  O   UNL     1      64.163   7.372   6.960  1.00  0.00    -0.648 OA
ENDBRANCH  11  12
ENDBRANCH   1  11
TORSDOF 2
ENDMDL
MODEL 5
REMARK VINA RESULT:      -4.4      1.341      2.533
REMARK  2 active torsions:
REMARK  status: ('A' for Active; 'I' for Inactive)
REMARK    1  A    between atoms: C_1  and  C_6 
REMARK    2  A    between atoms: C_2  and  C_6 
ROOT
HETATM    1  C   UNL     1      63.409   7.276   3.764  1.00  0.00    -0.030 C 
HETATM    2  C   UNL     1      60.924   6.903   3.432  1.00  0.00    -0.013 C 
HETATM    3  C   UNL     1      61.943   9.139   2.862  1.00  0.00    -0.013 C 
HETATM    4  C   UNL     1      62.423   7.139   1.421  1.00  0.00    -0.013 C 
HETATM    5  C   UNL     1      63.158   8.800   3.728  1.00  0.00     0.014 C 
HETATM    6  C   UNL     1      63.644   6.795   2.302  1.00  0.00     0.014 C 
HETATM    7  C   UNL     1      62.147   6.557   4.296  1.00  0.00     0.014 C 
HETATM    8  C   UNL     1      62.199   8.660   1.431  1.00  0.00     0.009 C 
HETATM    9  C   UNL     1      60.712   8.426   3.447  1.00  0.00     0.009 C 
HETATM   10  C   UNL     1      61.175   6.443   1.989  1.00  0.00     0.009 C 
ENDROOT
BRANCH   1  11
HETATM   11  C   UNL     1      64.634   6.955   4.644  1.00  0.00     0.122 C 
BRANCH  11  12
HETATM   12  C   UNL     1      64.767   7.832   5.859  1.00  0.00     0.173 C 
HETATM   13  O   UNL     1      65.505   8.804   5.952  1.00  0.00    -0.648 OA
HETATM   14  O   UNL     1      64.066   7.410   6.923  1.00  0.00    -0.648 OA
ENDBRANCH  11  12
ENDBRANCH   1  11
TORSDOF 2
ENDMDL
MODEL 6
REMARK VINA RESULT:      -4.4      1.387      2.152
REMARK  2 active torsions:
REMARK  status: ('A' for Active; 'I' for Inactive)
REMARK    1  A    between atoms: C_1  and  C_6 
REMARK    2  A    between atoms: C_2  and  C_6 
ROOT
HETATM    1  C   UNL     1      63.452   7.224   3.809  1.00  0.00    -0.030 C 
HETATM    2  C   UNL     1      62.477   7.067   1.474  1.00  0.00    -0.013 C 
HETATM    3  C   UNL     1      60.962   6.865   3.481  1.00  0.00    -0.013 C 
HETATM    4  C   UNL     1      61.977   9.087   2.895  1.00  0.00    -0.013 C 
HETATM    5  C   UNL     1      62.175   6.549   4.358  1.00  0.00     0.014 C 
HETATM    6  C   UNL     1      63.204   8.760   3.774  1.00  0.00     0.014 C 
HETATM    7  C   UNL     1      63.698   6.757   2.354  1.00  0.00     0.014 C 
HETATM    8  C   UNL     1      60.737   8.379   3.465  1.00  0.00     0.009 C 
HETATM    9  C   UNL     1      61.244   6.358   2.057  1.00  0.00     0.009 C 
HETATM   10  C   UNL     1      62.230   8.582   1.464  1.00  0.00     0.009 C 
ENDROOT
BRANCH   1  11
HETATM   11  C   UNL     1      64.663   6.890   4.703  1.00  0.00     0.122 C 
BRANCH  11  12
HETATM   12  C   UNL     1      64.812   7.788   5.900  1.00  0.00     0.173 C 
HETATM   13  O   UNL     1      65.567   8.750   5.973  1.00  0.00    -0.648 OA
HETATM   14  O   UNL     1      64.106   7.400   6.973  1.00  0.00    -0.648 OA
ENDBRANCH  11  12
ENDBRANCH   1  11
TORSDOF 2
ENDMDL
MODEL 7
REMARK VINA RESULT:      -4.3      1.855      2.992
REMARK  2 active torsions:
REMARK  status: ('A' for Active; 'I' for Inactive)
REMARK    1  A    between atoms: C_1  and  C_6 
REMARK    2  A    between atoms: C_2  and  C_6 
ROOT
HETATM    1  C   UNL     1      61.758   8.426   2.469  1.00  0.00    -0.030 C 
HETATM    2  C   UNL     1      59.526   7.225   2.472  1.00  0.00    -0.013 C 
HETATM    3  C   UNL     1      60.635   7.805   0.282  1.00  0.00    -0.013 C 
HETATM    4  C   UNL     1      61.597   5.995   1.732  1.00  0.00    -0.013 C 
HETATM    5  C   UNL     1      61.505   8.837   1.002  1.00  0.00     0.014 C 
HETATM    6  C   UNL     1      62.467   7.041   2.463  1.00  0.00     0.014 C 
HETATM    7  C   UNL     1      60.405   8.256   3.199  1.00  0.00     0.014 C 
HETATM    8  C   UNL     1      61.353   6.454   0.285  1.00  0.00     0.009 C 
HETATM    9  C   UNL     1      59.294   7.693   1.026  1.00  0.00     0.009 C 
HETATM   10  C   UNL     1      60.244   5.868   2.454  1.00  0.00     0.009 C 
ENDROOT
BRANCH   1  11
HETATM   11  C   UNL     1      62.633   9.480   3.178  1.00  0.00     0.122 C 
BRANCH  11  12
HETATM   12  C   UNL     1      62.048  10.866   3.179  1.00  0.00     0.173 C 
HETATM   13  O   UNL     1      61.986  11.609   2.207  1.00  0.00    -0.648 OA
HETATM   14  O   UNL     1      61.666  11.303   4.389  1.00  0.00    -0.648 OA
ENDBRANCH  11  12
ENDBRANCH   1  11
TORSDOF 2
ENDMDL
MODEL 8
REMARK VINA RESULT:      -4.1      2.697      4.559
REMARK  2 active torsions:
REMARK  status: ('A' for Active; 'I' for Inactive)
REMARK    1  A    between atoms: C_1  and  C_6 
REMARK    2  A    between atoms: C_2  and  C_6 
ROOT
HETATM    1  C   UNL     1      63.322   7.646   4.782  1.00  0.00    -0.030 C 
HETATM    2  C   UNL     1      64.547   6.162   6.431  1.00  0.00    -0.013 C 
HETATM    3  C   UNL     1      65.138   6.066   3.980  1.00  0.00    -0.013 C 
HETATM    4  C   UNL     1      65.767   8.080   5.344  1.00  0.00    -0.013 C 
HETATM    5  C   UNL     1      63.799   6.724   3.638  1.00  0.00     0.014 C 
HETATM    6  C   UNL     1      64.411   8.736   5.004  1.00  0.00     0.014 C 
HETATM    7  C   UNL     1      63.205   6.828   6.091  1.00  0.00     0.014 C 
HETATM    8  C   UNL     1      66.192   7.157   4.190  1.00  0.00     0.009 C 
HETATM    9  C   UNL     1      64.963   5.245   5.269  1.00  0.00     0.009 C 
HETATM   10  C   UNL     1      65.618   7.245   6.627  1.00  0.00     0.009 C 
ENDROOT
BRANCH   1  11
HETATM   11  C   UNL     1      61.971   8.294   4.420  1.00  0.00     0.122 C 
BRANCH  11  12
HETATM   12  C   UNL     1      62.086   9.510   3.542  1.00  0.00     0.173 C 
HETATM   13  O   UNL     1      62.497   9.514   2.388  1.00  0.00    -0.648 OA
HETATM   14  O   UNL     1      61.787  10.665   4.157  1.00  0.00    -0.648 OA
ENDBRANCH  11  12
ENDBRANCH   1  11
TORSDOF 2
ENDMDL
MODEL 9
REMARK VINA RESULT:      -4.1      4.869      6.325
REMARK  2 active torsions:
REMARK  status: ('A' for Active; 'I' for Inactive)
REMARK    1  A    between atoms: C_1  and  C_6 
REMARK    2  A    between atoms: C_2  and  C_6 
ROOT
HETATM    1  C   UNL     1      66.970   5.755   6.325  1.00  0.00    -0.030 C 
HETATM    2  C   UNL     1      66.476   7.259   4.345  1.00  0.00    -0.013 C 
HETATM    3  C   UNL     1      65.067   5.204   4.741  1.00  0.00    -0.013 C 
HETATM    4  C   UNL     1      64.861   7.180   6.278  1.00  0.00    -0.013 C 
HETATM    5  C   UNL     1      66.166   4.629   5.637  1.00  0.00     0.014 C 
HETATM    6  C   UNL     1      65.977   6.601   7.174  1.00  0.00     0.014 C 
HETATM    7  C   UNL     1      67.579   6.687   5.250  1.00  0.00     0.014 C 
HETATM    8  C   UNL     1      64.103   6.028   5.598  1.00  0.00     0.009 C 
HETATM    9  C   UNL     1      65.723   6.098   3.675  1.00  0.00     0.009 C 
HETATM   10  C   UNL     1      65.492   8.074   5.196  1.00  0.00     0.009 C 
ENDROOT
BRANCH   1  11
HETATM   11  C   UNL     1      68.075   5.156   7.219  1.00  0.00     0.122 C 
BRANCH  11  12
HETATM   12  C   UNL     1      67.688   5.013   8.665  1.00  0.00     0.173 C 
HETATM   13  O   UNL     1      68.032   5.766   9.568  1.00  0.00    -0.648 OA
HETATM   14  O   UNL     1      66.987   3.902   8.941  1.00  0.00    -0.648 OA
ENDBRANCH  11  12
ENDBRANCH   1  11
TORSDOF 2
ENDMDL
