MODEL 1
REMARK VINA RESULT:      -5.5      0.000      0.000
REMARK  3 active torsions:
REMARK  status: ('A' for Active; 'I' for Inactive)
REMARK    1  A    between atoms: C_2  and  C_7 
REMARK    2  A    between atoms: C_6  and  C_9 
REMARK    3  A    between atoms: C_7  and  C_9 
ROOT
HETATM    1  N   UNL     1      62.826   7.649   2.052  1.00  0.00    -0.365 N 
HETATM    2  C   UNL     1      63.149   7.906   4.245  1.00  0.00    -0.030 A 
HETATM    3  C   UNL     1      63.311   7.042   3.178  1.00  0.00     0.096 A 
HETATM    4  C   UNL     1      62.668   9.142   3.698  1.00  0.00    -0.002 A 
HETATM    5  C   UNL     1      62.459   8.944   2.332  1.00  0.00     0.042 A 
HETATM    6  C   UNL     1      62.386  10.416   4.236  1.00  0.00     0.014 A 
HETATM    7  C   UNL     1      61.966   9.941   1.483  1.00  0.00     0.030 A 
HETATM    8  C   UNL     1      61.922  11.435   3.395  1.00  0.00     0.001 A 
HETATM    9  C   UNL     1      61.712  11.196   2.039  1.00  0.00     0.002 A 
HETATM   10  H   UNL     1      62.751   7.222   1.168  1.00  0.00     0.165 HD
ENDROOT
BRANCH   2  11
HETATM   11  C   UNL     1      63.464   7.606   5.681  1.00  0.00     0.051 C 
BRANCH  11  12
HETATM   12  C   UNL     1      64.903   7.133   5.897  1.00  0.00     0.118 C 
BRANCH  12  13
HETATM   13  C   UNL     1      65.874   8.245   5.611  1.00  0.00     0.172 C 
HETATM   14  O   UNL     1      66.890   8.189   4.950  1.00  0.00    -0.648 OA
HETATM   15  O   UNL     1      65.505   9.405   6.196  1.00  0.00    -0.648 OA
ENDBRANCH  12  13
ENDBRANCH  11  12
ENDBRANCH   2  11
TORSDOF 3
ENDMDL
MODEL 2
REMARK VINA RESULT:      -5.3      1.503      2.438
REMARK  3 active torsions:
REMARK  status: ('A' for Active; 'I' for Inactive)
REMARK    1  A    between atoms: C_2  and  C_7 
REMARK    2  A    between atoms: C_6  and  C_9 
REMARK    3  A    between atoms: C_7  and  C_9 
ROOT
HETATM    1  N   UNL     1      62.322  10.781   4.186  1.00  0.00    -0.365 N 
HETATM    2  C   UNL     1      63.403   8.924   4.787  1.00  0.00    -0.030 A 
HETATM    3  C   UNL     1      62.934  10.146   5.232  1.00  0.00     0.096 A 
HETATM    4  C   UNL     1      62.926   8.770   3.443  1.00  0.00    -0.002 A 
HETATM    5  C   UNL     1      62.272   9.952   3.091  1.00  0.00     0.042 A 
HETATM    6  C   UNL     1      62.990   7.735   2.486  1.00  0.00     0.014 A 
HETATM    7  C   UNL     1      61.698  10.160   1.833  1.00  0.00     0.030 A 
HETATM    8  C   UNL     1      62.394   7.914   1.231  1.00  0.00     0.001 A 
HETATM    9  C   UNL     1      61.761   9.113   0.911  1.00  0.00     0.002 A 
HETATM   10  H   UNL     1      61.968  11.700   4.213  1.00  0.00     0.165 HD
ENDROOT
BRANCH   2  11
HETATM   11  C   UNL     1      64.214   7.945   5.585  1.00  0.00     0.051 C 
BRANCH  11  12
HETATM   12  C   UNL     1      65.622   7.730   5.024  1.00  0.00     0.118 C 
BRANCH  12  13
HETATM   13  C   UNL     1      66.659   8.002   6.079  1.00  0.00     0.172 C 
HETATM   14  O   UNL     1      66.668   8.902   6.893  1.00  0.00    -0.648 OA
HETATM   15  O   UNL     1      67.664   7.100   6.048  1.00  0.00    -0.648 OA
ENDBRANCH  12  13
ENDBRANCH  11  12
ENDBRANCH   2  11
TORSDOF 3
ENDMDL
MODEL 3
REMARK VINA RESULT:      -4.9      2.910      5.375
REMARK  3 active torsions:
REMARK  status: ('A' for Active; 'I' for Inactive)
REMARK    1  A    between atoms: C_2  and  C_7 
REMARK    2  A    between atoms: C_6  and  C_9 
REMARK    3  A    between atoms: C_7  and  C_9 
ROOT
HETATM    1  N   UNL     1      65.416   8.610   6.142  1.00  0.00    -0.365 N 
HETATM    2  C   UNL     1      64.147   8.316   4.331  1.00  0.00    -0.030 A 
HETATM    3  C   UNL     1      64.382   9.137   5.418  1.00  0.00     0.096 A 
HETATM    4  C   UNL     1      65.184   7.325   4.338  1.00  0.00    -0.002 A 
HETATM    5  C   UNL     1      65.948   7.524   5.490  1.00  0.00     0.042 A 
HETATM    6  C   UNL     1      65.548   6.270   3.473  1.00  0.00     0.014 A 
HETATM    7  C   UNL     1      67.037   6.716   5.831  1.00  0.00     0.030 A 
HETATM    8  C   UNL     1      66.655   5.471   3.783  1.00  0.00     0.001 A 
HETATM    9  C   UNL     1      67.385   5.691   4.948  1.00  0.00     0.002 A 
HETATM   10  H   UNL     1      65.735   8.958   7.007  1.00  0.00     0.165 HD
ENDROOT
BRANCH   2  11
HETATM   11  C   UNL     1      63.044   8.475   3.327  1.00  0.00     0.051 C 
BRANCH  11  12
HETATM   12  C   UNL     1      61.876   9.320   3.841  1.00  0.00     0.118 C 
BRANCH  12  13
HETATM   13  C   UNL     1      61.938  10.710   3.271  1.00  0.00     0.172 C 
HETATM   14  O   UNL     1      62.000  11.758   3.880  1.00  0.00    -0.648 OA
HETATM   15  O   UNL     1      61.913  10.707   1.920  1.00  0.00    -0.648 OA
ENDBRANCH  12  13
ENDBRANCH  11  12
ENDBRANCH   2  11
TORSDOF 3
ENDMDL
MODEL 4
REMARK VINA RESULT:      -4.9      2.097      4.570
REMARK  3 active torsions:
REMARK  status: ('A' for Active; 'I' for Inactive)
REMARK    1  A    between atoms: C_2  and  C_7 
REMARK    2  A    between atoms: C_6  and  C_9 
REMARK    3  A    between atoms: C_7  and  C_9 
ROOT
HETATM    1  N   UNL     1      64.955   5.939   3.005  1.00  0.00    -0.365 N 
HETATM    2  C   UNL     1      63.671   7.443   4.040  1.00  0.00    -0.030 A 
HETATM    3  C   UNL     1      63.679   6.424   3.105  1.00  0.00     0.096 A 
HETATM    4  C   UNL     1      64.983   7.473   4.621  1.00  0.00    -0.002 A 
HETATM    5  C   UNL     1      65.764   6.536   3.942  1.00  0.00     0.042 A 
HETATM    6  C   UNL     1      65.584   8.211   5.662  1.00  0.00     0.014 A 
HETATM    7  C   UNL     1      67.114   6.314   4.234  1.00  0.00     0.030 A 
HETATM    8  C   UNL     1      66.926   7.979   5.990  1.00  0.00     0.001 A 
HETATM    9  C   UNL     1      67.678   7.046   5.281  1.00  0.00     0.002 A 
HETATM   10  H   UNL     1      65.251   5.261   2.356  1.00  0.00     0.165 HD
ENDROOT
BRANCH   2  11
HETATM   11  C   UNL     1      62.498   8.309   4.393  1.00  0.00     0.051 C 
BRANCH  11  12
HETATM   12  C   UNL     1      62.524   9.673   3.700  1.00  0.00     0.118 C 
BRANCH  12  13
HETATM   13  C   UNL     1      62.549  10.782   4.716  1.00  0.00     0.172 C 
HETATM   14  O   UNL     1      62.977  10.736   5.851  1.00  0.00    -0.648 OA
HETATM   15  O   UNL     1      62.013  11.924   4.235  1.00  0.00    -0.648 OA
ENDBRANCH  12  13
ENDBRANCH  11  12
ENDBRANCH   2  11
TORSDOF 3
ENDMDL
MODEL 5
REMARK VINA RESULT:      -4.8      1.746      2.478
REMARK  3 active torsions:
REMARK  status: ('A' for Active; 'I' for Inactive)
REMARK    1  A    between atoms: C_2  and  C_7 
REMARK    2  A    between atoms: C_6  and  C_9 
REMARK    3  A    between atoms: C_7  and  C_9 
ROOT
HETATM    1  N   UNL     1      62.918   9.503   5.605  1.00  0.00    -0.365 N 
HETATM    2  C   UNL     1      63.159   7.698   4.316  1.00  0.00    -0.030 A 
HETATM    3  C   UNL     1      63.211   8.166   5.616  1.00  0.00     0.096 A 
HETATM    4  C   UNL     1      62.679   8.784   3.510  1.00  0.00    -0.002 A 
HETATM    5  C   UNL     1      62.557   9.900   4.340  1.00  0.00     0.042 A 
HETATM    6  C   UNL     1      62.339   8.927   2.148  1.00  0.00     0.014 A 
HETATM    7  C   UNL     1      62.133  11.151   3.879  1.00  0.00     0.030 A 
HETATM    8  C   UNL     1      61.882  10.164   1.676  1.00  0.00     0.001 A 
HETATM    9  C   UNL     1      61.786  11.259   2.530  1.00  0.00     0.002 A 
HETATM   10  H   UNL     1      62.961  10.096   6.391  1.00  0.00     0.165 HD
ENDROOT
BRANCH   2  11
HETATM   11  C   UNL     1      63.500   6.309   3.863  1.00  0.00     0.051 C 
BRANCH  11  12
HETATM   12  C   UNL     1      64.842   6.224   3.132  1.00  0.00     0.118 C 
BRANCH  12  13
HETATM   13  C   UNL     1      65.983   6.311   4.108  1.00  0.00     0.172 C 
HETATM   14  O   UNL     1      66.924   7.077   4.081  1.00  0.00    -0.648 OA
HETATM   15  O   UNL     1      65.877   5.397   5.097  1.00  0.00    -0.648 OA
ENDBRANCH  12  13
ENDBRANCH  11  12
ENDBRANCH   2  11
TORSDOF 3
ENDMDL
MODEL 6
REMARK VINA RESULT:      -4.7      2.001      2.453
REMARK  3 active torsions:
REMARK  status: ('A' for Active; 'I' for Inactive)
REMARK    1  A    between atoms: C_2  and  C_7 
REMARK    2  A    between atoms: C_6  and  C_9 
REMARK    3  A    between atoms: C_7  and  C_9 
ROOT
HETATM    1  N   UNL     1      64.071   7.020   3.357  1.00  0.00    -0.365 N 
HETATM    2  C   UNL     1      65.232   8.004   4.988  1.00  0.00    -0.030 A 
HETATM    3  C   UNL     1      65.223   6.952   4.092  1.00  0.00     0.096 A 
HETATM    4  C   UNL     1      64.090   8.815   4.677  1.00  0.00    -0.002 A 
HETATM    5  C   UNL     1      63.377   8.165   3.669  1.00  0.00     0.042 A 
HETATM    6  C   UNL     1      63.591  10.044   5.159  1.00  0.00     0.014 A 
HETATM    7  C   UNL     1      62.185   8.666   3.134  1.00  0.00     0.030 A 
HETATM    8  C   UNL     1      62.417  10.576   4.613  1.00  0.00     0.001 A 
HETATM    9  C   UNL     1      61.724   9.892   3.617  1.00  0.00     0.002 A 
HETATM   10  H   UNL     1      63.779   6.346   2.701  1.00  0.00     0.165 HD
ENDROOT
BRANCH   2  11
HETATM   11  C   UNL     1      66.268   8.255   6.045  1.00  0.00     0.051 C 
BRANCH  11  12
HETATM   12  C   UNL     1      66.930   6.974   6.557  1.00  0.00     0.118 C 
BRANCH  12  13
HETATM   13  C   UNL     1      66.596   6.749   8.006  1.00  0.00     0.172 C 
HETATM   14  O   UNL     1      67.369   6.574   8.925  1.00  0.00    -0.648 OA
HETATM   15  O   UNL     1      65.264   6.752   8.228  1.00  0.00    -0.648 OA
ENDBRANCH  12  13
ENDBRANCH  11  12
ENDBRANCH   2  11
TORSDOF 3
ENDMDL
MODEL 7
REMARK VINA RESULT:      -4.6      1.812      2.380
REMARK  3 active torsions:
REMARK  status: ('A' for Active; 'I' for Inactive)
REMARK    1  A    between atoms: C_2  and  C_7 
REMARK    2  A    between atoms: C_6  and  C_9 
REMARK    3  A    between atoms: C_7  and  C_9 
ROOT
HETATM    1  N   UNL     1      60.988   7.033   4.515  1.00  0.00    -0.365 N 
HETATM    2  C   UNL     1      62.877   8.216   4.407  1.00  0.00    -0.030 A 
HETATM    3  C   UNL     1      62.149   7.326   5.176  1.00  0.00     0.096 A 
HETATM    4  C   UNL     1      62.171   8.352   3.165  1.00  0.00    -0.002 A 
HETATM    5  C   UNL     1      60.989   7.617   3.271  1.00  0.00     0.042 A 
HETATM    6  C   UNL     1      62.424   9.035   1.956  1.00  0.00     0.014 A 
HETATM    7  C   UNL     1      60.042   7.545   2.245  1.00  0.00     0.030 A 
HETATM    8  C   UNL     1      61.501   8.948   0.906  1.00  0.00     0.001 A 
HETATM    9  C   UNL     1      60.326   8.216   1.054  1.00  0.00     0.002 A 
HETATM   10  H   UNL     1      60.256   6.482   4.877  1.00  0.00     0.165 HD
ENDROOT
BRANCH   2  11
HETATM   11  C   UNL     1      64.171   8.867   4.797  1.00  0.00     0.051 C 
BRANCH  11  12
HETATM   12  C   UNL     1      65.311   7.867   5.006  1.00  0.00     0.118 C 
BRANCH  12  13
HETATM   13  C   UNL     1      65.730   7.838   6.450  1.00  0.00     0.172 C 
HETATM   14  O   UNL     1      65.344   7.081   7.317  1.00  0.00    -0.648 OA
HETATM   15  O   UNL     1      66.638   8.795   6.735  1.00  0.00    -0.648 OA
ENDBRANCH  12  13
ENDBRANCH  11  12
ENDBRANCH   2  11
TORSDOF 3
ENDMDL
MODEL 8
REMARK VINA RESULT:      -4.6      2.665      5.205
REMARK  3 active torsions:
REMARK  status: ('A' for Active; 'I' for Inactive)
REMARK    1  A    between atoms: C_2  and  C_7 
REMARK    2  A    between atoms: C_6  and  C_9 
REMARK    3  A    between atoms: C_7  and  C_9 
ROOT
HETATM    1  N   UNL     1      63.356   6.006   6.183  1.00  0.00    -0.365 N 
HETATM    2  C   UNL     1      63.432   7.699   4.731  1.00  0.00    -0.030 A 
HETATM    3  C   UNL     1      62.624   6.714   5.270  1.00  0.00     0.096 A 
HETATM    4  C   UNL     1      64.666   7.658   5.462  1.00  0.00    -0.002 A 
HETATM    5  C   UNL     1      64.595   6.580   6.346  1.00  0.00     0.042 A 
HETATM    6  C   UNL     1      65.844   8.435   5.454  1.00  0.00     0.014 A 
HETATM    7  C   UNL     1      65.641   6.228   7.205  1.00  0.00     0.030 A 
HETATM    8  C   UNL     1      66.889   8.117   6.330  1.00  0.00     0.001 A 
HETATM    9  C   UNL     1      66.787   7.025   7.188  1.00  0.00     0.002 A 
HETATM   10  H   UNL     1      63.043   5.201   6.656  1.00  0.00     0.165 HD
ENDROOT
BRANCH   2  11
HETATM   11  C   UNL     1      63.056   8.645   3.629  1.00  0.00     0.051 C 
BRANCH  11  12
HETATM   12  C   UNL     1      62.023   9.690   4.056  1.00  0.00     0.118 C 
BRANCH  12  13
HETATM   13  C   UNL     1      61.967  10.816   3.060  1.00  0.00     0.172 C 
HETATM   14  O   UNL     1      61.818  11.999   3.288  1.00  0.00    -0.648 OA
HETATM   15  O   UNL     1      62.100  10.378   1.790  1.00  0.00    -0.648 OA
ENDBRANCH  12  13
ENDBRANCH  11  12
ENDBRANCH   2  11
TORSDOF 3
ENDMDL
MODEL 9
REMARK VINA RESULT:      -4.4      3.179      5.498
REMARK  3 active torsions:
REMARK  status: ('A' for Active; 'I' for Inactive)
REMARK    1  A    between atoms: C_2  and  C_7 
REMARK    2  A    between atoms: C_6  and  C_9 
REMARK    3  A    between atoms: C_7  and  C_9 
ROOT
HETATM    1  N   UNL     1      64.466   9.111   5.649  1.00  0.00    -0.365 N 
HETATM    2  C   UNL     1      63.812   7.913   3.884  1.00  0.00    -0.030 A 
HETATM    3  C   UNL     1      63.503   8.998   4.684  1.00  0.00     0.096 A 
HETATM    4  C   UNL     1      65.096   7.441   4.316  1.00  0.00    -0.002 A 
HETATM    5  C   UNL     1      65.468   8.197   5.430  1.00  0.00     0.042 A 
HETATM    6  C   UNL     1      65.981   6.437   3.868  1.00  0.00     0.014 A 
HETATM    7  C   UNL     1      66.663   7.990   6.127  1.00  0.00     0.030 A 
HETATM    8  C   UNL     1      67.197   6.238   4.535  1.00  0.00     0.001 A 
HETATM    9  C   UNL     1      67.528   7.002   5.650  1.00  0.00     0.002 A 
HETATM   10  H   UNL     1      64.445   9.755   6.394  1.00  0.00     0.165 HD
ENDROOT
BRANCH   2  11
HETATM   11  C   UNL     1      62.975   7.377   2.761  1.00  0.00     0.051 C 
BRANCH  11  12
HETATM   12  C   UNL     1      62.401   8.473   1.860  1.00  0.00     0.118 C 
BRANCH  12  13
HETATM   13  C   UNL     1      60.904   8.358   1.775  1.00  0.00     0.172 C 
HETATM   14  O   UNL     1      60.205   8.500   0.792  1.00  0.00    -0.648 OA
HETATM   15  O   UNL     1      60.348   8.064   2.970  1.00  0.00    -0.648 OA
ENDBRANCH  12  13
ENDBRANCH  11  12
ENDBRANCH   2  11
TORSDOF 3
ENDMDL
