MODEL 1
REMARK VINA RESULT:      -5.1      0.000      0.000
REMARK  2 active torsions:
REMARK  status: ('A' for Active; 'I' for Inactive)
REMARK    1  A    between atoms: C_3  and  C_8 
REMARK    2  A    between atoms: C_6  and  N_9 
ROOT
HETATM    1  N   UNL     1      65.310   8.613   5.827  1.00  0.00    -0.321 N 
ATOM      2  HN  UNL     1      65.741   9.520   5.648  1.00  0.00     0.169 HD
HETATM    3  C   UNL     1      64.047   8.214   5.377  1.00  0.00     0.123 A 
HETATM    4  N   UNL     1      63.607   6.995   5.722  1.00  0.00    -0.309 N 
ATOM      5  HN  UNL     1      62.704   6.586   5.481  1.00  0.00     0.176 HD
HETATM    6  C   UNL     1      65.853   7.639   6.515  1.00  0.00     0.160 A 
HETATM    7  S   UNL     1      64.811   6.275   6.618  1.00  0.00     0.024 SA
ENDROOT
BRANCH   3   8
HETATM    8  C   UNL     1      63.250   9.118   4.540  1.00  0.00     0.009 A 
HETATM    9  C   UNL     1      62.876  10.383   5.019  1.00  0.00     0.015 A 
HETATM   10  C   UNL     1      62.140  11.261   4.218  1.00  0.00     0.001 A 
HETATM   11  C   UNL     1      61.763  10.883   2.932  1.00  0.00     0.000 A 
HETATM   12  C   UNL     1      62.118   9.627   2.444  1.00  0.00     0.001 A 
HETATM   13  C   UNL     1      62.856   8.749   3.244  1.00  0.00     0.015 A 
ENDBRANCH   3   8
BRANCH   6  14
HETATM   14  N   UNL     1      67.068   7.700   7.084  1.00  0.00    -0.379 N 
HETATM   15  H   UNL     1      67.838   7.274   6.644  1.00  0.00     0.158 HD
HETATM   16  H   UNL     1      67.187   8.171   7.940  1.00  0.00     0.158 HD
ENDBRANCH   6  14
TORSDOF 2
ENDMDL
MODEL 2
REMARK VINA RESULT:      -4.9      1.307      1.493
REMARK  2 active torsions:
REMARK  status: ('A' for Active; 'I' for Inactive)
REMARK    1  A    between atoms: C_3  and  C_8 
REMARK    2  A    between atoms: C_6  and  N_9 
ROOT
HETATM    1  N   UNL     1      64.735   7.506   6.674  1.00  0.00    -0.321 N 
ATOM      2  HN  UNL     1      63.841   7.504   7.166  1.00  0.00     0.169 HD
HETATM    3  C   UNL     1      64.975   8.105   5.432  1.00  0.00     0.123 A 
HETATM    4  N   UNL     1      66.201   7.995   4.901  1.00  0.00    -0.309 N 
ATOM      5  HN  UNL     1      66.506   8.363   4.001  1.00  0.00     0.176 HD
HETATM    6  C   UNL     1      65.839   6.948   7.106  1.00  0.00     0.160 A 
HETATM    7  S   UNL     1      67.130   7.143   5.988  1.00  0.00     0.024 SA
ENDROOT
BRANCH   3   8
HETATM    8  C   UNL     1      63.899   8.840   4.756  1.00  0.00     0.009 A 
HETATM    9  C   UNL     1      63.426  10.050   5.284  1.00  0.00     0.015 A 
HETATM   10  C   UNL     1      62.420  10.769   4.631  1.00  0.00     0.001 A 
HETATM   11  C   UNL     1      61.871  10.283   3.447  1.00  0.00     0.000 A 
HETATM   12  C   UNL     1      62.323   9.078   2.914  1.00  0.00     0.001 A 
HETATM   13  C   UNL     1      63.330   8.359   3.565  1.00  0.00     0.015 A 
ENDBRANCH   3   8
BRANCH   6  14
HETATM   14  N   UNL     1      65.948   6.291   8.273  1.00  0.00    -0.379 N 
HETATM   15  H   UNL     1      65.339   6.503   9.015  1.00  0.00     0.158 HD
HETATM   16  H   UNL     1      66.638   5.597   8.383  1.00  0.00     0.158 HD
ENDBRANCH   6  14
TORSDOF 2
ENDMDL
MODEL 3
REMARK VINA RESULT:      -4.9      1.372      2.053
REMARK  2 active torsions:
REMARK  status: ('A' for Active; 'I' for Inactive)
REMARK    1  A    between atoms: C_3  and  C_8 
REMARK    2  A    between atoms: C_6  and  N_9 
ROOT
HETATM    1  N   UNL     1      65.535   8.046   6.555  1.00  0.00    -0.321 N 
ATOM      2  HN  UNL     1      64.934   8.517   7.232  1.00  0.00     0.169 HD
HETATM    3  C   UNL     1      65.291   7.960   5.179  1.00  0.00     0.123 A 
HETATM    4  N   UNL     1      66.163   7.279   4.422  1.00  0.00    -0.309 N 
ATOM      5  HN  UNL     1      66.099   7.122   3.417  1.00  0.00     0.176 HD
HETATM    6  C   UNL     1      66.655   7.428   6.836  1.00  0.00     0.160 A 
HETATM    7  S   UNL     1      67.371   6.739   5.432  1.00  0.00     0.024 SA
ENDROOT
BRANCH   3   8
HETATM    8  C   UNL     1      64.111   8.617   4.604  1.00  0.00     0.009 A 
HETATM    9  C   UNL     1      63.466   8.066   3.487  1.00  0.00     0.015 A 
HETATM   10  C   UNL     1      62.326   8.670   2.949  1.00  0.00     0.001 A 
HETATM   11  C   UNL     1      61.822   9.838   3.518  1.00  0.00     0.000 A 
HETATM   12  C   UNL     1      62.455  10.404   4.621  1.00  0.00     0.001 A 
HETATM   13  C   UNL     1      63.595   9.799   5.161  1.00  0.00     0.015 A 
ENDBRANCH   3   8
BRANCH   6  14
HETATM   14  N   UNL     1      67.176   7.330   8.070  1.00  0.00    -0.379 N 
HETATM   15  H   UNL     1      68.132   7.131   8.185  1.00  0.00     0.158 HD
HETATM   16  H   UNL     1      66.599   7.458   8.858  1.00  0.00     0.158 HD
ENDBRANCH   6  14
TORSDOF 2
ENDMDL
MODEL 4
REMARK VINA RESULT:      -4.5      2.428      5.045
REMARK  2 active torsions:
REMARK  status: ('A' for Active; 'I' for Inactive)
REMARK    1  A    between atoms: C_3  and  C_8 
REMARK    2  A    between atoms: C_6  and  N_9 
ROOT
HETATM    1  N   UNL     1      64.147   9.794   5.614  1.00  0.00    -0.321 N 
ATOM      2  HN  UNL     1      64.665  10.215   6.385  1.00  0.00     0.169 HD
HETATM    3  C   UNL     1      64.425   8.552   5.033  1.00  0.00     0.123 A 
HETATM    4  N   UNL     1      63.667   8.150   4.003  1.00  0.00    -0.309 N 
ATOM      5  HN  UNL     1      63.770   7.283   3.477  1.00  0.00     0.176 HD
HETATM    6  C   UNL     1      63.115  10.333   5.013  1.00  0.00     0.160 A 
HETATM    7  S   UNL     1      62.524   9.333   3.745  1.00  0.00     0.024 SA
ENDROOT
BRANCH   3   8
HETATM    8  C   UNL     1      65.516   7.725   5.563  1.00  0.00     0.009 A 
HETATM    9  C   UNL     1      65.299   6.887   6.666  1.00  0.00     0.015 A 
HETATM   10  C   UNL     1      66.325   6.076   7.161  1.00  0.00     0.001 A 
HETATM   11  C   UNL     1      67.583   6.100   6.561  1.00  0.00     0.000 A 
HETATM   12  C   UNL     1      67.818   6.933   5.470  1.00  0.00     0.001 A 
HETATM   13  C   UNL     1      66.791   7.743   4.974  1.00  0.00     0.015 A 
ENDBRANCH   3   8
BRANCH   6  14
HETATM   14  N   UNL     1      62.589  11.526   5.335  1.00  0.00    -0.379 N 
HETATM   15  H   UNL     1      61.639  11.594   5.581  1.00  0.00     0.158 HD
HETATM   16  H   UNL     1      63.155  12.332   5.324  1.00  0.00     0.158 HD
ENDBRANCH   6  14
TORSDOF 2
ENDMDL
MODEL 5
REMARK VINA RESULT:      -4.5      1.887      1.961
REMARK  2 active torsions:
REMARK  status: ('A' for Active; 'I' for Inactive)
REMARK    1  A    between atoms: C_3  and  C_8 
REMARK    2  A    between atoms: C_6  and  N_9 
ROOT
HETATM    1  N   UNL     1      63.970   6.925   3.838  1.00  0.00    -0.321 N 
ATOM      2  HN  UNL     1      64.287   6.929   2.869  1.00  0.00     0.169 HD
HETATM    3  C   UNL     1      63.156   7.900   4.427  1.00  0.00     0.123 A 
HETATM    4  N   UNL     1      62.848   7.769   5.725  1.00  0.00    -0.309 N 
ATOM      5  HN  UNL     1      62.285   8.411   6.282  1.00  0.00     0.176 HD
HETATM    6  C   UNL     1      64.259   6.007   4.727  1.00  0.00     0.160 A 
HETATM    7  S   UNL     1      63.559   6.360   6.257  1.00  0.00     0.024 SA
ENDROOT
BRANCH   3   8
HETATM    8  C   UNL     1      62.657   9.020   3.620  1.00  0.00     0.009 A 
HETATM    9  C   UNL     1      62.365  10.253   4.222  1.00  0.00     0.015 A 
HETATM   10  C   UNL     1      61.914  11.333   3.457  1.00  0.00     0.001 A 
HETATM   11  C   UNL     1      61.744  11.190   2.081  1.00  0.00     0.000 A 
HETATM   12  C   UNL     1      62.020   9.970   1.470  1.00  0.00     0.001 A 
HETATM   13  C   UNL     1      62.472   8.890   2.234  1.00  0.00     0.015 A 
ENDBRANCH   3   8
BRANCH   6  14
HETATM   14  N   UNL     1      65.020   4.929   4.480  1.00  0.00    -0.379 N 
HETATM   15  H   UNL     1      65.034   4.533   3.580  1.00  0.00     0.158 HD
HETATM   16  H   UNL     1      65.564   4.536   5.201  1.00  0.00     0.158 HD
ENDBRANCH   6  14
TORSDOF 2
ENDMDL
MODEL 6
REMARK VINA RESULT:      -4.4      2.900      4.761
REMARK  2 active torsions:
REMARK  status: ('A' for Active; 'I' for Inactive)
REMARK    1  A    between atoms: C_3  and  C_8 
REMARK    2  A    between atoms: C_6  and  N_9 
ROOT
HETATM    1  N   UNL     1      64.204   9.462   5.471  1.00  0.00    -0.321 N 
ATOM      2  HN  UNL     1      64.952   9.415   6.163  1.00  0.00     0.169 HD
HETATM    3  C   UNL     1      64.048   8.591   4.387  1.00  0.00     0.123 A 
HETATM    4  N   UNL     1      63.026   8.803   3.546  1.00  0.00    -0.309 N 
ATOM      5  HN  UNL     1      62.806   8.261   2.711  1.00  0.00     0.176 HD
HETATM    6  C   UNL     1      63.239  10.348   5.458  1.00  0.00     0.160 A 
HETATM    7  S   UNL     1      62.182  10.117   4.122  1.00  0.00     0.024 SA
ENDROOT
BRANCH   3   8
HETATM    8  C   UNL     1      64.984   7.475   4.206  1.00  0.00     0.009 A 
HETATM    9  C   UNL     1      64.656   6.404   3.362  1.00  0.00     0.015 A 
HETATM   10  C   UNL     1      65.553   5.350   3.163  1.00  0.00     0.001 A 
HETATM   11  C   UNL     1      66.786   5.353   3.810  1.00  0.00     0.000 A 
HETATM   12  C   UNL     1      67.125   6.404   4.658  1.00  0.00     0.001 A 
HETATM   13  C   UNL     1      66.228   7.459   4.857  1.00  0.00     0.015 A 
ENDBRANCH   3   8
BRANCH   6  14
HETATM   14  N   UNL     1      63.097  11.326   6.367  1.00  0.00    -0.379 N 
HETATM   15  H   UNL     1      62.198  11.625   6.632  1.00  0.00     0.158 HD
HETATM   16  H   UNL     1      63.894  11.743   6.769  1.00  0.00     0.158 HD
ENDBRANCH   6  14
TORSDOF 2
ENDMDL
MODEL 7
REMARK VINA RESULT:      -4.1      2.059      3.194
REMARK  2 active torsions:
REMARK  status: ('A' for Active; 'I' for Inactive)
REMARK    1  A    between atoms: C_3  and  C_8 
REMARK    2  A    between atoms: C_6  and  N_9 
ROOT
HETATM    1  N   UNL     1      61.756   6.705   4.152  1.00  0.00    -0.321 N 
ATOM      2  HN  UNL     1      60.797   6.793   3.815  1.00  0.00     0.169 HD
HETATM    3  C   UNL     1      62.752   7.681   4.026  1.00  0.00     0.123 A 
HETATM    4  N   UNL     1      63.976   7.402   4.496  1.00  0.00    -0.309 N 
ATOM      5  HN  UNL     1      64.794   8.008   4.454  1.00  0.00     0.176 HD
HETATM    6  C   UNL     1      62.249   5.660   4.770  1.00  0.00     0.160 A 
HETATM    7  S   UNL     1      63.909   5.877   5.162  1.00  0.00     0.024 SA
ENDROOT
BRANCH   3   8
HETATM    8  C   UNL     1      62.435   8.972   3.404  1.00  0.00     0.009 A 
HETATM    9  C   UNL     1      62.292   9.073   2.012  1.00  0.00     0.015 A 
HETATM   10  C   UNL     1      61.964  10.293   1.414  1.00  0.00     0.001 A 
HETATM   11  C   UNL     1      61.781  11.428   2.200  1.00  0.00     0.000 A 
HETATM   12  C   UNL     1      61.927  11.347   3.583  1.00  0.00     0.001 A 
HETATM   13  C   UNL     1      62.254  10.127   4.182  1.00  0.00     0.015 A 
ENDBRANCH   3   8
BRANCH   6  14
HETATM   14  N   UNL     1      61.550   4.548   5.052  1.00  0.00    -0.379 N 
HETATM   15  H   UNL     1      60.612   4.617   5.338  1.00  0.00     0.158 HD
HETATM   16  H   UNL     1      61.978   3.665   4.971  1.00  0.00     0.158 HD
ENDBRANCH   6  14
TORSDOF 2
ENDMDL
MODEL 8
REMARK VINA RESULT:      -3.9      3.203      3.694
REMARK  2 active torsions:
REMARK  status: ('A' for Active; 'I' for Inactive)
REMARK    1  A    between atoms: C_3  and  C_8 
REMARK    2  A    between atoms: C_6  and  N_9 
ROOT
HETATM    1  N   UNL     1      62.078   6.710   3.702  1.00  0.00    -0.321 N 
ATOM      2  HN  UNL     1      61.759   6.942   4.643  1.00  0.00     0.169 HD
HETATM    3  C   UNL     1      62.331   7.635   2.682  1.00  0.00     0.123 A 
HETATM    4  N   UNL     1      62.718   7.169   1.486  1.00  0.00    -0.309 N 
ATOM      5  HN  UNL     1      62.916   7.725   0.654  1.00  0.00     0.176 HD
HETATM    6  C   UNL     1      62.314   5.500   3.258  1.00  0.00     0.160 A 
HETATM    7  S   UNL     1      62.814   5.512   1.613  1.00  0.00     0.024 SA
ENDROOT
BRANCH   3   8
HETATM    8  C   UNL     1      62.182   9.071   2.945  1.00  0.00     0.009 A 
HETATM    9  C   UNL     1      62.380   9.580   4.237  1.00  0.00     0.015 A 
HETATM   10  C   UNL     1      62.266  10.950   4.490  1.00  0.00     0.001 A 
HETATM   11  C   UNL     1      61.946  11.827   3.455  1.00  0.00     0.000 A 
HETATM   12  C   UNL     1      61.738  11.337   2.169  1.00  0.00     0.001 A 
HETATM   13  C   UNL     1      61.853   9.966   1.914  1.00  0.00     0.015 A 
ENDBRANCH   3   8
BRANCH   6  14
HETATM   14  N   UNL     1      62.171   4.384   3.992  1.00  0.00    -0.379 N 
HETATM   15  H   UNL     1      62.107   3.509   3.547  1.00  0.00     0.158 HD
HETATM   16  H   UNL     1      62.131   4.443   4.974  1.00  0.00     0.158 HD
ENDBRANCH   6  14
TORSDOF 2
ENDMDL
MODEL 9
REMARK VINA RESULT:      -3.9      4.079      5.380
REMARK  2 active torsions:
REMARK  status: ('A' for Active; 'I' for Inactive)
REMARK    1  A    between atoms: C_3  and  C_8 
REMARK    2  A    between atoms: C_6  and  N_9 
ROOT
HETATM    1  N   UNL     1      60.394   6.977   2.841  1.00  0.00    -0.321 N 
ATOM      2  HN  UNL     1      60.633   6.441   3.675  1.00  0.00     0.169 HD
HETATM    3  C   UNL     1      60.790   8.296   2.586  1.00  0.00     0.123 A 
HETATM    4  N   UNL     1      60.368   8.875   1.453  1.00  0.00    -0.309 N 
ATOM      5  HN  UNL     1      60.563   9.830   1.151  1.00  0.00     0.176 HD
HETATM    6  C   UNL     1      59.670   6.541   1.841  1.00  0.00     0.160 A 
HETATM    7  S   UNL     1      59.466   7.743   0.629  1.00  0.00     0.024 SA
ENDROOT
BRANCH   3   8
HETATM    8  C   UNL     1      61.653   8.998   3.542  1.00  0.00     0.009 A 
HETATM    9  C   UNL     1      62.550   8.281   4.348  1.00  0.00     0.015 A 
HETATM   10  C   UNL     1      63.395   8.945   5.242  1.00  0.00     0.001 A 
HETATM   11  C   UNL     1      63.347  10.334   5.347  1.00  0.00     0.000 A 
HETATM   12  C   UNL     1      62.456  11.060   4.561  1.00  0.00     0.001 A 
HETATM   13  C   UNL     1      61.612  10.397   3.665  1.00  0.00     0.015 A 
ENDBRANCH   3   8
BRANCH   6  14
HETATM   14  N   UNL     1      59.138   5.309   1.774  1.00  0.00    -0.379 N 
HETATM   15  H   UNL     1      58.472   5.024   2.440  1.00  0.00     0.158 HD
HETATM   16  H   UNL     1      59.414   4.693   1.057  1.00  0.00     0.158 HD
ENDBRANCH   6  14
TORSDOF 2
ENDMDL
