MODEL 1
REMARK VINA RESULT:      -5.8      0.000      0.000
REMARK  1 active torsions:
REMARK  status: ('A' for Active; 'I' for Inactive)
REMARK    1  A    between atoms: C_4  and  O_8 
ROOT
HETATM    1  C   UNL     1      62.825  10.266   5.054  1.00  0.00     0.250 A 
HETATM    2  C   UNL     1      62.180  11.240   4.146  1.00  0.00     0.112 A 
HETATM    3  N   UNL     1      63.115   9.008   4.544  1.00  0.00    -0.318 N 
HETATM    4  C   UNL     1      61.895  10.935   2.878  1.00  0.00     0.083 A 
HETATM    5  C   UNL     1      62.814   8.653   3.192  1.00  0.00     0.050 A 
HETATM    6  C   UNL     1      62.214   9.607   2.346  1.00  0.00     0.024 A 
HETATM    7  O   UNL     1      63.068  10.627   6.205  1.00  0.00    -0.268 OA
HETATM    8  C   UNL     1      63.742   8.036   5.425  1.00  0.00     0.159 C 
HETATM    9  C   UNL     1      61.925   9.270   1.015  1.00  0.00     0.016 A 
HETATM   10  C   UNL     1      63.099   7.377   2.679  1.00  0.00     0.031 A 
HETATM   11  C   UNL     1      62.212   7.998   0.521  1.00  0.00     0.001 A 
HETATM   12  C   UNL     1      62.796   7.051   1.355  1.00  0.00     0.002 A 
ENDROOT
BRANCH   4  13
HETATM   13  O   UNL     1      61.288  11.822   2.013  1.00  0.00    -0.360 OA
HETATM   14  H   UNL     1      61.061  11.551   1.146  1.00  0.00     0.217 HD
ENDBRANCH   4  13
TORSDOF 1
ENDMDL
MODEL 2
REMARK VINA RESULT:      -5.4      1.435      2.950
REMARK  1 active torsions:
REMARK  status: ('A' for Active; 'I' for Inactive)
REMARK    1  A    between atoms: C_4  and  O_8 
ROOT
HETATM    1  C   UNL     1      62.278  10.897   4.202  1.00  0.00     0.250 A 
HETATM    2  C   UNL     1      62.749   9.758   5.020  1.00  0.00     0.112 A 
HETATM    3  N   UNL     1      62.078  10.673   2.846  1.00  0.00    -0.318 N 
HETATM    4  C   UNL     1      62.964   8.553   4.488  1.00  0.00     0.083 A 
HETATM    5  C   UNL     1      62.307   9.394   2.250  1.00  0.00     0.050 A 
HETATM    6  C   UNL     1      62.740   8.325   3.058  1.00  0.00     0.024 A 
HETATM    7  O   UNL     1      62.090  11.973   4.768  1.00  0.00    -0.268 OA
HETATM    8  C   UNL     1      61.624  11.784   2.025  1.00  0.00     0.159 C 
HETATM    9  C   UNL     1      62.957   7.063   2.482  1.00  0.00     0.016 A 
HETATM   10  C   UNL     1      62.114   9.171   0.877  1.00  0.00     0.031 A 
HETATM   11  C   UNL     1      62.763   6.858   1.117  1.00  0.00     0.001 A 
HETATM   12  C   UNL     1      62.345   7.913   0.314  1.00  0.00     0.002 A 
ENDROOT
BRANCH   4  13
HETATM   13  O   UNL     1      63.408   7.477   5.228  1.00  0.00    -0.360 OA
HETATM   14  H   UNL     1      64.267   7.132   5.085  1.00  0.00     0.217 HD
ENDBRANCH   4  13
TORSDOF 1
ENDMDL
MODEL 3
REMARK VINA RESULT:      -5.3      1.356      1.613
REMARK  1 active torsions:
REMARK  status: ('A' for Active; 'I' for Inactive)
REMARK    1  A    between atoms: C_4  and  O_8 
ROOT
HETATM    1  C   UNL     1      63.954   8.589   5.158  1.00  0.00     0.250 A 
HETATM    2  C   UNL     1      63.162   9.837   5.108  1.00  0.00     0.112 A 
HETATM    3  N   UNL     1      63.885   7.740   4.061  1.00  0.00    -0.318 N 
HETATM    4  C   UNL     1      62.414  10.151   4.047  1.00  0.00     0.083 A 
HETATM    5  C   UNL     1      63.088   8.050   2.916  1.00  0.00     0.050 A 
HETATM    6  C   UNL     1      62.356   9.253   2.890  1.00  0.00     0.024 A 
HETATM    7  O   UNL     1      64.629   8.377   6.165  1.00  0.00    -0.268 OA
HETATM    8  C   UNL     1      64.652   6.505   4.097  1.00  0.00     0.159 C 
HETATM    9  C   UNL     1      61.578   9.569   1.765  1.00  0.00     0.016 A 
HETATM   10  C   UNL     1      63.010   7.186   1.811  1.00  0.00     0.031 A 
HETATM   11  C   UNL     1      61.510   8.701   0.676  1.00  0.00     0.001 A 
HETATM   12  C   UNL     1      62.224   7.508   0.702  1.00  0.00     0.002 A 
ENDROOT
BRANCH   4  13
HETATM   13  O   UNL     1      61.661  11.305   3.978  1.00  0.00    -0.360 OA
HETATM   14  H   UNL     1      60.919  11.347   3.408  1.00  0.00     0.217 HD
ENDBRANCH   4  13
TORSDOF 1
ENDMDL
MODEL 4
REMARK VINA RESULT:      -5.2      0.973      3.390
REMARK  1 active torsions:
REMARK  status: ('A' for Active; 'I' for Inactive)
REMARK    1  A    between atoms: C_4  and  O_8 
ROOT
HETATM    1  C   UNL     1      61.956  10.899   2.749  1.00  0.00     0.250 A 
HETATM    2  C   UNL     1      62.195  11.264   4.163  1.00  0.00     0.112 A 
HETATM    3  N   UNL     1      62.318   9.620   2.347  1.00  0.00    -0.318 N 
HETATM    4  C   UNL     1      62.726  10.400   5.030  1.00  0.00     0.083 A 
HETATM    5  C   UNL     1      62.894   8.677   3.254  1.00  0.00     0.050 A 
HETATM    6  C   UNL     1      63.095   9.048   4.598  1.00  0.00     0.024 A 
HETATM    7  O   UNL     1      61.450  11.746   2.014  1.00  0.00    -0.268 OA
HETATM    8  C   UNL     1      62.098   9.247   0.959  1.00  0.00     0.159 C 
HETATM    9  C   UNL     1      63.651   8.125   5.497  1.00  0.00     0.016 A 
HETATM   10  C   UNL     1      63.269   7.388   2.844  1.00  0.00     0.031 A 
HETATM   11  C   UNL     1      64.020   6.849   5.075  1.00  0.00     0.001 A 
HETATM   12  C   UNL     1      63.832   6.482   3.747  1.00  0.00     0.002 A 
ENDROOT
BRANCH   4  13
HETATM   13  O   UNL     1      62.964  10.717   6.352  1.00  0.00    -0.360 OA
HETATM   14  H   UNL     1      62.248  10.823   6.945  1.00  0.00     0.217 HD
ENDBRANCH   4  13
TORSDOF 1
ENDMDL
MODEL 5
REMARK VINA RESULT:      -4.9      2.501      4.469
REMARK  1 active torsions:
REMARK  status: ('A' for Active; 'I' for Inactive)
REMARK    1  A    between atoms: C_4  and  O_8 
ROOT
HETATM    1  C   UNL     1      65.001   6.493   3.548  1.00  0.00     0.250 A 
HETATM    2  C   UNL     1      65.669   7.140   4.699  1.00  0.00     0.112 A 
HETATM    3  N   UNL     1      63.870   7.112   3.032  1.00  0.00    -0.318 N 
HETATM    4  C   UNL     1      65.217   8.282   5.220  1.00  0.00     0.083 A 
HETATM    5  C   UNL     1      63.362   8.332   3.576  1.00  0.00     0.050 A 
HETATM    6  C   UNL     1      64.029   8.933   4.661  1.00  0.00     0.024 A 
HETATM    7  O   UNL     1      65.485   5.448   3.115  1.00  0.00    -0.268 OA
HETATM    8  C   UNL     1      63.196   6.485   1.906  1.00  0.00     0.159 C 
HETATM    9  C   UNL     1      63.542  10.137   5.195  1.00  0.00     0.016 A 
HETATM   10  C   UNL     1      62.213   8.953   3.059  1.00  0.00     0.031 A 
HETATM   11  C   UNL     1      62.398  10.739   4.673  1.00  0.00     0.001 A 
HETATM   12  C   UNL     1      61.733  10.145   3.607  1.00  0.00     0.002 A 
ENDROOT
BRANCH   4  13
HETATM   13  O   UNL     1      65.818   8.902   6.297  1.00  0.00    -0.360 OA
HETATM   14  H   UNL     1      66.403   9.621   6.158  1.00  0.00     0.217 HD
ENDBRANCH   4  13
TORSDOF 1
ENDMDL
MODEL 6
REMARK VINA RESULT:      -4.9      2.010      3.850
REMARK  1 active torsions:
REMARK  status: ('A' for Active; 'I' for Inactive)
REMARK    1  A    between atoms: C_4  and  O_8 
ROOT
HETATM    1  C   UNL     1      63.212   6.550   3.607  1.00  0.00     0.250 A 
HETATM    2  C   UNL     1      63.156   7.165   4.951  1.00  0.00     0.112 A 
HETATM    3  N   UNL     1      62.898   7.355   2.519  1.00  0.00    -0.318 N 
HETATM    4  C   UNL     1      62.829   8.447   5.123  1.00  0.00     0.083 A 
HETATM    5  C   UNL     1      62.538   8.729   2.676  1.00  0.00     0.050 A 
HETATM    6  C   UNL     1      62.508   9.291   3.968  1.00  0.00     0.024 A 
HETATM    7  O   UNL     1      63.536   5.365   3.529  1.00  0.00    -0.268 OA
HETATM    8  C   UNL     1      62.940   6.764   1.191  1.00  0.00     0.159 C 
HETATM    9  C   UNL     1      62.166  10.643   4.129  1.00  0.00     0.016 A 
HETATM   10  C   UNL     1      62.210   9.540   1.578  1.00  0.00     0.031 A 
HETATM   11  C   UNL     1      61.841  11.434   3.029  1.00  0.00     0.001 A 
HETATM   12  C   UNL     1      61.860  10.881   1.754  1.00  0.00     0.002 A 
ENDROOT
BRANCH   4  13
HETATM   13  O   UNL     1      62.763   9.043   6.366  1.00  0.00    -0.360 OA
HETATM   14  H   UNL     1      62.759   9.977   6.439  1.00  0.00     0.217 HD
ENDBRANCH   4  13
TORSDOF 1
ENDMDL
MODEL 7
REMARK VINA RESULT:      -4.7      2.081      3.288
REMARK  1 active torsions:
REMARK  status: ('A' for Active; 'I' for Inactive)
REMARK    1  A    between atoms: C_4  and  O_8 
ROOT
HETATM    1  C   UNL     1      64.305   8.210   5.109  1.00  0.00     0.250 A 
HETATM    2  C   UNL     1      64.671   6.989   4.360  1.00  0.00     0.112 A 
HETATM    3  N   UNL     1      63.403   9.083   4.514  1.00  0.00    -0.318 N 
HETATM    4  C   UNL     1      64.151   6.720   3.160  1.00  0.00     0.083 A 
HETATM    5  C   UNL     1      62.836   8.821   3.228  1.00  0.00     0.050 A 
HETATM    6  C   UNL     1      63.192   7.642   2.545  1.00  0.00     0.024 A 
HETATM    7  O   UNL     1      64.817   8.381   6.215  1.00  0.00    -0.268 OA
HETATM    8  C   UNL     1      63.038  10.292   5.234  1.00  0.00     0.159 C 
HETATM    9  C   UNL     1      62.632   7.374   1.286  1.00  0.00     0.016 A 
HETATM   10  C   UNL     1      61.932   9.709   2.623  1.00  0.00     0.031 A 
HETATM   11  C   UNL     1      61.737   8.265   0.697  1.00  0.00     0.001 A 
HETATM   12  C   UNL     1      61.390   9.434   1.364  1.00  0.00     0.002 A 
ENDROOT
BRANCH   4  13
HETATM   13  O   UNL     1      64.480   5.592   2.438  1.00  0.00    -0.360 OA
HETATM   14  H   UNL     1      65.109   4.985   2.776  1.00  0.00     0.217 HD
ENDBRANCH   4  13
TORSDOF 1
ENDMDL
MODEL 8
REMARK VINA RESULT:      -4.5      2.797      4.743
REMARK  1 active torsions:
REMARK  status: ('A' for Active; 'I' for Inactive)
REMARK    1  A    between atoms: C_4  and  O_8 
ROOT
HETATM    1  C   UNL     1      63.217   7.733   3.133  1.00  0.00     0.250 A 
HETATM    2  C   UNL     1      63.374   8.831   4.111  1.00  0.00     0.112 A 
HETATM    3  N   UNL     1      64.203   6.755   3.102  1.00  0.00    -0.318 N 
HETATM    4  C   UNL     1      64.415   8.884   4.946  1.00  0.00     0.083 A 
HETATM    5  C   UNL     1      65.331   6.792   3.980  1.00  0.00     0.050 A 
HETATM    6  C   UNL     1      65.445   7.842   4.911  1.00  0.00     0.024 A 
HETATM    7  O   UNL     1      62.223   7.747   2.408  1.00  0.00    -0.268 OA
HETATM    8  C   UNL     1      64.068   5.673   2.141  1.00  0.00     0.159 C 
HETATM    9  C   UNL     1      66.544   7.879   5.783  1.00  0.00     0.016 A 
HETATM   10  C   UNL     1      66.333   5.808   3.941  1.00  0.00     0.031 A 
HETATM   11  C   UNL     1      67.532   6.897   5.731  1.00  0.00     0.001 A 
HETATM   12  C   UNL     1      67.427   5.864   4.807  1.00  0.00     0.002 A 
ENDROOT
BRANCH   4  13
HETATM   13  O   UNL     1      64.588   9.900   5.862  1.00  0.00    -0.360 OA
HETATM   14  H   UNL     1      63.846  10.370   6.188  1.00  0.00     0.217 HD
ENDBRANCH   4  13
TORSDOF 1
ENDMDL
MODEL 9
REMARK VINA RESULT:      -4.5      2.055      2.276
REMARK  1 active torsions:
REMARK  status: ('A' for Active; 'I' for Inactive)
REMARK    1  A    between atoms: C_4  and  O_8 
ROOT
HETATM    1  C   UNL     1      64.147   8.936   5.202  1.00  0.00     0.250 A 
HETATM    2  C   UNL     1      63.220  10.001   4.762  1.00  0.00     0.112 A 
HETATM    3  N   UNL     1      63.781   7.621   4.948  1.00  0.00    -0.318 N 
HETATM    4  C   UNL     1      62.077   9.720   4.132  1.00  0.00     0.083 A 
HETATM    5  C   UNL     1      62.560   7.293   4.280  1.00  0.00     0.050 A 
HETATM    6  C   UNL     1      61.704   8.329   3.859  1.00  0.00     0.024 A 
HETATM    7  O   UNL     1      65.187   9.276   5.764  1.00  0.00    -0.268 OA
HETATM    8  C   UNL     1      64.677   6.561   5.381  1.00  0.00     0.159 C 
HETATM    9  C   UNL     1      60.508   8.015   3.194  1.00  0.00     0.016 A 
HETATM   10  C   UNL     1      62.185   5.962   4.032  1.00  0.00     0.031 A 
HETATM   11  C   UNL     1      60.149   6.689   2.957  1.00  0.00     0.001 A 
HETATM   12  C   UNL     1      60.986   5.664   3.379  1.00  0.00     0.002 A 
ENDROOT
BRANCH   4  13
HETATM   13  O   UNL     1      61.192  10.694   3.717  1.00  0.00    -0.360 OA
HETATM   14  H   UNL     1      61.458  11.330   3.083  1.00  0.00     0.217 HD
ENDBRANCH   4  13
TORSDOF 1
ENDMDL
