MODEL 1
REMARK VINA RESULT:      -4.2      0.000      0.000
REMARK  1 active torsions:
REMARK  status: ('A' for Active; 'I' for Inactive)
REMARK    1  A    between atoms: C_4  and  O_10 
ROOT
HETATM    1  C   UNL     1      61.164   7.103   2.710  1.00  0.00     0.138 C 
HETATM    2  C   UNL     1      62.532   7.289   2.040  1.00  0.00     0.017 C 
HETATM    3  C   UNL     1      60.634   8.338   3.411  1.00  0.00     0.117 C 
HETATM    4  C   UNL     1      61.670   9.455   3.224  1.00  0.00     0.064 C 
HETATM    5  O   UNL     1      60.526   6.051   2.682  1.00  0.00    -0.297 OA
HETATM    6  C   UNL     1      62.368   8.437   1.022  1.00  0.00     0.020 C 
HETATM    7  C   UNL     1      63.508   7.727   3.151  1.00  0.00     0.020 C 
HETATM    8  C   UNL     1      61.881   9.715   1.722  1.00  0.00     0.039 C 
HETATM    9  C   UNL     1      63.011   9.009   3.833  1.00  0.00     0.039 C 
HETATM   10  C   UNL     1      63.012   6.014   1.356  1.00  0.00     0.023 C 
ENDROOT
BRANCH   4  11
HETATM   11  O   UNL     1      61.240  10.644   3.868  1.00  0.00    -0.389 OA
HETATM   12  H   UNL     1      61.943  11.311   3.820  1.00  0.00     0.210 HD
ENDBRANCH   4  11
TORSDOF 1
ENDMDL
MODEL 2
REMARK VINA RESULT:      -4.2      1.256      2.224
REMARK  1 active torsions:
REMARK  status: ('A' for Active; 'I' for Inactive)
REMARK    1  A    between atoms: C_4  and  O_10 
ROOT
HETATM    1  C   UNL     1      63.446   7.738   3.123  1.00  0.00     0.138 C 
HETATM    2  C   UNL     1      62.487   7.284   2.013  1.00  0.00     0.017 C 
HETATM    3  C   UNL     1      63.014   8.996   3.851  1.00  0.00     0.117 C 
HETATM    4  C   UNL     1      61.684   9.452   3.235  1.00  0.00     0.064 C 
HETATM    5  O   UNL     1      64.477   7.139   3.422  1.00  0.00    -0.297 OA
HETATM    6  C   UNL     1      61.118   7.054   2.686  1.00  0.00     0.020 C 
HETATM    7  C   UNL     1      62.378   8.459   1.021  1.00  0.00     0.020 C 
HETATM    8  C   UNL     1      60.637   8.334   3.386  1.00  0.00     0.039 C 
HETATM    9  C   UNL     1      61.888   9.727   1.735  1.00  0.00     0.039 C 
HETATM   10  C   UNL     1      62.976   6.019   1.318  1.00  0.00     0.023 C 
ENDROOT
BRANCH   4  11
HETATM   11  O   UNL     1      61.226  10.637   3.867  1.00  0.00    -0.389 OA
HETATM   12  H   UNL     1      60.930  11.270   3.192  1.00  0.00     0.210 HD
ENDBRANCH   4  11
TORSDOF 1
ENDMDL
MODEL 3
REMARK VINA RESULT:      -4.2      1.981      3.342
REMARK  1 active torsions:
REMARK  status: ('A' for Active; 'I' for Inactive)
REMARK    1  A    between atoms: C_4  and  O_10 
ROOT
HETATM    1  C   UNL     1      62.105   9.809   3.934  1.00  0.00     0.138 C 
HETATM    2  C   UNL     1      61.852   8.561   3.076  1.00  0.00     0.017 C 
HETATM    3  C   UNL     1      62.866   9.546   5.218  1.00  0.00     0.117 C 
HETATM    4  C   UNL     1      63.175   8.043   5.272  1.00  0.00     0.064 C 
HETATM    5  O   UNL     1      61.740  10.940   3.617  1.00  0.00    -0.297 OA
HETATM    6  C   UNL     1      63.238   7.967   2.750  1.00  0.00     0.020 C 
HETATM    7  C   UNL     1      61.069   7.572   3.963  1.00  0.00     0.020 C 
HETATM    8  C   UNL     1      64.006   7.645   4.040  1.00  0.00     0.039 C 
HETATM    9  C   UNL     1      61.855   7.254   5.243  1.00  0.00     0.039 C 
HETATM   10  C   UNL     1      61.081   8.888   1.803  1.00  0.00     0.023 C 
ENDROOT
BRANCH   4  11
HETATM   11  O   UNL     1      63.881   7.725   6.461  1.00  0.00    -0.389 OA
HETATM   12  H   UNL     1      64.560   7.060   6.266  1.00  0.00     0.210 HD
ENDBRANCH   4  11
TORSDOF 1
ENDMDL
MODEL 4
REMARK VINA RESULT:      -4.1      1.722      3.249
REMARK  1 active torsions:
REMARK  status: ('A' for Active; 'I' for Inactive)
REMARK    1  A    between atoms: C_4  and  O_10 
ROOT
HETATM    1  C   UNL     1      62.810   9.401   4.878  1.00  0.00     0.138 C 
HETATM    2  C   UNL     1      62.951   7.876   4.767  1.00  0.00     0.017 C 
HETATM    3  C   UNL     1      61.999  10.039   3.768  1.00  0.00     0.117 C 
HETATM    4  C   UNL     1      61.536   8.916   2.829  1.00  0.00     0.064 C 
HETATM    5  O   UNL     1      63.295  10.067   5.791  1.00  0.00    -0.297 OA
HETATM    6  C   UNL     1      61.518   7.303   4.770  1.00  0.00     0.020 C 
HETATM    7  C   UNL     1      63.610   7.595   3.401  1.00  0.00     0.020 C 
HETATM    8  C   UNL     1      60.694   7.899   3.620  1.00  0.00     0.039 C 
HETATM    9  C   UNL     1      62.769   8.190   2.263  1.00  0.00     0.039 C 
HETATM   10  C   UNL     1      63.778   7.294   5.908  1.00  0.00     0.023 C 
ENDROOT
BRANCH   4  11
HETATM   11  O   UNL     1      60.776   9.449   1.756  1.00  0.00    -0.389 OA
HETATM   12  H   UNL     1      60.996   8.975   0.937  1.00  0.00     0.210 HD
ENDBRANCH   4  11
TORSDOF 1
ENDMDL
MODEL 5
REMARK VINA RESULT:      -3.9      1.423      3.489
REMARK  1 active torsions:
REMARK  status: ('A' for Active; 'I' for Inactive)
REMARK    1  A    between atoms: C_4  and  O_10 
ROOT
HETATM    1  C   UNL     1      63.218   8.553   3.526  1.00  0.00     0.138 C 
HETATM    2  C   UNL     1      62.039   9.499   3.260  1.00  0.00     0.017 C 
HETATM    3  C   UNL     1      63.236   7.310   2.657  1.00  0.00     0.117 C 
HETATM    4  C   UNL     1      62.017   7.381   1.726  1.00  0.00     0.064 C 
HETATM    5  O   UNL     1      64.095   8.771   4.361  1.00  0.00    -0.297 OA
HETATM    6  C   UNL     1      62.129   9.902   1.773  1.00  0.00     0.020 C 
HETATM    7  C   UNL     1      60.756   8.674   3.489  1.00  0.00     0.020 C 
HETATM    8  C   UNL     1      62.096   8.658   0.872  1.00  0.00     0.039 C 
HETATM    9  C   UNL     1      60.735   7.441   2.575  1.00  0.00     0.039 C 
HETATM   10  C   UNL     1      62.075  10.725   4.164  1.00  0.00     0.023 C 
ENDROOT
BRANCH   4  11
HETATM   11  O   UNL     1      61.967   6.237   0.888  1.00  0.00    -0.389 OA
HETATM   12  H   UNL     1      62.506   5.528   1.276  1.00  0.00     0.210 HD
ENDBRANCH   4  11
TORSDOF 1
ENDMDL
MODEL 6
REMARK VINA RESULT:      -3.9      5.348      6.333
REMARK  1 active torsions:
REMARK  status: ('A' for Active; 'I' for Inactive)
REMARK    1  A    between atoms: C_4  and  O_10 
ROOT
HETATM    1  C   UNL     1      66.235   5.332   7.592  1.00  0.00     0.138 C 
HETATM    2  C   UNL     1      66.246   4.898   6.120  1.00  0.00     0.017 C 
HETATM    3  C   UNL     1      66.245   6.833   7.806  1.00  0.00     0.117 C 
HETATM    4  C   UNL     1      66.255   7.496   6.422  1.00  0.00     0.064 C 
HETATM    5  O   UNL     1      66.207   4.544   8.536  1.00  0.00    -0.297 OA
HETATM    6  C   UNL     1      64.996   5.527   5.470  1.00  0.00     0.020 C 
HETATM    7  C   UNL     1      67.513   5.515   5.491  1.00  0.00     0.020 C 
HETATM    8  C   UNL     1      65.012   7.054   5.630  1.00  0.00     0.039 C 
HETATM    9  C   UNL     1      67.508   7.042   5.653  1.00  0.00     0.039 C 
HETATM   10  C   UNL     1      66.239   3.382   5.970  1.00  0.00     0.023 C 
ENDROOT
BRANCH   4  11
HETATM   11  O   UNL     1      66.276   8.909   6.550  1.00  0.00    -0.389 OA
HETATM   12  H   UNL     1      66.597   9.304   5.723  1.00  0.00     0.210 HD
ENDBRANCH   4  11
TORSDOF 1
ENDMDL
MODEL 7
REMARK VINA RESULT:      -3.9      1.936      2.661
REMARK  1 active torsions:
REMARK  status: ('A' for Active; 'I' for Inactive)
REMARK    1  A    between atoms: C_4  and  O_10 
ROOT
HETATM    1  C   UNL     1      61.207   7.670   3.627  1.00  0.00     0.138 C 
HETATM    2  C   UNL     1      62.368   8.403   2.941  1.00  0.00     0.017 C 
HETATM    3  C   UNL     1      61.471   7.285   5.070  1.00  0.00     0.117 C 
HETATM    4  C   UNL     1      62.881   7.775   5.427  1.00  0.00     0.064 C 
HETATM    5  O   UNL     1      60.138   7.416   3.075  1.00  0.00    -0.297 OA
HETATM    6  C   UNL     1      62.640   9.670   3.778  1.00  0.00     0.020 C 
HETATM    7  C   UNL     1      63.589   7.465   3.025  1.00  0.00     0.020 C 
HETATM    8  C   UNL     1      62.961   9.299   5.234  1.00  0.00     0.039 C 
HETATM    9  C   UNL     1      63.901   7.111   4.486  1.00  0.00     0.039 C 
HETATM   10  C   UNL     1      62.045   8.759   1.495  1.00  0.00     0.023 C 
ENDROOT
BRANCH   4  11
HETATM   11  O   UNL     1      63.198   7.436   6.769  1.00  0.00    -0.389 OA
HETATM   12  H   UNL     1      62.607   6.729   7.072  1.00  0.00     0.210 HD
ENDBRANCH   4  11
TORSDOF 1
ENDMDL
MODEL 8
REMARK VINA RESULT:      -3.8      4.954      6.591
REMARK  1 active torsions:
REMARK  status: ('A' for Active; 'I' for Inactive)
REMARK    1  A    between atoms: C_4  and  O_10 
ROOT
HETATM    1  C   UNL     1      66.442   7.993   6.440  1.00  0.00     0.138 C 
HETATM    2  C   UNL     1      66.596   6.671   7.204  1.00  0.00     0.017 C 
HETATM    3  C   UNL     1      66.089   7.835   4.974  1.00  0.00     0.117 C 
HETATM    4  C   UNL     1      65.979   6.331   4.685  1.00  0.00     0.064 C 
HETATM    5  O   UNL     1      66.577   9.101   6.957  1.00  0.00    -0.297 OA
HETATM    6  C   UNL     1      65.251   5.928   7.067  1.00  0.00     0.020 C 
HETATM    7  C   UNL     1      67.696   5.870   6.477  1.00  0.00     0.020 C 
HETATM    8  C   UNL     1      64.899   5.711   5.588  1.00  0.00     0.039 C 
HETATM    9  C   UNL     1      67.324   5.656   5.003  1.00  0.00     0.039 C 
HETATM   10  C   UNL     1      66.954   6.894   8.668  1.00  0.00     0.023 C 
ENDROOT
BRANCH   4  11
HETATM   11  O   UNL     1      65.659   6.111   3.320  1.00  0.00    -0.389 OA
HETATM   12  H   UNL     1      64.991   6.755   3.036  1.00  0.00     0.210 HD
ENDBRANCH   4  11
TORSDOF 1
ENDMDL
MODEL 9
REMARK VINA RESULT:      -3.8      1.928      3.024
REMARK  1 active torsions:
REMARK  status: ('A' for Active; 'I' for Inactive)
REMARK    1  A    between atoms: C_4  and  O_10 
ROOT
HETATM    1  C   UNL     1      63.545   7.517   3.388  1.00  0.00     0.138 C 
HETATM    2  C   UNL     1      62.944   7.859   4.758  1.00  0.00     0.017 C 
HETATM    3  C   UNL     1      62.773   8.072   2.207  1.00  0.00     0.117 C 
HETATM    4  C   UNL     1      61.574   8.852   2.764  1.00  0.00     0.064 C 
HETATM    5  O   UNL     1      64.573   6.859   3.238  1.00  0.00    -0.297 OA
HETATM    6  C   UNL     1      62.897   9.399   4.843  1.00  0.00     0.020 C 
HETATM    7  C   UNL     1      61.505   7.304   4.756  1.00  0.00     0.020 C 
HETATM    8  C   UNL     1      62.075   9.980   3.682  1.00  0.00     0.039 C 
HETATM    9  C   UNL     1      60.696   7.901   3.596  1.00  0.00     0.039 C 
HETATM   10  C   UNL     1      63.760   7.271   5.903  1.00  0.00     0.023 C 
ENDROOT
BRANCH   4  11
HETATM   11  O   UNL     1      60.799   9.393   1.705  1.00  0.00    -0.389 OA
HETATM   12  H   UNL     1      61.060   8.976   0.868  1.00  0.00     0.210 HD
ENDBRANCH   4  11
TORSDOF 1
ENDMDL
