MODEL 1
REMARK VINA RESULT:      -5.3      0.000      0.000
REMARK  2 active torsions:
REMARK  status: ('A' for Active; 'I' for Inactive)
REMARK    1  A    between atoms: C_1  and  C_2 
REMARK    2  A    between atoms: C_3  and  O_9 
ROOT
HETATM    1  C   UNL     1      63.329   9.335   4.557  1.00  0.00     0.043 A 
HETATM    2  C   UNL     1      62.901  10.621   4.919  1.00  0.00     0.079 A 
HETATM    3  C   UNL     1      62.925   8.810   3.319  1.00  0.00     0.024 A 
HETATM    4  C   UNL     1      62.100  11.371   4.063  1.00  0.00     0.038 A 
HETATM    5  C   UNL     1      62.109   9.558   2.455  1.00  0.00    -0.061 A 
HETATM    6  C   UNL     1      61.705  10.842   2.834  1.00  0.00     0.009 A 
HETATM    7  C   UNL     1      61.658   8.993   1.140  1.00  0.00     0.048 C 
ENDROOT
BRANCH   1   8
HETATM    8  C   UNL     1      64.197   8.550   5.485  1.00  0.00     0.158 C 
HETATM    9  O   UNL     1      65.288   9.013   5.820  1.00  0.00    -0.293 OA
HETATM   10  C   UNL     1      63.722   7.215   5.995  1.00  0.00     0.097 C 
ENDBRANCH   1   8
BRANCH   2  11
HETATM   11  O   UNL     1      63.230  11.215   6.108  1.00  0.00    -0.360 OA
HETATM   12  H   UNL     1      63.333  10.694   6.881  1.00  0.00     0.217 HD
ENDBRANCH   2  11
TORSDOF 2
ENDMDL
MODEL 2
REMARK VINA RESULT:      -4.9      1.322      3.413
REMARK  2 active torsions:
REMARK  status: ('A' for Active; 'I' for Inactive)
REMARK    1  A    between atoms: C_1  and  C_2 
REMARK    2  A    between atoms: C_3  and  O_9 
ROOT
HETATM    1  C   UNL     1      62.808   9.883   3.895  1.00  0.00     0.043 A 
HETATM    2  C   UNL     1      63.691   9.795   4.981  1.00  0.00     0.079 A 
HETATM    3  C   UNL     1      62.612   8.751   3.088  1.00  0.00     0.024 A 
HETATM    4  C   UNL     1      64.354   8.604   5.264  1.00  0.00     0.038 A 
HETATM    5  C   UNL     1      63.284   7.550   3.362  1.00  0.00    -0.061 A 
HETATM    6  C   UNL     1      64.151   7.484   4.457  1.00  0.00     0.009 A 
HETATM    7  C   UNL     1      63.093   6.343   2.491  1.00  0.00     0.048 C 
ENDROOT
BRANCH   1   8
HETATM    8  C   UNL     1      62.099  11.167   3.614  1.00  0.00     0.158 C 
HETATM    9  O   UNL     1      61.828  11.919   4.551  1.00  0.00    -0.293 OA
HETATM   10  C   UNL     1      61.733  11.519   2.197  1.00  0.00     0.097 C 
ENDBRANCH   1   8
BRANCH   2  11
HETATM   11  O   UNL     1      63.960  10.845   5.819  1.00  0.00    -0.360 OA
HETATM   12  H   UNL     1      64.802  10.918   6.224  1.00  0.00     0.217 HD
ENDBRANCH   2  11
TORSDOF 2
ENDMDL
MODEL 3
REMARK VINA RESULT:      -4.8      2.064      3.266
REMARK  2 active torsions:
REMARK  status: ('A' for Active; 'I' for Inactive)
REMARK    1  A    between atoms: C_1  and  C_2 
REMARK    2  A    between atoms: C_3  and  O_9 
ROOT
HETATM    1  C   UNL     1      62.405  10.076   3.503  1.00  0.00     0.043 A 
HETATM    2  C   UNL     1      61.894  10.404   2.239  1.00  0.00     0.079 A 
HETATM    3  C   UNL     1      62.881   8.774   3.724  1.00  0.00     0.024 A 
HETATM    4  C   UNL     1      61.869   9.462   1.215  1.00  0.00     0.038 A 
HETATM    5  C   UNL     1      62.851   7.816   2.698  1.00  0.00    -0.061 A 
HETATM    6  C   UNL     1      62.346   8.171   1.443  1.00  0.00     0.009 A 
HETATM    7  C   UNL     1      63.340   6.417   2.935  1.00  0.00     0.048 C 
ENDROOT
BRANCH   1   8
HETATM    8  C   UNL     1      62.432  11.104   4.586  1.00  0.00     0.158 C 
HETATM    9  O   UNL     1      61.814  12.158   4.426  1.00  0.00    -0.293 OA
HETATM   10  C   UNL     1      63.207  10.834   5.848  1.00  0.00     0.097 C 
ENDBRANCH   1   8
BRANCH   2  11
HETATM   11  O   UNL     1      61.394  11.641   1.928  1.00  0.00    -0.360 OA
HETATM   12  H   UNL     1      60.954  11.778   1.112  1.00  0.00     0.217 HD
ENDBRANCH   2  11
TORSDOF 2
ENDMDL
MODEL 4
REMARK VINA RESULT:      -4.4      2.274      3.824
REMARK  2 active torsions:
REMARK  status: ('A' for Active; 'I' for Inactive)
REMARK    1  A    between atoms: C_1  and  C_2 
REMARK    2  A    between atoms: C_3  and  O_9 
ROOT
HETATM    1  C   UNL     1      62.383   9.226   2.840  1.00  0.00     0.043 A 
HETATM    2  C   UNL     1      62.018  10.467   3.383  1.00  0.00     0.079 A 
HETATM    3  C   UNL     1      63.207   8.374   3.594  1.00  0.00     0.024 A 
HETATM    4  C   UNL     1      62.451  10.845   4.650  1.00  0.00     0.038 A 
HETATM    5  C   UNL     1      63.655   8.753   4.869  1.00  0.00    -0.061 A 
HETATM    6  C   UNL     1      63.268   9.991   5.392  1.00  0.00     0.009 A 
HETATM    7  C   UNL     1      64.551   7.854   5.670  1.00  0.00     0.048 C 
ENDROOT
BRANCH   1   8
HETATM    8  C   UNL     1      61.900   8.835   1.483  1.00  0.00     0.158 C 
HETATM    9  O   UNL     1      62.332   9.433   0.498  1.00  0.00    -0.293 OA
HETATM   10  C   UNL     1      60.900   7.718   1.345  1.00  0.00     0.097 C 
ENDBRANCH   1   8
BRANCH   2  11
HETATM   11  O   UNL     1      61.231  11.373   2.722  1.00  0.00    -0.360 OA
HETATM   12  H   UNL     1      61.583  11.868   2.008  1.00  0.00     0.217 HD
ENDBRANCH   2  11
TORSDOF 2
ENDMDL
MODEL 5
REMARK VINA RESULT:      -4.3      2.093      4.145
REMARK  2 active torsions:
REMARK  status: ('A' for Active; 'I' for Inactive)
REMARK    1  A    between atoms: C_1  and  C_2 
REMARK    2  A    between atoms: C_3  and  O_9 
ROOT
HETATM    1  C   UNL     1      62.288   9.365   3.865  1.00  0.00     0.043 A 
HETATM    2  C   UNL     1      61.284   8.387   3.796  1.00  0.00     0.079 A 
HETATM    3  C   UNL     1      63.568   8.991   4.306  1.00  0.00     0.024 A 
HETATM    4  C   UNL     1      61.552   7.067   4.146  1.00  0.00     0.038 A 
HETATM    5  C   UNL     1      63.842   7.663   4.669  1.00  0.00    -0.061 A 
HETATM    6  C   UNL     1      62.827   6.705   4.581  1.00  0.00     0.009 A 
HETATM    7  C   UNL     1      65.203   7.263   5.159  1.00  0.00     0.048 C 
ENDROOT
BRANCH   1   8
HETATM    8  C   UNL     1      61.984  10.774   3.476  1.00  0.00     0.158 C 
HETATM    9  O   UNL     1      61.831  11.619   4.358  1.00  0.00    -0.293 OA
HETATM   10  C   UNL     1      61.873  11.134   2.018  1.00  0.00     0.097 C 
ENDBRANCH   1   8
BRANCH   2  11
HETATM   11  O   UNL     1      60.003   8.653   3.392  1.00  0.00    -0.360 OA
HETATM   12  H   UNL     1      59.607   9.477   3.600  1.00  0.00     0.217 HD
ENDBRANCH   2  11
TORSDOF 2
ENDMDL
MODEL 6
REMARK VINA RESULT:      -4.2      1.697      3.121
REMARK  2 active torsions:
REMARK  status: ('A' for Active; 'I' for Inactive)
REMARK    1  A    between atoms: C_1  and  C_2 
REMARK    2  A    between atoms: C_3  and  O_9 
ROOT
HETATM    1  C   UNL     1      63.039   8.823   4.671  1.00  0.00     0.043 A 
HETATM    2  C   UNL     1      62.780   7.785   5.579  1.00  0.00     0.079 A 
HETATM    3  C   UNL     1      63.053   8.534   3.297  1.00  0.00     0.024 A 
HETATM    4  C   UNL     1      62.528   6.493   5.127  1.00  0.00     0.038 A 
HETATM    5  C   UNL     1      62.808   7.231   2.836  1.00  0.00    -0.061 A 
HETATM    6  C   UNL     1      62.542   6.216   3.760  1.00  0.00     0.009 A 
HETATM    7  C   UNL     1      62.841   6.913   1.370  1.00  0.00     0.048 C 
ENDROOT
BRANCH   1   8
HETATM    8  C   UNL     1      63.297  10.205   5.175  1.00  0.00     0.158 C 
HETATM    9  O   UNL     1      64.275  10.407   5.895  1.00  0.00    -0.293 OA
HETATM   10  C   UNL     1      62.363  11.322   4.791  1.00  0.00     0.097 C 
ENDBRANCH   1   8
BRANCH   2  11
HETATM   11  O   UNL     1      62.758   7.962   6.937  1.00  0.00    -0.360 OA
HETATM   12  H   UNL     1      63.065   7.281   7.503  1.00  0.00     0.217 HD
ENDBRANCH   2  11
TORSDOF 2
ENDMDL
MODEL 7
REMARK VINA RESULT:      -4.2      1.687      2.546
REMARK  2 active torsions:
REMARK  status: ('A' for Active; 'I' for Inactive)
REMARK    1  A    between atoms: C_1  and  C_2 
REMARK    2  A    between atoms: C_3  and  O_9 
ROOT
HETATM    1  C   UNL     1      62.753   8.590   3.419  1.00  0.00     0.043 A 
HETATM    2  C   UNL     1      62.913   8.978   4.758  1.00  0.00     0.079 A 
HETATM    3  C   UNL     1      62.302   9.539   2.488  1.00  0.00     0.024 A 
HETATM    4  C   UNL     1      62.642  10.283   5.157  1.00  0.00     0.038 A 
HETATM    5  C   UNL     1      62.019  10.855   2.886  1.00  0.00    -0.061 A 
HETATM    6  C   UNL     1      62.196  11.220   4.224  1.00  0.00     0.009 A 
HETATM    7  C   UNL     1      61.518  11.868   1.899  1.00  0.00     0.048 C 
ENDROOT
BRANCH   1   8
HETATM    8  C   UNL     1      63.059   7.187   3.008  1.00  0.00     0.158 C 
HETATM    9  O   UNL     1      64.194   6.744   3.190  1.00  0.00    -0.293 OA
HETATM   10  C   UNL     1      61.979   6.343   2.387  1.00  0.00     0.097 C 
ENDBRANCH   1   8
BRANCH   2  11
HETATM   11  O   UNL     1      63.334   8.124   5.742  1.00  0.00    -0.360 OA
HETATM   12  H   UNL     1      62.793   7.404   6.002  1.00  0.00     0.217 HD
ENDBRANCH   2  11
TORSDOF 2
ENDMDL
MODEL 8
REMARK VINA RESULT:      -4.1      3.652      5.325
REMARK  2 active torsions:
REMARK  status: ('A' for Active; 'I' for Inactive)
REMARK    1  A    between atoms: C_1  and  C_2 
REMARK    2  A    between atoms: C_3  and  O_9 
ROOT
HETATM    1  C   UNL     1      64.927   6.861   6.054  1.00  0.00     0.043 A 
HETATM    2  C   UNL     1      65.698   8.015   5.847  1.00  0.00     0.079 A 
HETATM    3  C   UNL     1      65.577   5.618   6.136  1.00  0.00     0.024 A 
HETATM    4  C   UNL     1      67.083   7.934   5.737  1.00  0.00     0.038 A 
HETATM    5  C   UNL     1      66.973   5.530   6.017  1.00  0.00    -0.061 A 
HETATM    6  C   UNL     1      67.719   6.696   5.822  1.00  0.00     0.009 A 
HETATM    7  C   UNL     1      67.670   4.202   6.085  1.00  0.00     0.048 C 
ENDROOT
BRANCH   1   8
HETATM    8  C   UNL     1      63.443   6.969   6.180  1.00  0.00     0.158 C 
HETATM    9  O   UNL     1      62.968   7.757   6.998  1.00  0.00    -0.293 OA
HETATM   10  C   UNL     1      62.560   6.119   5.305  1.00  0.00     0.097 C 
ENDBRANCH   1   8
BRANCH   2  11
HETATM   11  O   UNL     1      65.159   9.269   5.739  1.00  0.00    -0.360 OA
HETATM   12  H   UNL     1      65.437   9.950   6.320  1.00  0.00     0.217 HD
ENDBRANCH   2  11
TORSDOF 2
ENDMDL
MODEL 9
REMARK VINA RESULT:      -4.0      2.490      3.354
REMARK  2 active torsions:
REMARK  status: ('A' for Active; 'I' for Inactive)
REMARK    1  A    between atoms: C_1  and  C_2 
REMARK    2  A    between atoms: C_3  and  O_9 
ROOT
HETATM    1  C   UNL     1      65.839   7.269   4.632  1.00  0.00     0.043 A 
HETATM    2  C   UNL     1      65.194   8.375   5.205  1.00  0.00     0.079 A 
HETATM    3  C   UNL     1      65.198   6.574   3.594  1.00  0.00     0.024 A 
HETATM    4  C   UNL     1      63.946   8.787   4.747  1.00  0.00     0.038 A 
HETATM    5  C   UNL     1      63.935   6.978   3.133  1.00  0.00    -0.061 A 
HETATM    6  C   UNL     1      63.318   8.091   3.714  1.00  0.00     0.009 A 
HETATM    7  C   UNL     1      63.237   6.227   2.038  1.00  0.00     0.048 C 
ENDROOT
BRANCH   1   8
HETATM    8  C   UNL     1      67.183   6.849   5.130  1.00  0.00     0.158 C 
HETATM    9  O   UNL     1      68.075   7.693   5.230  1.00  0.00    -0.293 OA
HETATM   10  C   UNL     1      67.420   5.410   5.504  1.00  0.00     0.097 C 
ENDBRANCH   1   8
BRANCH   2  11
HETATM   11  O   UNL     1      65.730   9.109   6.230  1.00  0.00    -0.360 OA
HETATM   12  H   UNL     1      66.137   8.676   6.955  1.00  0.00     0.217 HD
ENDBRANCH   2  11
TORSDOF 2
ENDMDL
