MODEL 1
REMARK VINA RESULT:      -5.3      0.000      0.000
REMARK  2 active torsions:
REMARK  status: ('A' for Active; 'I' for Inactive)
REMARK    1  A    between atoms: C_1  and  C_3 
REMARK    2  A    between atoms: C_3  and  O_10 
ROOT
HETATM    1  C   UNL     1      63.403   9.259   4.652  1.00  0.00     0.067 A 
HETATM    2  C   UNL     1      62.915   8.934   3.373  1.00  0.00     0.058 A 
HETATM    3  N   UNL     1      63.099   7.800   2.607  1.00  0.00    -0.364 N 
HETATM    4  C   UNL     1      62.421   7.911   1.424  1.00  0.00     0.089 A 
HETATM    5  C   UNL     1      62.101   9.794   2.634  1.00  0.00    -0.007 A 
HETATM    6  C   UNL     1      61.799   9.139   1.408  1.00  0.00     0.030 A 
HETATM    7  C   UNL     1      63.030  10.507   5.182  1.00  0.00     0.020 A 
HETATM    8  C   UNL     1      62.220  11.384   4.460  1.00  0.00     0.002 A 
HETATM    9  C   UNL     1      61.754  11.041   3.187  1.00  0.00     0.014 A 
HETATM   10  H   UNL     1      63.641   7.023   2.874  1.00  0.00     0.165 HD
ENDROOT
BRANCH   1  11
HETATM   11  C   UNL     1      64.269   8.292   5.377  1.00  0.00     0.295 C 
HETATM   12  O   UNL     1      64.034   7.095   5.437  1.00  0.00    -0.259 OA
BRANCH  11  13
HETATM   13  O   UNL     1      65.328   8.925   5.940  1.00  0.00    -0.322 OA
HETATM   14  C   UNL     1      66.431   8.068   6.239  1.00  0.00     0.213 C 
ENDBRANCH  11  13
ENDBRANCH   1  11
TORSDOF 2
ENDMDL
MODEL 2
REMARK VINA RESULT:      -5.3      1.671      3.084
REMARK  2 active torsions:
REMARK  status: ('A' for Active; 'I' for Inactive)
REMARK    1  A    between atoms: C_1  and  C_3 
REMARK    2  A    between atoms: C_3  and  O_10 
ROOT
HETATM    1  C   UNL     1      64.535   8.053   4.952  1.00  0.00     0.067 A 
HETATM    2  C   UNL     1      63.688   9.172   4.861  1.00  0.00     0.058 A 
HETATM    3  N   UNL     1      63.567  10.272   5.687  1.00  0.00    -0.364 N 
HETATM    4  C   UNL     1      62.618  11.130   5.201  1.00  0.00     0.089 A 
HETATM    5  C   UNL     1      62.768   9.342   3.824  1.00  0.00    -0.007 A 
HETATM    6  C   UNL     1      62.099  10.576   4.052  1.00  0.00     0.030 A 
HETATM    7  C   UNL     1      64.429   7.085   3.937  1.00  0.00     0.020 A 
HETATM    8  C   UNL     1      63.515   7.231   2.894  1.00  0.00     0.002 A 
HETATM    9  C   UNL     1      62.678   8.351   2.829  1.00  0.00     0.014 A 
HETATM   10  H   UNL     1      64.089  10.418   6.508  1.00  0.00     0.165 HD
ENDROOT
BRANCH   1  11
HETATM   11  C   UNL     1      65.486   7.940   6.089  1.00  0.00     0.295 C 
HETATM   12  O   UNL     1      66.222   8.851   6.440  1.00  0.00    -0.259 OA
BRANCH  11  13
HETATM   13  O   UNL     1      65.412   6.712   6.658  1.00  0.00    -0.322 OA
HETATM   14  C   UNL     1      66.128   6.591   7.887  1.00  0.00     0.213 C 
ENDBRANCH  11  13
ENDBRANCH   1  11
TORSDOF 2
ENDMDL
MODEL 3
REMARK VINA RESULT:      -5.0      0.991      1.457
REMARK  2 active torsions:
REMARK  status: ('A' for Active; 'I' for Inactive)
REMARK    1  A    between atoms: C_1  and  C_3 
REMARK    2  A    between atoms: C_3  and  O_10 
ROOT
HETATM    1  C   UNL     1      63.212   8.961   4.673  1.00  0.00     0.067 A 
HETATM    2  C   UNL     1      62.797   8.802   3.338  1.00  0.00     0.058 A 
HETATM    3  N   UNL     1      62.919   7.722   2.487  1.00  0.00    -0.364 N 
HETATM    4  C   UNL     1      62.355   8.008   1.273  1.00  0.00     0.089 A 
HETATM    5  C   UNL     1      62.143   9.808   2.625  1.00  0.00    -0.007 A 
HETATM    6  C   UNL     1      61.873   9.296   1.326  1.00  0.00     0.030 A 
HETATM    7  C   UNL     1      62.934  10.195   5.288  1.00  0.00     0.020 A 
HETATM    8  C   UNL     1      62.285  11.216   4.594  1.00  0.00     0.002 A 
HETATM    9  C   UNL     1      61.889  11.036   3.264  1.00  0.00     0.014 A 
HETATM   10  H   UNL     1      63.351   6.868   2.719  1.00  0.00     0.165 HD
ENDROOT
BRANCH   1  11
HETATM   11  C   UNL     1      63.907   7.844   5.366  1.00  0.00     0.295 C 
HETATM   12  O   UNL     1      64.937   7.334   4.950  1.00  0.00    -0.259 OA
BRANCH  11  13
HETATM   13  O   UNL     1      63.244   7.493   6.496  1.00  0.00    -0.322 OA
HETATM   14  C   UNL     1      62.444   6.317   6.363  1.00  0.00     0.213 C 
ENDBRANCH  11  13
ENDBRANCH   1  11
TORSDOF 2
ENDMDL
MODEL 4
REMARK VINA RESULT:      -4.6      2.326      4.836
REMARK  2 active torsions:
REMARK  status: ('A' for Active; 'I' for Inactive)
REMARK    1  A    between atoms: C_1  and  C_3 
REMARK    2  A    between atoms: C_3  and  O_10 
ROOT
HETATM    1  C   UNL     1      63.931   8.209   4.298  1.00  0.00     0.067 A 
HETATM    2  C   UNL     1      65.084   7.915   5.048  1.00  0.00     0.058 A 
HETATM    3  N   UNL     1      65.627   8.558   6.143  1.00  0.00    -0.364 N 
HETATM    4  C   UNL     1      66.758   7.910   6.562  1.00  0.00     0.089 A 
HETATM    5  C   UNL     1      65.915   6.830   4.762  1.00  0.00    -0.007 A 
HETATM    6  C   UNL     1      66.966   6.841   5.721  1.00  0.00     0.030 A 
HETATM    7  C   UNL     1      63.627   7.350   3.226  1.00  0.00     0.020 A 
HETATM    8  C   UNL     1      64.445   6.263   2.920  1.00  0.00     0.002 A 
HETATM    9  C   UNL     1      65.591   5.995   3.676  1.00  0.00     0.014 A 
HETATM   10  H   UNL     1      65.255   9.367   6.561  1.00  0.00     0.165 HD
ENDROOT
BRANCH   1  11
HETATM   11  C   UNL     1      63.097   9.385   4.661  1.00  0.00     0.295 C 
HETATM   12  O   UNL     1      63.016   9.825   5.798  1.00  0.00    -0.259 OA
BRANCH  11  13
HETATM   13  O   UNL     1      62.464   9.880   3.568  1.00  0.00    -0.322 OA
HETATM   14  C   UNL     1      61.926  11.191   3.747  1.00  0.00     0.213 C 
ENDBRANCH  11  13
ENDBRANCH   1  11
TORSDOF 2
ENDMDL
MODEL 5
REMARK VINA RESULT:      -4.5      2.721      5.687
REMARK  2 active torsions:
REMARK  status: ('A' for Active; 'I' for Inactive)
REMARK    1  A    between atoms: C_1  and  C_3 
REMARK    2  A    between atoms: C_3  and  O_10 
ROOT
HETATM    1  C   UNL     1      64.921   7.181   5.470  1.00  0.00     0.067 A 
HETATM    2  C   UNL     1      65.777   6.824   6.528  1.00  0.00     0.058 A 
HETATM    3  N   UNL     1      65.584   6.884   7.894  1.00  0.00    -0.364 N 
HETATM    4  C   UNL     1      66.690   6.416   8.551  1.00  0.00     0.089 A 
HETATM    5  C   UNL     1      67.059   6.311   6.322  1.00  0.00    -0.007 A 
HETATM    6  C   UNL     1      67.623   6.061   7.604  1.00  0.00     0.030 A 
HETATM    7  C   UNL     1      65.404   6.994   4.163  1.00  0.00     0.020 A 
HETATM    8  C   UNL     1      66.683   6.487   3.934  1.00  0.00     0.002 A 
HETATM    9  C   UNL     1      67.519   6.146   5.002  1.00  0.00     0.014 A 
HETATM   10  H   UNL     1      64.768   7.216   8.333  1.00  0.00     0.165 HD
ENDROOT
BRANCH   1  11
HETATM   11  C   UNL     1      63.569   7.725   5.769  1.00  0.00     0.295 C 
HETATM   12  O   UNL     1      63.017   7.592   6.850  1.00  0.00    -0.259 OA
BRANCH  11  13
HETATM   13  O   UNL     1      63.064   8.373   4.690  1.00  0.00    -0.322 OA
HETATM   14  C   UNL     1      62.880   9.776   4.883  1.00  0.00     0.213 C 
ENDBRANCH  11  13
ENDBRANCH   1  11
TORSDOF 2
ENDMDL
MODEL 6
REMARK VINA RESULT:      -4.5      3.337      6.847
REMARK  2 active torsions:
REMARK  status: ('A' for Active; 'I' for Inactive)
REMARK    1  A    between atoms: C_1  and  C_3 
REMARK    2  A    between atoms: C_3  and  O_10 
ROOT
HETATM    1  C   UNL     1      66.584   6.691   5.857  1.00  0.00     0.067 A 
HETATM    2  C   UNL     1      67.093   6.280   7.103  1.00  0.00     0.058 A 
HETATM    3  N   UNL     1      67.122   6.936   8.317  1.00  0.00    -0.364 N 
HETATM    4  C   UNL     1      67.704   6.145   9.271  1.00  0.00     0.089 A 
HETATM    5  C   UNL     1      67.692   5.035   7.300  1.00  0.00    -0.007 A 
HETATM    6  C   UNL     1      68.075   4.964   8.669  1.00  0.00     0.030 A 
HETATM    7  C   UNL     1      66.694   5.783   4.789  1.00  0.00     0.020 A 
HETATM    8  C   UNL     1      67.293   4.536   4.962  1.00  0.00     0.002 A 
HETATM    9  C   UNL     1      67.797   4.152   6.209  1.00  0.00     0.014 A 
HETATM   10  H   UNL     1      66.775   7.844   8.475  1.00  0.00     0.165 HD
ENDROOT
BRANCH   1  11
HETATM   11  C   UNL     1      65.963   8.035   5.723  1.00  0.00     0.295 C 
HETATM   12  O   UNL     1      66.233   8.975   6.456  1.00  0.00    -0.259 OA
BRANCH  11  13
HETATM   13  O   UNL     1      65.081   8.056   4.693  1.00  0.00    -0.322 OA
HETATM   14  C   UNL     1      63.713   7.958   5.092  1.00  0.00     0.213 C 
ENDBRANCH  11  13
ENDBRANCH   1  11
TORSDOF 2
ENDMDL
MODEL 7
REMARK VINA RESULT:      -4.5      2.332      4.208
REMARK  2 active torsions:
REMARK  status: ('A' for Active; 'I' for Inactive)
REMARK    1  A    between atoms: C_1  and  C_3 
REMARK    2  A    between atoms: C_3  and  O_10 
ROOT
HETATM    1  C   UNL     1      62.315   9.431   2.749  1.00  0.00     0.067 A 
HETATM    2  C   UNL     1      63.165   8.692   3.592  1.00  0.00     0.058 A 
HETATM    3  N   UNL     1      63.747   7.453   3.412  1.00  0.00    -0.364 N 
HETATM    4  C   UNL     1      64.518   7.128   4.496  1.00  0.00     0.089 A 
HETATM    5  C   UNL     1      63.577   9.155   4.843  1.00  0.00    -0.007 A 
HETATM    6  C   UNL     1      64.426   8.160   5.402  1.00  0.00     0.030 A 
HETATM    7  C   UNL     1      61.886  10.687   3.213  1.00  0.00     0.020 A 
HETATM    8  C   UNL     1      62.281  11.168   4.461  1.00  0.00     0.002 A 
HETATM    9  C   UNL     1      63.122  10.412   5.285  1.00  0.00     0.014 A 
HETATM   10  H   UNL     1      63.624   6.884   2.619  1.00  0.00     0.165 HD
ENDROOT
BRANCH   1  11
HETATM   11  C   UNL     1      61.916   8.869   1.432  1.00  0.00     0.295 C 
HETATM   12  O   UNL     1      62.342   9.289   0.366  1.00  0.00    -0.259 OA
BRANCH  11  13
HETATM   13  O   UNL     1      61.035   7.850   1.591  1.00  0.00    -0.322 OA
HETATM   14  C   UNL     1      60.036   7.776   0.574  1.00  0.00     0.213 C 
ENDBRANCH  11  13
ENDBRANCH   1  11
TORSDOF 2
ENDMDL
MODEL 8
REMARK VINA RESULT:      -4.0      2.643      4.004
REMARK  2 active torsions:
REMARK  status: ('A' for Active; 'I' for Inactive)
REMARK    1  A    between atoms: C_1  and  C_3 
REMARK    2  A    between atoms: C_3  and  O_10 
ROOT
HETATM    1  C   UNL     1      61.684   7.736   2.935  1.00  0.00     0.067 A 
HETATM    2  C   UNL     1      61.743   9.141   2.897  1.00  0.00     0.058 A 
HETATM    3  N   UNL     1      61.512  10.073   3.889  1.00  0.00    -0.364 N 
HETATM    4  C   UNL     1      61.700  11.339   3.405  1.00  0.00     0.089 A 
HETATM    5  C   UNL     1      62.074   9.852   1.742  1.00  0.00    -0.007 A 
HETATM    6  C   UNL     1      62.041  11.235   2.075  1.00  0.00     0.030 A 
HETATM    7  C   UNL     1      61.984   7.049   1.745  1.00  0.00     0.020 A 
HETATM    8  C   UNL     1      62.314   7.739   0.579  1.00  0.00     0.002 A 
HETATM    9  C   UNL     1      62.359   9.137   0.564  1.00  0.00     0.014 A 
HETATM   10  H   UNL     1      61.250   9.858   4.813  1.00  0.00     0.165 HD
ENDROOT
BRANCH   1  11
HETATM   11  C   UNL     1      61.319   7.049   4.202  1.00  0.00     0.295 C 
HETATM   12  O   UNL     1      62.126   6.448   4.896  1.00  0.00    -0.259 OA
BRANCH  11  13
HETATM   13  O   UNL     1      59.995   7.191   4.461  1.00  0.00    -0.322 OA
HETATM   14  C   UNL     1      59.437   6.138   5.248  1.00  0.00     0.213 C 
ENDBRANCH  11  13
ENDBRANCH   1  11
TORSDOF 2
ENDMDL
MODEL 9
REMARK VINA RESULT:      -3.9      2.531      5.087
REMARK  2 active torsions:
REMARK  status: ('A' for Active; 'I' for Inactive)
REMARK    1  A    between atoms: C_1  and  C_3 
REMARK    2  A    between atoms: C_3  and  O_10 
ROOT
HETATM    1  C   UNL     1      63.396   7.542   5.384  1.00  0.00     0.067 A 
HETATM    2  C   UNL     1      64.565   7.257   6.113  1.00  0.00     0.058 A 
HETATM    3  N   UNL     1      65.627   8.071   6.455  1.00  0.00    -0.364 N 
HETATM    4  C   UNL     1      66.546   7.370   7.188  1.00  0.00     0.089 A 
HETATM    5  C   UNL     1      64.836   5.994   6.642  1.00  0.00    -0.007 A 
HETATM    6  C   UNL     1      66.088   6.078   7.313  1.00  0.00     0.030 A 
HETATM    7  C   UNL     1      62.480   6.490   5.205  1.00  0.00     0.020 A 
HETATM    8  C   UNL     1      62.732   5.219   5.721  1.00  0.00     0.002 A 
HETATM    9  C   UNL     1      63.905   4.958   6.436  1.00  0.00     0.014 A 
HETATM   10  H   UNL     1      65.712   9.019   6.206  1.00  0.00     0.165 HD
ENDROOT
BRANCH   1  11
HETATM   11  C   UNL     1      63.179   8.912   4.849  1.00  0.00     0.295 C 
HETATM   12  O   UNL     1      63.026   9.151   3.660  1.00  0.00    -0.259 OA
BRANCH  11  13
HETATM   13  O   UNL     1      63.173   9.825   5.852  1.00  0.00    -0.322 OA
HETATM   14  C   UNL     1      62.801  11.141   5.443  1.00  0.00     0.213 C 
ENDBRANCH  11  13
ENDBRANCH   1  11
TORSDOF 2
ENDMDL
