MODEL 1
REMARK VINA RESULT:      -4.1      0.000      0.000
REMARK  3 active torsions:
REMARK  status: ('A' for Active; 'I' for Inactive)
REMARK    1  A    between atoms: C_3  and  C_5 
REMARK    2  A    between atoms: N_4  and  C_7 
REMARK    3  A    between atoms: C_5  and  C_7 
ROOT
HETATM    1  N   UNL     1      62.393  10.484   4.296  1.00  0.00    -0.369 N 
ATOM      2  HN  UNL     1      62.535  10.693   5.284  1.00  0.00     0.165 HD
HETATM    3  C   UNL     1      62.677   9.258   3.789  1.00  0.00     0.010 A 
HETATM    4  C   UNL     1      61.915  11.417   3.443  1.00  0.00     0.088 A 
HETATM    5  C   UNL     1      62.501   8.953   2.442  1.00  0.00     0.025 A 
HETATM    6  C   UNL     1      61.706  11.193   2.094  1.00  0.00     0.017 A 
HETATM    7  C   UNL     1      62.006   9.936   1.588  1.00  0.00     0.003 A 
ENDROOT
BRANCH   3   8
HETATM    8  C   UNL     1      63.231   8.230   4.747  1.00  0.00     0.084 C 
BRANCH   8   9
HETATM    9  C   UNL     1      64.720   8.462   5.033  1.00  0.00     0.237 C 
BRANCH   9  10
HETATM   10  N   UNL     1      65.093   7.892   6.336  1.00  0.00    -0.079 N 
HETATM   11  C   UNL     1      66.537   7.930   6.530  1.00  0.00     0.267 C 
HETATM   12  H   UNL     1      64.776   6.923   6.380  1.00  0.00     0.276 HD
HETATM   13  H   UNL     1      64.653   8.446   7.071  1.00  0.00     0.276 HD
ENDBRANCH   9  10
ENDBRANCH   8   9
ENDBRANCH   3   8
TORSDOF 3
ENDMDL
MODEL 2
REMARK VINA RESULT:      -4.1      1.247      1.510
REMARK  3 active torsions:
REMARK  status: ('A' for Active; 'I' for Inactive)
REMARK    1  A    between atoms: C_3  and  C_5 
REMARK    2  A    between atoms: N_4  and  C_7 
REMARK    3  A    between atoms: C_5  and  C_7 
ROOT
HETATM    1  N   UNL     1      63.500   9.884   5.538  1.00  0.00    -0.369 N 
ATOM      2  HN  UNL     1      64.037   9.760   6.396  1.00  0.00     0.165 HD
HETATM    3  C   UNL     1      63.469   8.922   4.583  1.00  0.00     0.010 A 
HETATM    4  C   UNL     1      62.794  11.014   5.311  1.00  0.00     0.088 A 
HETATM    5  C   UNL     1      62.750   9.073   3.400  1.00  0.00     0.025 A 
HETATM    6  C   UNL     1      62.051  11.240   4.165  1.00  0.00     0.017 A 
HETATM    7  C   UNL     1      62.032  10.248   3.194  1.00  0.00     0.003 A 
ENDROOT
BRANCH   3   8
HETATM    8  C   UNL     1      64.279   7.673   4.839  1.00  0.00     0.084 C 
BRANCH   8   9
HETATM    9  C   UNL     1      65.486   7.953   5.744  1.00  0.00     0.237 C 
BRANCH   9  10
HETATM   10  N   UNL     1      65.343   7.255   7.030  1.00  0.00    -0.079 N 
HETATM   11  C   UNL     1      66.643   7.026   7.648  1.00  0.00     0.267 C 
HETATM   12  H   UNL     1      64.885   6.358   6.874  1.00  0.00     0.276 HD
HETATM   13  H   UNL     1      64.786   7.837   7.656  1.00  0.00     0.276 HD
ENDBRANCH   9  10
ENDBRANCH   8   9
ENDBRANCH   3   8
TORSDOF 3
ENDMDL
MODEL 3
REMARK VINA RESULT:      -4.0      2.441      4.813
REMARK  3 active torsions:
REMARK  status: ('A' for Active; 'I' for Inactive)
REMARK    1  A    between atoms: C_3  and  C_5 
REMARK    2  A    between atoms: N_4  and  C_7 
REMARK    3  A    between atoms: C_5  and  C_7 
ROOT
HETATM    1  N   UNL     1      61.717  10.936   3.021  1.00  0.00    -0.369 N 
ATOM      2  HN  UNL     1      61.169  11.530   2.400  1.00  0.00     0.165 HD
HETATM    3  C   UNL     1      62.112   9.696   2.640  1.00  0.00     0.010 A 
HETATM    4  C   UNL     1      62.078  11.355   4.254  1.00  0.00     0.088 A 
HETATM    5  C   UNL     1      62.852   8.863   3.474  1.00  0.00     0.025 A 
HETATM    6  C   UNL     1      62.816  10.592   5.141  1.00  0.00     0.017 A 
HETATM    7  C   UNL     1      63.209   9.322   4.740  1.00  0.00     0.003 A 
ENDROOT
BRANCH   3   8
HETATM    8  C   UNL     1      61.684   9.231   1.268  1.00  0.00     0.084 C 
BRANCH   8   9
HETATM    9  C   UNL     1      60.692   8.062   1.345  1.00  0.00     0.237 C 
BRANCH   9  10
HETATM   10  N   UNL     1      59.332   8.514   1.018  1.00  0.00    -0.079 N 
HETATM   11  C   UNL     1      58.371   7.430   1.169  1.00  0.00     0.267 C 
HETATM   12  H   UNL     1      59.313   8.845   0.053  1.00  0.00     0.276 HD
HETATM   13  H   UNL     1      59.076   9.266   1.659  1.00  0.00     0.276 HD
ENDBRANCH   9  10
ENDBRANCH   8   9
ENDBRANCH   3   8
TORSDOF 3
ENDMDL
MODEL 4
REMARK VINA RESULT:      -3.6      3.878      6.889
REMARK  3 active torsions:
REMARK  status: ('A' for Active; 'I' for Inactive)
REMARK    1  A    between atoms: C_3  and  C_5 
REMARK    2  A    between atoms: N_4  and  C_7 
REMARK    3  A    between atoms: C_5  and  C_7 
ROOT
HETATM    1  N   UNL     1      67.155   7.180   8.359  1.00  0.00    -0.369 N 
ATOM      2  HN  UNL     1      66.843   8.061   8.768  1.00  0.00     0.165 HD
HETATM    3  C   UNL     1      67.103   6.969   7.021  1.00  0.00     0.010 A 
HETATM    4  C   UNL     1      67.637   6.181   9.132  1.00  0.00     0.088 A 
HETATM    5  C   UNL     1      67.514   5.772   6.442  1.00  0.00     0.025 A 
HETATM    6  C   UNL     1      68.071   4.965   8.635  1.00  0.00     0.017 A 
HETATM    7  C   UNL     1      68.007   4.760   7.264  1.00  0.00     0.003 A 
ENDROOT
BRANCH   3   8
HETATM    8  C   UNL     1      66.542   8.084   6.171  1.00  0.00     0.084 C 
BRANCH   8   9
HETATM    9  C   UNL     1      65.193   7.703   5.548  1.00  0.00     0.237 C 
BRANCH   9  10
HETATM   10  N   UNL     1      64.167   7.546   6.589  1.00  0.00    -0.079 N 
HETATM   11  C   UNL     1      63.203   6.516   6.222  1.00  0.00     0.267 C 
HETATM   12  H   UNL     1      63.677   8.432   6.712  1.00  0.00     0.276 HD
HETATM   13  H   UNL     1      64.625   7.267   7.457  1.00  0.00     0.276 HD
ENDBRANCH   9  10
ENDBRANCH   8   9
ENDBRANCH   3   8
TORSDOF 3
ENDMDL
MODEL 5
REMARK VINA RESULT:      -3.6      1.711      2.025
REMARK  3 active torsions:
REMARK  status: ('A' for Active; 'I' for Inactive)
REMARK    1  A    between atoms: C_3  and  C_5 
REMARK    2  A    between atoms: N_4  and  C_7 
REMARK    3  A    between atoms: C_5  and  C_7 
ROOT
HETATM    1  N   UNL     1      62.406  10.152   4.201  1.00  0.00    -0.369 N 
ATOM      2  HN  UNL     1      62.569  10.197   5.207  1.00  0.00     0.165 HD
HETATM    3  C   UNL     1      62.614   9.006   3.507  1.00  0.00     0.010 A 
HETATM    4  C   UNL     1      61.973  11.231   3.512  1.00  0.00     0.088 A 
HETATM    5  C   UNL     1      62.406   8.923   2.133  1.00  0.00     0.025 A 
HETATM    6  C   UNL     1      61.737  11.230   2.149  1.00  0.00     0.017 A 
HETATM    7  C   UNL     1      61.960  10.052   1.449  1.00  0.00     0.003 A 
ENDROOT
BRANCH   3   8
HETATM    8  C   UNL     1      63.118   7.814   4.284  1.00  0.00     0.084 C 
BRANCH   8   9
HETATM    9  C   UNL     1      62.764   7.914   5.774  1.00  0.00     0.237 C 
BRANCH   9  10
HETATM   10  N   UNL     1      62.175   6.655   6.253  1.00  0.00    -0.079 N 
HETATM   11  C   UNL     1      62.247   5.621   5.230  1.00  0.00     0.267 C 
HETATM   12  H   UNL     1      61.197   6.816   6.497  1.00  0.00     0.276 HD
HETATM   13  H   UNL     1      62.699   6.341   7.070  1.00  0.00     0.276 HD
ENDBRANCH   9  10
ENDBRANCH   8   9
ENDBRANCH   3   8
TORSDOF 3
ENDMDL
MODEL 6
REMARK VINA RESULT:      -3.6     12.586     14.116
REMARK  3 active torsions:
REMARK  status: ('A' for Active; 'I' for Inactive)
REMARK    1  A    between atoms: C_3  and  C_5 
REMARK    2  A    between atoms: N_4  and  C_7 
REMARK    3  A    between atoms: C_5  and  C_7 
ROOT
HETATM    1  N   UNL     1      57.178   1.629  14.258  1.00  0.00    -0.369 N 
ATOM      2  HN  UNL     1      56.508   1.448  15.005  1.00  0.00     0.165 HD
HETATM    3  C   UNL     1      56.779   2.139  13.066  1.00  0.00     0.010 A 
HETATM    4  C   UNL     1      58.495   1.371  14.418  1.00  0.00     0.088 A 
HETATM    5  C   UNL     1      57.673   2.386  12.028  1.00  0.00     0.025 A 
HETATM    6  C   UNL     1      59.448   1.593  13.440  1.00  0.00     0.017 A 
HETATM    7  C   UNL     1      59.025   2.110  12.223  1.00  0.00     0.003 A 
ENDROOT
BRANCH   3   8
HETATM    8  C   UNL     1      55.302   2.403  12.892  1.00  0.00     0.084 C 
BRANCH   8   9
HETATM    9  C   UNL     1      54.599   2.619  14.239  1.00  0.00     0.237 C 
BRANCH   9  10
HETATM   10  N   UNL     1      54.485   4.053  14.541  1.00  0.00    -0.079 N 
HETATM   11  C   UNL     1      53.384   4.657  13.802  1.00  0.00     0.267 C 
HETATM   12  H   UNL     1      55.355   4.518  14.283  1.00  0.00     0.276 HD
HETATM   13  H   UNL     1      54.303   4.161  15.539  1.00  0.00     0.276 HD
ENDBRANCH   9  10
ENDBRANCH   8   9
ENDBRANCH   3   8
TORSDOF 3
ENDMDL
MODEL 7
REMARK VINA RESULT:      -3.5      1.617      5.507
REMARK  3 active torsions:
REMARK  status: ('A' for Active; 'I' for Inactive)
REMARK    1  A    between atoms: C_3  and  C_5 
REMARK    2  A    between atoms: N_4  and  C_7 
REMARK    3  A    between atoms: C_5  and  C_7 
ROOT
HETATM    1  N   UNL     1      65.122   7.349   6.821  1.00  0.00    -0.369 N 
ATOM      2  HN  UNL     1      64.205   7.477   7.247  1.00  0.00     0.165 HD
HETATM    3  C   UNL     1      65.452   7.972   5.663  1.00  0.00     0.010 A 
HETATM    4  C   UNL     1      66.054   6.552   7.389  1.00  0.00     0.088 A 
HETATM    5  C   UNL     1      66.694   7.805   5.057  1.00  0.00     0.025 A 
HETATM    6  C   UNL     1      67.313   6.338   6.856  1.00  0.00     0.017 A 
HETATM    7  C   UNL     1      67.635   6.978   5.667  1.00  0.00     0.003 A 
ENDROOT
BRANCH   3   8
HETATM    8  C   UNL     1      64.394   8.843   5.026  1.00  0.00     0.084 C 
BRANCH   8   9
HETATM    9  C   UNL     1      63.629   8.097   3.925  1.00  0.00     0.237 C 
BRANCH   9  10
HETATM   10  N   UNL     1      62.728   9.011   3.208  1.00  0.00    -0.079 N 
HETATM   11  C   UNL     1      62.257  10.075   4.086  1.00  0.00     0.267 C 
HETATM   12  H   UNL     1      61.926   8.485   2.861  1.00  0.00     0.276 HD
HETATM   13  H   UNL     1      63.242   9.434   2.435  1.00  0.00     0.276 HD
ENDBRANCH   9  10
ENDBRANCH   8   9
ENDBRANCH   3   8
TORSDOF 3
ENDMDL
MODEL 8
REMARK VINA RESULT:      -3.5     12.784     14.302
REMARK  3 active torsions:
REMARK  status: ('A' for Active; 'I' for Inactive)
REMARK    1  A    between atoms: C_3  and  C_5 
REMARK    2  A    between atoms: N_4  and  C_7 
REMARK    3  A    between atoms: C_5  and  C_7 
ROOT
HETATM    1  N   UNL     1      57.408   2.252  12.244  1.00  0.00    -0.369 N 
ATOM      2  HN  UNL     1      56.942   2.806  11.525  1.00  0.00     0.165 HD
HETATM    3  C   UNL     1      56.699   1.501  13.122  1.00  0.00     0.010 A 
HETATM    4  C   UNL     1      58.755   2.241  12.356  1.00  0.00     0.088 A 
HETATM    5  C   UNL     1      57.313   0.745  14.117  1.00  0.00     0.025 A 
HETATM    6  C   UNL     1      59.442   1.514  13.312  1.00  0.00     0.017 A 
HETATM    7  C   UNL     1      58.703   0.753  14.208  1.00  0.00     0.003 A 
ENDROOT
BRANCH   3   8
HETATM    8  C   UNL     1      55.194   1.539  13.000  1.00  0.00     0.084 C 
BRANCH   8   9
HETATM    9  C   UNL     1      54.524   1.906  14.331  1.00  0.00     0.237 C 
BRANCH   9  10
HETATM   10  N   UNL     1      54.901   3.266  14.744  1.00  0.00    -0.079 N 
HETATM   11  C   UNL     1      54.319   4.263  13.855  1.00  0.00     0.267 C 
HETATM   12  H   UNL     1      55.917   3.352  14.721  1.00  0.00     0.276 HD
HETATM   13  H   UNL     1      54.549   3.428  15.688  1.00  0.00     0.276 HD
ENDBRANCH   9  10
ENDBRANCH   8   9
ENDBRANCH   3   8
TORSDOF 3
ENDMDL
MODEL 9
REMARK VINA RESULT:      -3.5      3.869      5.530
REMARK  3 active torsions:
REMARK  status: ('A' for Active; 'I' for Inactive)
REMARK    1  A    between atoms: C_3  and  C_5 
REMARK    2  A    between atoms: N_4  and  C_7 
REMARK    3  A    between atoms: C_5  and  C_7 
ROOT
HETATM    1  N   UNL     1      65.041   7.129   7.131  1.00  0.00    -0.369 N 
ATOM      2  HN  UNL     1      64.412   7.003   7.923  1.00  0.00     0.165 HD
HETATM    3  C   UNL     1      66.386   7.042   7.280  1.00  0.00     0.010 A 
HETATM    4  C   UNL     1      64.564   7.390   5.893  1.00  0.00     0.088 A 
HETATM    5  C   UNL     1      67.264   7.220   6.215  1.00  0.00     0.025 A 
HETATM    6  C   UNL     1      65.368   7.574   4.782  1.00  0.00     0.017 A 
HETATM    7  C   UNL     1      66.743   7.487   4.950  1.00  0.00     0.003 A 
ENDROOT
BRANCH   3   8
HETATM    8  C   UNL     1      66.906   6.772   8.672  1.00  0.00     0.084 C 
BRANCH   8   9
HETATM    9  C   UNL     1      67.672   5.445   8.747  1.00  0.00     0.237 C 
BRANCH   9  10
HETATM   10  N   UNL     1      66.744   4.306   8.689  1.00  0.00    -0.079 N 
HETATM   11  C   UNL     1      67.122   3.376   7.634  1.00  0.00     0.267 C 
HETATM   12  H   UNL     1      65.802   4.652   8.508  1.00  0.00     0.276 HD
HETATM   13  H   UNL     1      66.778   3.814   9.583  1.00  0.00     0.276 HD
ENDBRANCH   9  10
ENDBRANCH   8   9
ENDBRANCH   3   8
TORSDOF 3
ENDMDL
