MODEL 1
REMARK VINA RESULT:      -5.6      0.000      0.000
REMARK  2 active torsions:
REMARK  status: ('A' for Active; 'I' for Inactive)
REMARK    1  A    between atoms: N_1  and  O_8 
REMARK    2  A    between atoms: C_5  and  C_7 
ROOT
HETATM    1  N   UNL     1      63.519   7.107   4.352  1.00  0.00    -0.156 NA
HETATM    2  N   UNL     1      64.510   8.823   5.443  1.00  0.00    -0.360 N 
HETATM    3  C   UNL     1      64.561   6.480   5.220  1.00  0.00     0.086 C 
HETATM    4  C   UNL     1      65.275   7.720   5.764  1.00  0.00     0.099 C 
HETATM    5  C   UNL     1      63.235   8.431   4.931  1.00  0.00     0.218 C 
HETATM    6  S   UNL     1      66.674   7.808   6.648  1.00  0.00    -0.063 SA
HETATM    7  C   UNL     1      63.987   5.641   6.376  1.00  0.00     0.042 C 
HETATM    8  C   UNL     1      65.461   5.621   4.328  1.00  0.00     0.042 C 
HETATM    9  H   UNL     1      64.804   9.756   5.552  1.00  0.00     0.162 HD
ENDROOT
BRANCH   5  10
HETATM   10  C   UNL     1      62.664   9.412   3.933  1.00  0.00    -0.019 A 
HETATM   11  C   UNL     1      62.314  10.721   4.301  1.00  0.00     0.010 A 
HETATM   12  C   UNL     1      61.846  11.632   3.352  1.00  0.00     0.001 A 
HETATM   13  C   UNL     1      61.714  11.250   2.018  1.00  0.00     0.000 A 
HETATM   14  C   UNL     1      62.039   9.948   1.639  1.00  0.00     0.001 A 
HETATM   15  C   UNL     1      62.506   9.038   2.586  1.00  0.00     0.010 A 
ENDBRANCH   5  10
BRANCH   1  16
HETATM   16  O   UNL     1      62.307   6.310   4.396  1.00  0.00    -0.310 OA
HETATM   17  H   UNL     1      61.620   6.794   4.880  1.00  0.00     0.237 HD
ENDBRANCH   1  16
TORSDOF 2
ENDMDL
MODEL 2
REMARK VINA RESULT:      -5.5      2.132      2.665
REMARK  2 active torsions:
REMARK  status: ('A' for Active; 'I' for Inactive)
REMARK    1  A    between atoms: N_1  and  O_8 
REMARK    2  A    between atoms: C_5  and  C_7 
ROOT
HETATM    1  N   UNL     1      65.393   7.829   5.951  1.00  0.00    -0.156 NA
HETATM    2  N   UNL     1      63.822   6.358   5.253  1.00  0.00    -0.360 N 
HETATM    3  C   UNL     1      65.790   6.514   6.537  1.00  0.00     0.086 C 
HETATM    4  C   UNL     1      64.585   5.648   6.157  1.00  0.00     0.099 C 
HETATM    5  C   UNL     1      64.510   7.529   4.810  1.00  0.00     0.218 C 
HETATM    6  S   UNL     1      64.224   4.105   6.642  1.00  0.00    -0.063 SA
HETATM    7  C   UNL     1      67.081   5.929   5.936  1.00  0.00     0.042 C 
HETATM    8  C   UNL     1      65.936   6.698   8.049  1.00  0.00     0.042 C 
HETATM    9  H   UNL     1      62.923   6.093   4.953  1.00  0.00     0.162 HD
ENDROOT
BRANCH   5  10
HETATM   10  C   UNL     1      63.583   8.668   4.454  1.00  0.00    -0.019 A 
HETATM   11  C   UNL     1      63.403   9.769   5.306  1.00  0.00     0.010 A 
HETATM   12  C   UNL     1      62.589  10.841   4.932  1.00  0.00     0.001 A 
HETATM   13  C   UNL     1      61.936  10.829   3.700  1.00  0.00     0.000 A 
HETATM   14  C   UNL     1      62.089   9.735   2.850  1.00  0.00     0.001 A 
HETATM   15  C   UNL     1      62.900   8.664   3.224  1.00  0.00     0.010 A 
ENDBRANCH   5  10
BRANCH   1  16
HETATM   16  O   UNL     1      66.571   8.518   5.458  1.00  0.00    -0.310 OA
HETATM   17  H   UNL     1      66.598   8.461   4.491  1.00  0.00     0.237 HD
ENDBRANCH   1  16
TORSDOF 2
ENDMDL
MODEL 3
REMARK VINA RESULT:      -5.4      1.548      1.683
REMARK  2 active torsions:
REMARK  status: ('A' for Active; 'I' for Inactive)
REMARK    1  A    between atoms: N_1  and  O_8 
REMARK    2  A    between atoms: C_5  and  C_7 
ROOT
HETATM    1  N   UNL     1      63.607   7.183   5.849  1.00  0.00    -0.156 NA
HETATM    2  N   UNL     1      65.255   7.633   4.366  1.00  0.00    -0.360 N 
HETATM    3  C   UNL     1      64.667   6.163   6.109  1.00  0.00     0.086 C 
HETATM    4  C   UNL     1      65.633   6.444   4.954  1.00  0.00     0.099 C 
HETATM    5  C   UNL     1      64.265   8.300   5.151  1.00  0.00     0.218 C 
HETATM    6  S   UNL     1      66.957   5.570   4.474  1.00  0.00    -0.063 SA
HETATM    7  C   UNL     1      65.382   6.338   7.461  1.00  0.00     0.042 C 
HETATM    8  C   UNL     1      64.020   4.779   6.018  1.00  0.00     0.042 C 
HETATM    9  H   UNL     1      65.619   7.977   3.519  1.00  0.00     0.162 HD
ENDROOT
BRANCH   5  10
HETATM   10  C   UNL     1      63.313   9.136   4.327  1.00  0.00    -0.019 A 
HETATM   11  C   UNL     1      62.837  10.378   4.779  1.00  0.00     0.010 A 
HETATM   12  C   UNL     1      62.007  11.164   3.978  1.00  0.00     0.001 A 
HETATM   13  C   UNL     1      61.632  10.721   2.710  1.00  0.00     0.000 A 
HETATM   14  C   UNL     1      62.080   9.482   2.253  1.00  0.00     0.001 A 
HETATM   15  C   UNL     1      62.908   8.697   3.053  1.00  0.00     0.010 A 
ENDBRANCH   5  10
BRANCH   1  16
HETATM   16  O   UNL     1      63.080   7.669   7.111  1.00  0.00    -0.310 OA
HETATM   17  H   UNL     1      63.305   8.606   7.216  1.00  0.00     0.237 HD
ENDBRANCH   1  16
TORSDOF 2
ENDMDL
MODEL 4
REMARK VINA RESULT:      -4.9      3.041      5.959
REMARK  2 active torsions:
REMARK  status: ('A' for Active; 'I' for Inactive)
REMARK    1  A    between atoms: N_1  and  O_8 
REMARK    2  A    between atoms: C_5  and  C_7 
ROOT
HETATM    1  N   UNL     1      64.834   7.790   5.403  1.00  0.00    -0.156 NA
HETATM    2  N   UNL     1      63.516   6.297   6.475  1.00  0.00    -0.360 N 
HETATM    3  C   UNL     1      63.472   7.968   4.817  1.00  0.00     0.086 C 
HETATM    4  C   UNL     1      62.716   6.809   5.474  1.00  0.00     0.099 C 
HETATM    5  C   UNL     1      64.644   7.140   6.711  1.00  0.00     0.218 C 
HETATM    6  S   UNL     1      61.190   6.251   5.150  1.00  0.00    -0.063 SA
HETATM    7  C   UNL     1      62.810   9.311   5.176  1.00  0.00     0.042 C 
HETATM    8  C   UNL     1      63.590   7.816   3.299  1.00  0.00     0.042 C 
HETATM    9  H   UNL     1      63.332   5.462   6.963  1.00  0.00     0.162 HD
ENDROOT
BRANCH   5  10
HETATM   10  C   UNL     1      65.864   6.386   7.189  1.00  0.00    -0.019 A 
HETATM   11  C   UNL     1      66.271   6.414   8.532  1.00  0.00     0.010 A 
HETATM   12  C   UNL     1      67.364   5.662   8.967  1.00  0.00     0.001 A 
HETATM   13  C   UNL     1      68.075   4.870   8.064  1.00  0.00     0.000 A 
HETATM   14  C   UNL     1      67.695   4.846   6.723  1.00  0.00     0.001 A 
HETATM   15  C   UNL     1      66.604   5.598   6.289  1.00  0.00     0.010 A 
ENDBRANCH   5  10
BRANCH   1  16
HETATM   16  O   UNL     1      65.446   9.089   5.614  1.00  0.00    -0.310 OA
HETATM   17  H   UNL     1      66.365   9.067   5.305  1.00  0.00     0.237 HD
ENDBRANCH   1  16
TORSDOF 2
ENDMDL
MODEL 5
REMARK VINA RESULT:      -4.8      2.207      3.089
REMARK  2 active torsions:
REMARK  status: ('A' for Active; 'I' for Inactive)
REMARK    1  A    between atoms: N_1  and  O_8 
REMARK    2  A    between atoms: C_5  and  C_7 
ROOT
HETATM    1  N   UNL     1      65.006   7.933   5.879  1.00  0.00    -0.156 NA
HETATM    2  N   UNL     1      65.052   6.193   4.434  1.00  0.00    -0.360 N 
HETATM    3  C   UNL     1      66.233   7.156   6.228  1.00  0.00     0.086 C 
HETATM    4  C   UNL     1      66.071   5.930   5.326  1.00  0.00     0.099 C 
HETATM    5  C   UNL     1      64.659   7.565   4.496  1.00  0.00     0.218 C 
HETATM    6  S   UNL     1      66.959   4.530   5.310  1.00  0.00    -0.063 SA
HETATM    7  C   UNL     1      67.548   7.890   5.905  1.00  0.00     0.042 C 
HETATM    8  C   UNL     1      66.163   6.812   7.718  1.00  0.00     0.042 C 
HETATM    9  H   UNL     1      64.649   5.524   3.834  1.00  0.00     0.162 HD
ENDROOT
BRANCH   5  10
HETATM   10  C   UNL     1      63.200   7.784   4.165  1.00  0.00    -0.019 A 
HETATM   11  C   UNL     1      62.775   8.868   3.381  1.00  0.00     0.010 A 
HETATM   12  C   UNL     1      61.431   9.020   3.034  1.00  0.00     0.001 A 
HETATM   13  C   UNL     1      60.485   8.092   3.470  1.00  0.00     0.000 A 
HETATM   14  C   UNL     1      60.888   7.020   4.266  1.00  0.00     0.001 A 
HETATM   15  C   UNL     1      62.230   6.870   4.613  1.00  0.00     0.010 A 
ENDBRANCH   5  10
BRANCH   1  16
HETATM   16  O   UNL     1      65.300   9.354   5.923  1.00  0.00    -0.310 OA
HETATM   17  H   UNL     1      66.030   9.551   5.316  1.00  0.00     0.237 HD
ENDBRANCH   1  16
TORSDOF 2
ENDMDL
MODEL 6
REMARK VINA RESULT:      -4.8      2.013      2.680
REMARK  2 active torsions:
REMARK  status: ('A' for Active; 'I' for Inactive)
REMARK    1  A    between atoms: N_1  and  O_8 
REMARK    2  A    between atoms: C_5  and  C_7 
ROOT
HETATM    1  N   UNL     1      64.112   7.144   4.598  1.00  0.00    -0.156 NA
HETATM    2  N   UNL     1      61.902   6.664   4.660  1.00  0.00    -0.360 N 
HETATM    3  C   UNL     1      63.995   5.914   5.436  1.00  0.00     0.086 C 
HETATM    4  C   UNL     1      62.474   5.785   5.558  1.00  0.00     0.099 C 
HETATM    5  C   UNL     1      62.887   7.213   3.783  1.00  0.00     0.218 C 
HETATM    6  S   UNL     1      61.593   4.757   6.513  1.00  0.00    -0.063 SA
HETATM    7  C   UNL     1      64.589   4.654   4.780  1.00  0.00     0.042 C 
HETATM    8  C   UNL     1      64.676   6.193   6.777  1.00  0.00     0.042 C 
HETATM    9  H   UNL     1      60.943   6.884   4.629  1.00  0.00     0.162 HD
ENDROOT
BRANCH   5  10
HETATM   10  C   UNL     1      62.556   8.610   3.313  1.00  0.00    -0.019 A 
HETATM   11  C   UNL     1      62.300   8.895   1.962  1.00  0.00     0.010 A 
HETATM   12  C   UNL     1      61.936  10.180   1.555  1.00  0.00     0.001 A 
HETATM   13  C   UNL     1      61.825  11.207   2.492  1.00  0.00     0.000 A 
HETATM   14  C   UNL     1      62.095  10.946   3.835  1.00  0.00     0.001 A 
HETATM   15  C   UNL     1      62.460   9.663   4.241  1.00  0.00     0.010 A 
ENDBRANCH   5  10
BRANCH   1  16
HETATM   16  O   UNL     1      65.254   7.022   3.711  1.00  0.00    -0.310 OA
HETATM   17  H   UNL     1      65.344   6.099   3.426  1.00  0.00     0.237 HD
ENDBRANCH   1  16
TORSDOF 2
ENDMDL
MODEL 7
REMARK VINA RESULT:      -4.6      8.445     10.900
REMARK  2 active torsions:
REMARK  status: ('A' for Active; 'I' for Inactive)
REMARK    1  A    between atoms: N_1  and  O_8 
REMARK    2  A    between atoms: C_5  and  C_7 
ROOT
HETATM    1  N   UNL     1      58.838   3.787   9.706  1.00  0.00    -0.156 NA
HETATM    2  N   UNL     1      57.665   1.905   9.261  1.00  0.00    -0.360 N 
HETATM    3  C   UNL     1      58.805   3.680   8.216  1.00  0.00     0.086 C 
HETATM    4  C   UNL     1      58.156   2.305   8.035  1.00  0.00     0.099 C 
HETATM    5  C   UNL     1      57.718   2.974  10.208  1.00  0.00     0.218 C 
HETATM    6  S   UNL     1      57.971   1.421   6.646  1.00  0.00    -0.063 SA
HETATM    7  C   UNL     1      57.957   4.768   7.532  1.00  0.00     0.042 C 
HETATM    8  C   UNL     1      60.249   3.726   7.711  1.00  0.00     0.042 C 
HETATM    9  H   UNL     1      57.323   1.003   9.457  1.00  0.00     0.162 HD
ENDROOT
BRANCH   5  10
HETATM   10  C   UNL     1      57.909   2.502  11.631  1.00  0.00    -0.019 A 
HETATM   11  C   UNL     1      56.832   2.393  12.525  1.00  0.00     0.010 A 
HETATM   12  C   UNL     1      57.018   1.897  13.817  1.00  0.00     0.001 A 
HETATM   13  C   UNL     1      58.287   1.505  14.241  1.00  0.00     0.000 A 
HETATM   14  C   UNL     1      59.371   1.625  13.373  1.00  0.00     0.001 A 
HETATM   15  C   UNL     1      59.185   2.121  12.083  1.00  0.00     0.010 A 
ENDBRANCH   5  10
BRANCH   1  16
HETATM   16  O   UNL     1      58.623   5.168  10.099  1.00  0.00    -0.310 OA
HETATM   17  H   UNL     1      59.090   5.755   9.485  1.00  0.00     0.237 HD
ENDBRANCH   1  16
TORSDOF 2
ENDMDL
MODEL 8
REMARK VINA RESULT:      -4.4     12.519     14.389
REMARK  2 active torsions:
REMARK  status: ('A' for Active; 'I' for Inactive)
REMARK    1  A    between atoms: N_1  and  O_8 
REMARK    2  A    between atoms: C_5  and  C_7 
ROOT
HETATM    1  N   UNL     1      54.827   2.988  13.561  1.00  0.00    -0.156 NA
HETATM    2  N   UNL     1      54.559   1.037  12.447  1.00  0.00    -0.360 N 
HETATM    3  C   UNL     1      53.392   2.959  13.145  1.00  0.00     0.086 C 
HETATM    4  C   UNL     1      53.367   1.708  12.263  1.00  0.00     0.099 C 
HETATM    5  C   UNL     1      55.296   1.592  13.538  1.00  0.00     0.218 C 
HETATM    6  S   UNL     1      52.147   1.149  11.290  1.00  0.00    -0.063 SA
HETATM    7  C   UNL     1      52.406   2.808  14.319  1.00  0.00     0.042 C 
HETATM    8  C   UNL     1      53.104   4.243  12.363  1.00  0.00     0.042 C 
HETATM    9  H   UNL     1      54.861   0.277  11.899  1.00  0.00     0.162 HD
ENDROOT
BRANCH   5  10
HETATM   10  C   UNL     1      56.793   1.465  13.373  1.00  0.00    -0.019 A 
HETATM   11  C   UNL     1      57.508   2.269  12.472  1.00  0.00     0.010 A 
HETATM   12  C   UNL     1      58.898   2.180  12.377  1.00  0.00     0.001 A 
HETATM   13  C   UNL     1      59.600   1.280  13.180  1.00  0.00     0.000 A 
HETATM   14  C   UNL     1      58.903   0.461  14.067  1.00  0.00     0.001 A 
HETATM   15  C   UNL     1      57.515   0.549  14.160  1.00  0.00     0.010 A 
ENDBRANCH   5  10
BRANCH   1  16
HETATM   16  O   UNL     1      54.930   3.491  14.918  1.00  0.00    -0.310 OA
HETATM   17  H   UNL     1      54.655   4.421  14.940  1.00  0.00     0.237 HD
ENDBRANCH   1  16
TORSDOF 2
ENDMDL
MODEL 9
REMARK VINA RESULT:      -4.4      2.719      5.142
REMARK  2 active torsions:
REMARK  status: ('A' for Active; 'I' for Inactive)
REMARK    1  A    between atoms: N_1  and  O_8 
REMARK    2  A    between atoms: C_5  and  C_7 
ROOT
HETATM    1  N   UNL     1      63.194   8.709   3.634  1.00  0.00    -0.156 NA
HETATM    2  N   UNL     1      63.683   6.738   2.638  1.00  0.00    -0.360 N 
HETATM    3  C   UNL     1      62.160   8.532   2.570  1.00  0.00     0.086 C 
HETATM    4  C   UNL     1      62.683   7.282   1.857  1.00  0.00     0.099 C 
HETATM    5  C   UNL     1      63.734   7.369   3.918  1.00  0.00     0.218 C 
HETATM    6  S   UNL     1      62.157   6.598   0.442  1.00  0.00    -0.063 SA
HETATM    7  C   UNL     1      60.741   8.284   3.115  1.00  0.00     0.042 C 
HETATM    8  C   UNL     1      62.184   9.777   1.680  1.00  0.00     0.042 C 
HETATM    9  H   UNL     1      64.282   6.011   2.350  1.00  0.00     0.162 HD
ENDROOT
BRANCH   5  10
HETATM   10  C   UNL     1      65.122   7.396   4.516  1.00  0.00    -0.019 A 
HETATM   11  C   UNL     1      65.421   8.160   5.656  1.00  0.00     0.010 A 
HETATM   12  C   UNL     1      66.693   8.125   6.230  1.00  0.00     0.001 A 
HETATM   13  C   UNL     1      67.693   7.328   5.672  1.00  0.00     0.000 A 
HETATM   14  C   UNL     1      67.418   6.578   4.529  1.00  0.00     0.001 A 
HETATM   15  C   UNL     1      66.148   6.615   3.955  1.00  0.00     0.010 A 
ENDBRANCH   5  10
BRANCH   1  16
HETATM   16  O   UNL     1      62.569   9.225   4.838  1.00  0.00    -0.310 OA
HETATM   17  H   UNL     1      61.629   8.987   4.841  1.00  0.00     0.237 HD
ENDBRANCH   1  16
TORSDOF 2
ENDMDL
