MODEL 1
REMARK VINA RESULT:      -5.4      0.000      0.000
REMARK  3 active torsions:
REMARK  status: ('A' for Active; 'I' for Inactive)
REMARK    1  A    between atoms: O_1  and  C_2 
REMARK    2  A    between atoms: O_1  and  C_4 
REMARK    3  A    between atoms: C_3  and  O_9 
ROOT
HETATM    1  C   UNL     1      64.068   7.738   4.460  1.00  0.00     0.076 A 
HETATM    2  C   UNL     1      66.715   6.890   4.613  1.00  0.00     0.065 A 
HETATM    3  C   UNL     1      64.511   6.679   3.663  1.00  0.00     0.040 A 
HETATM    4  C   UNL     1      64.975   8.414   5.282  1.00  0.00     0.040 A 
HETATM    5  C   UNL     1      66.301   7.987   5.359  1.00  0.00     0.039 A 
HETATM    6  C   UNL     1      65.832   6.234   3.759  1.00  0.00     0.039 A 
ENDROOT
BRANCH   1   7
HETATM    7  O   UNL     1      62.782   8.232   4.456  1.00  0.00    -0.311 OA
BRANCH   7   8
HETATM    8  C   UNL     1      62.440   9.265   3.614  1.00  0.00     0.076 A 
HETATM    9  C   UNL     1      62.251   9.135   2.234  1.00  0.00     0.037 A 
HETATM   10  C   UNL     1      61.934  10.255   1.462  1.00  0.00     0.003 A 
HETATM   11  C   UNL     1      61.748  11.495   2.074  1.00  0.00     0.000 A 
HETATM   12  C   UNL     1      61.873  11.615   3.456  1.00  0.00     0.003 A 
HETATM   13  C   UNL     1      62.216  10.501   4.224  1.00  0.00     0.037 A 
ENDBRANCH   7   8
ENDBRANCH   1   7
BRANCH   2  14
HETATM   14  O   UNL     1      68.009   6.485   4.742  1.00  0.00    -0.361 OA
HETATM   15  H   UNL     1      68.678   6.882   4.219  1.00  0.00     0.217 HD
ENDBRANCH   2  14
TORSDOF 3
ENDMDL
MODEL 2
REMARK VINA RESULT:      -5.4      1.378      2.105
REMARK  3 active torsions:
REMARK  status: ('A' for Active; 'I' for Inactive)
REMARK    1  A    between atoms: O_1  and  C_2 
REMARK    2  A    between atoms: O_1  and  C_4 
REMARK    3  A    between atoms: C_3  and  O_9 
ROOT
HETATM    1  C   UNL     1      63.758   7.863   5.489  1.00  0.00     0.076 A 
HETATM    2  C   UNL     1      66.239   7.254   6.595  1.00  0.00     0.065 A 
HETATM    3  C   UNL     1      64.889   8.599   5.122  1.00  0.00     0.040 A 
HETATM    4  C   UNL     1      63.866   6.868   6.464  1.00  0.00     0.040 A 
HETATM    5  C   UNL     1      65.110   6.561   7.017  1.00  0.00     0.039 A 
HETATM    6  C   UNL     1      66.139   8.276   5.655  1.00  0.00     0.039 A 
ENDROOT
BRANCH   1   7
HETATM    7  O   UNL     1      62.490   8.088   5.001  1.00  0.00    -0.311 OA
BRANCH   7   8
HETATM    8  C   UNL     1      62.288   9.011   4.000  1.00  0.00     0.076 A 
HETATM    9  C   UNL     1      62.126  10.385   4.209  1.00  0.00     0.037 A 
HETATM   10  C   UNL     1      61.896  11.236   3.126  1.00  0.00     0.003 A 
HETATM   11  C   UNL     1      61.884  10.726   1.827  1.00  0.00     0.000 A 
HETATM   12  C   UNL     1      62.109   9.368   1.611  1.00  0.00     0.003 A 
HETATM   13  C   UNL     1      62.312   8.513   2.696  1.00  0.00     0.037 A 
ENDBRANCH   7   8
ENDBRANCH   1   7
BRANCH   2  14
HETATM   14  O   UNL     1      67.439   6.903   7.136  1.00  0.00    -0.361 OA
HETATM   15  H   UNL     1      67.774   6.037   7.009  1.00  0.00     0.217 HD
ENDBRANCH   2  14
TORSDOF 3
ENDMDL
MODEL 3
REMARK VINA RESULT:      -5.3      1.801      5.677
REMARK  3 active torsions:
REMARK  status: ('A' for Active; 'I' for Inactive)
REMARK    1  A    between atoms: O_1  and  C_2 
REMARK    2  A    between atoms: O_1  and  C_4 
REMARK    3  A    between atoms: C_3  and  O_9 
ROOT
HETATM    1  C   UNL     1      63.173   9.017   5.077  1.00  0.00     0.076 A 
HETATM    2  C   UNL     1      61.973  10.663   3.180  1.00  0.00     0.065 A 
HETATM    3  C   UNL     1      62.949  10.367   5.362  1.00  0.00     0.040 A 
HETATM    4  C   UNL     1      62.856   8.514   3.812  1.00  0.00     0.040 A 
HETATM    5  C   UNL     1      62.253   9.339   2.862  1.00  0.00     0.039 A 
HETATM    6  C   UNL     1      62.322  11.188   4.422  1.00  0.00     0.039 A 
ENDROOT
BRANCH   1   7
HETATM    7  O   UNL     1      63.760   8.124   5.946  1.00  0.00    -0.311 OA
BRANCH   7   8
HETATM    8  C   UNL     1      64.969   7.547   5.633  1.00  0.00     0.076 A 
HETATM    9  C   UNL     1      66.115   8.258   5.261  1.00  0.00     0.037 A 
HETATM   10  C   UNL     1      67.288   7.574   4.933  1.00  0.00     0.003 A 
HETATM   11  C   UNL     1      67.336   6.183   5.031  1.00  0.00     0.000 A 
HETATM   12  C   UNL     1      66.216   5.476   5.463  1.00  0.00     0.003 A 
HETATM   13  C   UNL     1      65.036   6.158   5.765  1.00  0.00     0.037 A 
ENDBRANCH   7   8
ENDBRANCH   1   7
BRANCH   2  14
HETATM   14  O   UNL     1      61.355  11.426   2.236  1.00  0.00    -0.361 OA
HETATM   15  H   UNL     1      60.446  11.295   2.050  1.00  0.00     0.217 HD
ENDBRANCH   2  14
TORSDOF 3
ENDMDL
MODEL 4
REMARK VINA RESULT:      -5.3      1.868      5.554
REMARK  3 active torsions:
REMARK  status: ('A' for Active; 'I' for Inactive)
REMARK    1  A    between atoms: O_1  and  C_2 
REMARK    2  A    between atoms: O_1  and  C_4 
REMARK    3  A    between atoms: C_3  and  O_9 
ROOT
HETATM    1  C   UNL     1      63.178   8.845   5.094  1.00  0.00     0.076 A 
HETATM    2  C   UNL     1      61.977  10.530   3.232  1.00  0.00     0.065 A 
HETATM    3  C   UNL     1      62.701   8.328   3.886  1.00  0.00     0.040 A 
HETATM    4  C   UNL     1      62.988  10.197   5.391  1.00  0.00     0.040 A 
HETATM    5  C   UNL     1      62.387  11.042   4.457  1.00  0.00     0.039 A 
HETATM    6  C   UNL     1      62.123   9.176   2.939  1.00  0.00     0.039 A 
ENDROOT
BRANCH   1   7
HETATM    7  O   UNL     1      63.785   8.096   6.078  1.00  0.00    -0.311 OA
BRANCH   7   8
HETATM    8  C   UNL     1      65.058   7.607   5.888  1.00  0.00     0.076 A 
HETATM    9  C   UNL     1      65.959   8.089   4.932  1.00  0.00     0.037 A 
HETATM   10  C   UNL     1      67.220   7.502   4.800  1.00  0.00     0.003 A 
HETATM   11  C   UNL     1      67.605   6.473   5.660  1.00  0.00     0.000 A 
HETATM   12  C   UNL     1      66.734   6.034   6.654  1.00  0.00     0.003 A 
HETATM   13  C   UNL     1      65.464   6.602   6.768  1.00  0.00     0.037 A 
ENDBRANCH   7   8
ENDBRANCH   1   7
BRANCH   2  14
HETATM   14  O   UNL     1      61.425  11.393   2.334  1.00  0.00    -0.361 OA
HETATM   15  H   UNL     1      60.662  11.886   2.567  1.00  0.00     0.217 HD
ENDBRANCH   2  14
TORSDOF 3
ENDMDL
MODEL 5
REMARK VINA RESULT:      -5.2      1.756      5.439
REMARK  3 active torsions:
REMARK  status: ('A' for Active; 'I' for Inactive)
REMARK    1  A    between atoms: O_1  and  C_2 
REMARK    2  A    between atoms: O_1  and  C_4 
REMARK    3  A    between atoms: C_3  and  O_9 
ROOT
HETATM    1  C   UNL     1      62.236   8.825   3.779  1.00  0.00     0.076 A 
HETATM    2  C   UNL     1      61.903  11.207   2.378  1.00  0.00     0.065 A 
HETATM    3  C   UNL     1      62.040   8.803   2.395  1.00  0.00     0.040 A 
HETATM    4  C   UNL     1      62.195  10.042   4.464  1.00  0.00     0.040 A 
HETATM    5  C   UNL     1      62.029  11.236   3.762  1.00  0.00     0.039 A 
HETATM    6  C   UNL     1      61.900   9.998   1.687  1.00  0.00     0.039 A 
ENDROOT
BRANCH   1   7
HETATM    7  O   UNL     1      62.409   7.703   4.560  1.00  0.00    -0.311 OA
BRANCH   7   8
HETATM    8  C   UNL     1      63.617   7.470   5.177  1.00  0.00     0.076 A 
HETATM    9  C   UNL     1      63.764   6.862   6.428  1.00  0.00     0.037 A 
HETATM   10  C   UNL     1      65.037   6.698   6.981  1.00  0.00     0.003 A 
HETATM   11  C   UNL     1      66.166   7.087   6.262  1.00  0.00     0.000 A 
HETATM   12  C   UNL     1      66.027   7.634   4.988  1.00  0.00     0.003 A 
HETATM   13  C   UNL     1      64.753   7.822   4.447  1.00  0.00     0.037 A 
ENDBRANCH   7   8
ENDBRANCH   1   7
BRANCH   2  14
HETATM   14  O   UNL     1      61.775  12.397   1.726  1.00  0.00    -0.361 OA
HETATM   15  H   UNL     1      61.016  12.928   1.865  1.00  0.00     0.217 HD
ENDBRANCH   2  14
TORSDOF 3
ENDMDL
MODEL 6
REMARK VINA RESULT:      -5.1      1.705      2.391
REMARK  3 active torsions:
REMARK  status: ('A' for Active; 'I' for Inactive)
REMARK    1  A    between atoms: O_1  and  C_2 
REMARK    2  A    between atoms: O_1  and  C_4 
REMARK    3  A    between atoms: C_3  and  O_9 
ROOT
HETATM    1  C   UNL     1      65.769   7.930   6.032  1.00  0.00     0.076 A 
HETATM    2  C   UNL     1      67.244   5.579   6.244  1.00  0.00     0.065 A 
HETATM    3  C   UNL     1      65.289   6.869   6.805  1.00  0.00     0.040 A 
HETATM    4  C   UNL     1      66.957   7.780   5.311  1.00  0.00     0.040 A 
HETATM    5  C   UNL     1      67.697   6.603   5.418  1.00  0.00     0.039 A 
HETATM    6  C   UNL     1      66.041   5.700   6.935  1.00  0.00     0.039 A 
ENDROOT
BRANCH   1   7
HETATM    7  O   UNL     1      65.115   9.131   5.864  1.00  0.00    -0.311 OA
BRANCH   7   8
HETATM    8  C   UNL     1      64.065   9.228   4.979  1.00  0.00     0.076 A 
HETATM    9  C   UNL     1      63.770   8.283   3.991  1.00  0.00     0.037 A 
HETATM   10  C   UNL     1      62.696   8.490   3.121  1.00  0.00     0.003 A 
HETATM   11  C   UNL     1      61.881   9.612   3.273  1.00  0.00     0.000 A 
HETATM   12  C   UNL     1      62.134  10.523   4.297  1.00  0.00     0.003 A 
HETATM   13  C   UNL     1      63.223  10.329   5.149  1.00  0.00     0.037 A 
ENDBRANCH   7   8
ENDBRANCH   1   7
BRANCH   2  14
HETATM   14  O   UNL     1      68.012   4.459   6.347  1.00  0.00    -0.361 OA
HETATM   15  H   UNL     1      68.756   4.452   6.916  1.00  0.00     0.217 HD
ENDBRANCH   2  14
TORSDOF 3
ENDMDL
MODEL 7
REMARK VINA RESULT:      -5.0      2.808      4.383
REMARK  3 active torsions:
REMARK  status: ('A' for Active; 'I' for Inactive)
REMARK    1  A    between atoms: O_1  and  C_2 
REMARK    2  A    between atoms: O_1  and  C_4 
REMARK    3  A    between atoms: C_3  and  O_9 
ROOT
HETATM    1  C   UNL     1      62.350   9.185   3.215  1.00  0.00     0.076 A 
HETATM    2  C   UNL     1      63.186  10.736   5.369  1.00  0.00     0.065 A 
HETATM    3  C   UNL     1      63.311   8.692   4.101  1.00  0.00     0.040 A 
HETATM    4  C   UNL     1      61.861  10.484   3.375  1.00  0.00     0.040 A 
HETATM    5  C   UNL     1      62.279  11.261   4.456  1.00  0.00     0.039 A 
HETATM    6  C   UNL     1      63.711   9.458   5.198  1.00  0.00     0.039 A 
ENDROOT
BRANCH   1   7
HETATM    7  O   UNL     1      61.872   8.497   2.120  1.00  0.00    -0.311 OA
BRANCH   7   8
HETATM    8  C   UNL     1      60.559   8.087   2.080  1.00  0.00     0.076 A 
HETATM    9  C   UNL     1      59.777   8.043   0.921  1.00  0.00     0.037 A 
HETATM   10  C   UNL     1      58.441   7.639   0.993  1.00  0.00     0.003 A 
HETATM   11  C   UNL     1      57.902   7.223   2.210  1.00  0.00     0.000 A 
HETATM   12  C   UNL     1      58.697   7.204   3.354  1.00  0.00     0.003 A 
HETATM   13  C   UNL     1      60.024   7.634   3.287  1.00  0.00     0.037 A 
ENDBRANCH   7   8
ENDBRANCH   1   7
BRANCH   2  14
HETATM   14  O   UNL     1      63.544  11.514   6.429  1.00  0.00    -0.361 OA
HETATM   15  H   UNL     1      64.364  11.968   6.420  1.00  0.00     0.217 HD
ENDBRANCH   2  14
TORSDOF 3
ENDMDL
MODEL 8
REMARK VINA RESULT:      -4.9      1.427      1.870
REMARK  3 active torsions:
REMARK  status: ('A' for Active; 'I' for Inactive)
REMARK    1  A    between atoms: O_1  and  C_2 
REMARK    2  A    between atoms: O_1  and  C_4 
REMARK    3  A    between atoms: C_3  and  O_9 
ROOT
HETATM    1  C   UNL     1      63.766   7.988   5.469  1.00  0.00     0.076 A 
HETATM    2  C   UNL     1      66.066   6.721   6.393  1.00  0.00     0.065 A 
HETATM    3  C   UNL     1      63.665   6.807   6.211  1.00  0.00     0.040 A 
HETATM    4  C   UNL     1      65.026   8.492   5.135  1.00  0.00     0.040 A 
HETATM    5  C   UNL     1      66.178   7.858   5.599  1.00  0.00     0.039 A 
HETATM    6  C   UNL     1      64.817   6.186   6.698  1.00  0.00     0.039 A 
ENDROOT
BRANCH   1   7
HETATM    7  O   UNL     1      62.690   8.688   4.968  1.00  0.00    -0.311 OA
BRANCH   7   8
HETATM    8  C   UNL     1      62.497   8.780   3.609  1.00  0.00     0.076 A 
HETATM    9  C   UNL     1      62.595   7.704   2.719  1.00  0.00     0.037 A 
HETATM   10  C   UNL     1      62.410   7.909   1.350  1.00  0.00     0.003 A 
HETATM   11  C   UNL     1      62.070   9.175   0.873  1.00  0.00     0.000 A 
HETATM   12  C   UNL     1      61.908  10.235   1.763  1.00  0.00     0.003 A 
HETATM   13  C   UNL     1      62.120  10.035   3.129  1.00  0.00     0.037 A 
ENDBRANCH   7   8
ENDBRANCH   1   7
BRANCH   2  14
HETATM   14  O   UNL     1      67.214   6.150   6.853  1.00  0.00    -0.361 OA
HETATM   15  H   UNL     1      67.966   6.097   6.296  1.00  0.00     0.217 HD
ENDBRANCH   2  14
TORSDOF 3
ENDMDL
MODEL 9
REMARK VINA RESULT:      -4.5      2.490      6.009
REMARK  3 active torsions:
REMARK  status: ('A' for Active; 'I' for Inactive)
REMARK    1  A    between atoms: O_1  and  C_2 
REMARK    2  A    between atoms: O_1  and  C_4 
REMARK    3  A    between atoms: C_3  and  O_9 
ROOT
HETATM    1  C   UNL     1      63.137   7.794   5.820  1.00  0.00     0.076 A 
HETATM    2  C   UNL     1      61.555   8.550   3.658  1.00  0.00     0.065 A 
HETATM    3  C   UNL     1      63.467   8.929   5.074  1.00  0.00     0.040 A 
HETATM    4  C   UNL     1      62.051   7.003   5.435  1.00  0.00     0.040 A 
HETATM    5  C   UNL     1      61.258   7.383   4.352  1.00  0.00     0.039 A 
HETATM    6  C   UNL     1      62.659   9.325   4.006  1.00  0.00     0.039 A 
ENDROOT
BRANCH   1   7
HETATM    7  O   UNL     1      63.854   7.338   6.905  1.00  0.00    -0.311 OA
BRANCH   7   8
HETATM    8  C   UNL     1      65.083   6.746   6.721  1.00  0.00     0.076 A 
HETATM    9  C   UNL     1      66.301   7.434   6.708  1.00  0.00     0.037 A 
HETATM   10  C   UNL     1      67.494   6.742   6.484  1.00  0.00     0.003 A 
HETATM   11  C   UNL     1      67.479   5.356   6.329  1.00  0.00     0.000 A 
HETATM   12  C   UNL     1      66.274   4.660   6.405  1.00  0.00     0.003 A 
HETATM   13  C   UNL     1      65.079   5.355   6.602  1.00  0.00     0.037 A 
ENDBRANCH   7   8
ENDBRANCH   1   7
BRANCH   2  14
HETATM   14  O   UNL     1      60.738   8.904   2.628  1.00  0.00    -0.361 OA
HETATM   15  H   UNL     1      61.088   8.999   1.764  1.00  0.00     0.217 HD
ENDBRANCH   2  14
TORSDOF 3
ENDMDL
