MODEL 1
REMARK VINA RESULT:      -4.7      0.000      0.000
REMARK  4 active torsions:
REMARK  status: ('A' for Active; 'I' for Inactive)
REMARK    1  A    between atoms: C_1  and  C_3 
REMARK    2  A    between atoms: C_3  and  C_10 
REMARK    3  A    between atoms: C_4  and  C_11 
REMARK    4  A    between atoms: C_10  and  C_11 
ROOT
HETATM    1  C   UNL     1      62.161  10.298   4.004  1.00  0.00     0.166 C 
HETATM    2  O   UNL     1      61.850  11.490   4.075  1.00  0.00    -0.292 OA
ENDROOT
BRANCH   1   3
HETATM    3  C   UNL     1      61.703   9.453   2.906  1.00  0.00     0.050 A 
HETATM    4  S   UNL     1      60.697   8.089   3.152  1.00  0.00    -0.098 SA
HETATM    5  C   UNL     1      60.691   7.700   1.487  1.00  0.00     0.050 A 
HETATM    6  C   UNL     1      61.435   8.591   0.748  1.00  0.00     0.009 A 
HETATM    7  C   UNL     1      62.023   9.598   1.568  1.00  0.00     0.023 A 
ENDBRANCH   1   3
BRANCH   1   8
HETATM    8  C   UNL     1      63.060   9.682   5.071  1.00  0.00     0.095 C 
BRANCH   8   9
HETATM    9  C   UNL     1      64.010   8.639   4.490  1.00  0.00     0.121 C 
BRANCH   9  10
HETATM   10  C   UNL     1      65.124   8.317   5.450  1.00  0.00     0.172 C 
HETATM   11  O   UNL     1      66.304   8.591   5.322  1.00  0.00    -0.648 OA
HETATM   12  O   UNL     1      64.675   7.695   6.556  1.00  0.00    -0.648 OA
ENDBRANCH   9  10
ENDBRANCH   8   9
ENDBRANCH   1   8
TORSDOF 4
ENDMDL
MODEL 2
REMARK VINA RESULT:      -4.6      3.180      5.587
REMARK  4 active torsions:
REMARK  status: ('A' for Active; 'I' for Inactive)
REMARK    1  A    between atoms: C_1  and  C_3 
REMARK    2  A    between atoms: C_3  and  C_10 
REMARK    3  A    between atoms: C_4  and  C_11 
REMARK    4  A    between atoms: C_10  and  C_11 
ROOT
HETATM    1  C   UNL     1      64.292   7.736   5.979  1.00  0.00     0.166 C 
HETATM    2  O   UNL     1      63.304   7.535   6.690  1.00  0.00    -0.292 OA
ENDROOT
BRANCH   1   3
HETATM    3  C   UNL     1      65.543   7.012   6.185  1.00  0.00     0.050 A 
HETATM    4  S   UNL     1      66.096   6.557   7.741  1.00  0.00    -0.098 SA
HETATM    5  C   UNL     1      67.523   5.859   7.110  1.00  0.00     0.050 A 
HETATM    6  C   UNL     1      67.585   5.963   5.739  1.00  0.00     0.009 A 
HETATM    7  C   UNL     1      66.445   6.633   5.207  1.00  0.00     0.023 A 
ENDBRANCH   1   3
BRANCH   1   8
HETATM    8  C   UNL     1      64.216   8.747   4.839  1.00  0.00     0.095 C 
BRANCH   8   9
HETATM    9  C   UNL     1      62.828   9.367   4.712  1.00  0.00     0.121 C 
BRANCH   9  10
HETATM   10  C   UNL     1      62.806  10.776   5.242  1.00  0.00     0.172 C 
HETATM   11  O   UNL     1      63.419  11.207   6.203  1.00  0.00    -0.648 OA
HETATM   12  O   UNL     1      62.033  11.585   4.494  1.00  0.00    -0.648 OA
ENDBRANCH   9  10
ENDBRANCH   8   9
ENDBRANCH   1   8
TORSDOF 4
ENDMDL
MODEL 3
REMARK VINA RESULT:      -4.5      2.494      5.236
REMARK  4 active torsions:
REMARK  status: ('A' for Active; 'I' for Inactive)
REMARK    1  A    between atoms: C_1  and  C_3 
REMARK    2  A    between atoms: C_3  and  C_10 
REMARK    3  A    between atoms: C_4  and  C_11 
REMARK    4  A    between atoms: C_10  and  C_11 
ROOT
HETATM    1  C   UNL     1      64.653   8.830   5.037  1.00  0.00     0.166 C 
HETATM    2  O   UNL     1      64.625   9.789   5.812  1.00  0.00    -0.292 OA
ENDROOT
BRANCH   1   3
HETATM    3  C   UNL     1      65.746   7.863   5.058  1.00  0.00     0.050 A 
HETATM    4  S   UNL     1      65.783   6.494   4.029  1.00  0.00    -0.098 SA
HETATM    5  C   UNL     1      67.257   5.940   4.696  1.00  0.00     0.050 A 
HETATM    6  C   UNL     1      67.722   6.779   5.683  1.00  0.00     0.009 A 
HETATM    7  C   UNL     1      66.847   7.884   5.895  1.00  0.00     0.023 A 
ENDBRANCH   1   3
BRANCH   1   8
HETATM    8  C   UNL     1      63.517   8.623   4.041  1.00  0.00     0.095 C 
BRANCH   8   9
HETATM    9  C   UNL     1      62.257   9.387   4.437  1.00  0.00     0.121 C 
BRANCH   9  10
HETATM   10  C   UNL     1      62.060  10.605   3.575  1.00  0.00     0.172 C 
HETATM   11  O   UNL     1      61.985  10.638   2.359  1.00  0.00    -0.648 OA
HETATM   12  O   UNL     1      61.922  11.726   4.307  1.00  0.00    -0.648 OA
ENDBRANCH   9  10
ENDBRANCH   8   9
ENDBRANCH   1   8
TORSDOF 4
ENDMDL
MODEL 4
REMARK VINA RESULT:      -4.4      2.197      3.036
REMARK  4 active torsions:
REMARK  status: ('A' for Active; 'I' for Inactive)
REMARK    1  A    between atoms: C_1  and  C_3 
REMARK    2  A    between atoms: C_3  and  C_10 
REMARK    3  A    between atoms: C_4  and  C_11 
REMARK    4  A    between atoms: C_10  and  C_11 
ROOT
HETATM    1  C   UNL     1      63.374   8.237   5.580  1.00  0.00     0.166 C 
HETATM    2  O   UNL     1      62.843   7.930   6.650  1.00  0.00    -0.292 OA
ENDROOT
BRANCH   1   3
HETATM    3  C   UNL     1      62.815   9.273   4.718  1.00  0.00     0.050 A 
HETATM    4  S   UNL     1      62.351   8.971   3.098  1.00  0.00    -0.098 SA
HETATM    5  C   UNL     1      61.888  10.598   2.849  1.00  0.00     0.050 A 
HETATM    6  C   UNL     1      62.077  11.365   3.976  1.00  0.00     0.009 A 
HETATM    7  C   UNL     1      62.617  10.601   5.051  1.00  0.00     0.023 A 
ENDBRANCH   1   3
BRANCH   1   8
HETATM    8  C   UNL     1      64.658   7.540   5.141  1.00  0.00     0.095 C 
BRANCH   8   9
HETATM    9  C   UNL     1      65.325   6.787   6.288  1.00  0.00     0.121 C 
BRANCH   9  10
HETATM   10  C   UNL     1      66.406   7.614   6.932  1.00  0.00     0.172 C 
HETATM   11  O   UNL     1      66.625   8.800   6.755  1.00  0.00    -0.648 OA
HETATM   12  O   UNL     1      67.134   6.900   7.810  1.00  0.00    -0.648 OA
ENDBRANCH   9  10
ENDBRANCH   8   9
ENDBRANCH   1   8
TORSDOF 4
ENDMDL
MODEL 5
REMARK VINA RESULT:      -4.3      4.057      6.509
REMARK  4 active torsions:
REMARK  status: ('A' for Active; 'I' for Inactive)
REMARK    1  A    between atoms: C_1  and  C_3 
REMARK    2  A    between atoms: C_3  and  C_10 
REMARK    3  A    between atoms: C_4  and  C_11 
REMARK    4  A    between atoms: C_10  and  C_11 
ROOT
HETATM    1  C   UNL     1      66.441   8.004   6.459  1.00  0.00     0.166 C 
HETATM    2  O   UNL     1      66.575   9.129   6.948  1.00  0.00    -0.292 OA
ENDROOT
BRANCH   1   3
HETATM    3  C   UNL     1      66.950   6.813   7.132  1.00  0.00     0.050 A 
HETATM    4  S   UNL     1      66.697   6.520   8.800  1.00  0.00    -0.098 SA
HETATM    5  C   UNL     1      67.588   5.062   8.754  1.00  0.00     0.050 A 
HETATM    6  C   UNL     1      68.071   4.793   7.494  1.00  0.00     0.009 A 
HETATM    7  C   UNL     1      67.707   5.806   6.561  1.00  0.00     0.023 A 
ENDBRANCH   1   3
BRANCH   1   8
HETATM    8  C   UNL     1      65.712   7.834   5.131  1.00  0.00     0.095 C 
BRANCH   8   9
HETATM    9  C   UNL     1      64.349   8.520   5.130  1.00  0.00     0.121 C 
BRANCH   9  10
HETATM   10  C   UNL     1      63.300   7.654   5.774  1.00  0.00     0.172 C 
HETATM   11  O   UNL     1      62.977   7.645   6.949  1.00  0.00    -0.648 OA
HETATM   12  O   UNL     1      62.676   6.865   4.880  1.00  0.00    -0.648 OA
ENDBRANCH   9  10
ENDBRANCH   8   9
ENDBRANCH   1   8
TORSDOF 4
ENDMDL
MODEL 6
REMARK VINA RESULT:      -4.2      2.322      3.723
REMARK  4 active torsions:
REMARK  status: ('A' for Active; 'I' for Inactive)
REMARK    1  A    between atoms: C_1  and  C_3 
REMARK    2  A    between atoms: C_3  and  C_10 
REMARK    3  A    between atoms: C_4  and  C_11 
REMARK    4  A    between atoms: C_10  and  C_11 
ROOT
HETATM    1  C   UNL     1      64.871   8.272   5.773  1.00  0.00     0.166 C 
HETATM    2  O   UNL     1      65.884   8.923   6.044  1.00  0.00    -0.292 OA
ENDROOT
BRANCH   1   3
HETATM    3  C   UNL     1      63.857   8.783   4.857  1.00  0.00     0.050 A 
HETATM    4  S   UNL     1      62.999  10.235   5.151  1.00  0.00    -0.098 SA
HETATM    5  C   UNL     1      62.070  10.062   3.726  1.00  0.00     0.050 A 
HETATM    6  C   UNL     1      62.404   8.923   3.030  1.00  0.00     0.009 A 
HETATM    7  C   UNL     1      63.430   8.183   3.686  1.00  0.00     0.023 A 
ENDBRANCH   1   3
BRANCH   1   8
HETATM    8  C   UNL     1      64.669   6.891   6.387  1.00  0.00     0.095 C 
BRANCH   8   9
HETATM    9  C   UNL     1      65.987   6.147   6.579  1.00  0.00     0.121 C 
BRANCH   9  10
HETATM   10  C   UNL     1      66.275   5.908   8.036  1.00  0.00     0.172 C 
HETATM   11  O   UNL     1      66.052   4.891   8.671  1.00  0.00    -0.648 OA
HETATM   12  O   UNL     1      66.878   6.964   8.613  1.00  0.00    -0.648 OA
ENDBRANCH   9  10
ENDBRANCH   8   9
ENDBRANCH   1   8
TORSDOF 4
ENDMDL
MODEL 7
REMARK VINA RESULT:      -4.1      3.120      5.146
REMARK  4 active torsions:
REMARK  status: ('A' for Active; 'I' for Inactive)
REMARK    1  A    between atoms: C_1  and  C_3 
REMARK    2  A    between atoms: C_3  and  C_10 
REMARK    3  A    between atoms: C_4  and  C_11 
REMARK    4  A    between atoms: C_10  and  C_11 
ROOT
HETATM    1  C   UNL     1      65.091   8.163   5.460  1.00  0.00     0.166 C 
HETATM    2  O   UNL     1      66.047   8.860   5.809  1.00  0.00    -0.292 OA
ENDROOT
BRANCH   1   3
HETATM    3  C   UNL     1      64.934   6.791   5.932  1.00  0.00     0.050 A 
HETATM    4  S   UNL     1      65.749   6.194   7.314  1.00  0.00    -0.098 SA
HETATM    5  C   UNL     1      65.080   4.632   7.126  1.00  0.00     0.050 A 
HETATM    6  C   UNL     1      64.245   4.558   6.034  1.00  0.00     0.009 A 
HETATM    7  C   UNL     1      64.166   5.802   5.344  1.00  0.00     0.023 A 
ENDBRANCH   1   3
BRANCH   1   8
HETATM    8  C   UNL     1      64.029   8.739   4.530  1.00  0.00     0.095 C 
BRANCH   8   9
HETATM    9  C   UNL     1      62.820   9.269   5.294  1.00  0.00     0.121 C 
BRANCH   9  10
HETATM   10  C   UNL     1      62.813  10.774   5.335  1.00  0.00     0.172 C 
HETATM   11  O   UNL     1      62.168  11.524   4.624  1.00  0.00    -0.648 OA
HETATM   12  O   UNL     1      63.600  11.256   6.315  1.00  0.00    -0.648 OA
ENDBRANCH   9  10
ENDBRANCH   8   9
ENDBRANCH   1   8
TORSDOF 4
ENDMDL
MODEL 8
REMARK VINA RESULT:      -4.1      1.908      2.428
REMARK  4 active torsions:
REMARK  status: ('A' for Active; 'I' for Inactive)
REMARK    1  A    between atoms: C_1  and  C_3 
REMARK    2  A    between atoms: C_3  and  C_10 
REMARK    3  A    between atoms: C_4  and  C_11 
REMARK    4  A    between atoms: C_10  and  C_11 
ROOT
HETATM    1  C   UNL     1      62.752   7.808   4.473  1.00  0.00     0.166 C 
HETATM    2  O   UNL     1      61.909   7.463   5.305  1.00  0.00    -0.292 OA
ENDROOT
BRANCH   1   3
HETATM    3  C   UNL     1      62.442   8.776   3.426  1.00  0.00     0.050 A 
HETATM    4  S   UNL     1      62.030  10.403   3.771  1.00  0.00    -0.098 SA
HETATM    5  C   UNL     1      61.803  10.773   2.117  1.00  0.00     0.050 A 
HETATM    6  C   UNL     1      62.039   9.684   1.309  1.00  0.00     0.009 A 
HETATM    7  C   UNL     1      62.401   8.532   2.065  1.00  0.00     0.023 A 
ENDBRANCH   1   3
BRANCH   1   8
HETATM    8  C   UNL     1      64.163   7.232   4.537  1.00  0.00     0.095 C 
BRANCH   8   9
HETATM    9  C   UNL     1      65.202   8.293   4.884  1.00  0.00     0.121 C 
BRANCH   9  10
HETATM   10  C   UNL     1      65.932   7.951   6.155  1.00  0.00     0.172 C 
HETATM   11  O   UNL     1      65.477   7.381   7.132  1.00  0.00    -0.648 OA
HETATM   12  O   UNL     1      67.227   8.314   6.108  1.00  0.00    -0.648 OA
ENDBRANCH   9  10
ENDBRANCH   8   9
ENDBRANCH   1   8
TORSDOF 4
ENDMDL
MODEL 9
REMARK VINA RESULT:      -3.8      3.778      6.664
REMARK  4 active torsions:
REMARK  status: ('A' for Active; 'I' for Inactive)
REMARK    1  A    between atoms: C_1  and  C_3 
REMARK    2  A    between atoms: C_3  and  C_10 
REMARK    3  A    between atoms: C_4  and  C_11 
REMARK    4  A    between atoms: C_10  and  C_11 
ROOT
HETATM    1  C   UNL     1      65.121   6.211   6.390  1.00  0.00     0.166 C 
HETATM    2  O   UNL     1      63.956   5.829   6.523  1.00  0.00    -0.292 OA
ENDROOT
BRANCH   1   3
HETATM    3  C   UNL     1      66.147   5.897   7.380  1.00  0.00     0.050 A 
HETATM    4  S   UNL     1      66.810   4.328   7.551  1.00  0.00    -0.098 SA
HETATM    5  C   UNL     1      67.810   4.812   8.850  1.00  0.00     0.050 A 
HETATM    6  C   UNL     1      67.651   6.145   9.153  1.00  0.00     0.009 A 
HETATM    7  C   UNL     1      66.687   6.768   8.308  1.00  0.00     0.023 A 
ENDBRANCH   1   3
BRANCH   1   8
HETATM    8  C   UNL     1      65.521   7.016   5.158  1.00  0.00     0.095 C 
BRANCH   8   9
HETATM    9  C   UNL     1      64.324   7.694   4.499  1.00  0.00     0.121 C 
BRANCH   9  10
HETATM   10  C   UNL     1      64.053   9.043   5.110  1.00  0.00     0.172 C 
HETATM   11  O   UNL     1      63.004   9.662   5.084  1.00  0.00    -0.648 OA
HETATM   12  O   UNL     1      65.125   9.526   5.765  1.00  0.00    -0.648 OA
ENDBRANCH   9  10
ENDBRANCH   8   9
ENDBRANCH   1   8
TORSDOF 4
ENDMDL
