MODEL 1
REMARK VINA RESULT:      -6.4      0.000      0.000
REMARK  1 active torsions:
REMARK  status: ('A' for Active; 'I' for Inactive)
REMARK    1  A    between atoms: C_6  and  C_7 
REMARK       I    between atoms: C_7  and  N_10 
ROOT
HETATM    1  C   UNL     1      63.056   7.646   3.690  1.00  0.00     0.005 A 
HETATM    2  C   UNL     1      62.980   7.053   2.402  1.00  0.00     0.027 A 
HETATM    3  C   UNL     1      62.544   8.072   1.428  1.00  0.00     0.194 A 
HETATM    4  C   UNL     1      62.652   9.052   3.537  1.00  0.00    -0.010 A 
HETATM    5  C   UNL     1      62.335   9.307   2.186  1.00  0.00     0.026 A 
HETATM    6  C   UNL     1      63.428   6.820   4.759  1.00  0.00     0.043 A 
HETATM    7  O   UNL     1      62.373   7.905   0.238  1.00  0.00    -0.287 OA
HETATM    8  C   UNL     1      63.239   5.724   2.117  1.00  0.00     0.016 A 
HETATM    9  C   UNL     1      62.500  10.104   4.427  1.00  0.00     0.013 A 
HETATM   10  C   UNL     1      61.880  10.522   1.695  1.00  0.00     0.016 A 
HETATM   11  C   UNL     1      63.692   5.453   4.482  1.00  0.00     0.018 A 
HETATM   12  C   UNL     1      63.596   4.915   3.182  1.00  0.00     0.002 A 
HETATM   13  C   UNL     1      62.043  11.352   3.960  1.00  0.00     0.001 A 
HETATM   14  C   UNL     1      61.730  11.560   2.609  1.00  0.00     0.001 A 
ENDROOT
BRANCH   6  15
HETATM   15  C   UNL     1      63.616   7.305   6.160  1.00  0.00     0.250 C 
HETATM   16  O   UNL     1      62.675   7.589   6.893  1.00  0.00    -0.268 OA
HETATM   17  N   UNL     1      64.886   7.483   6.638  1.00  0.00    -0.366 N 
HETATM   18  H   UNL     1      65.660   7.263   6.070  1.00  0.00     0.159 HD
HETATM   19  H   UNL     1      65.026   7.829   7.548  1.00  0.00     0.159 HD
ENDBRANCH   6  15
TORSDOF 1
ENDMDL
MODEL 2
REMARK VINA RESULT:      -6.3      1.448      3.940
REMARK  1 active torsions:
REMARK  status: ('A' for Active; 'I' for Inactive)
REMARK    1  A    between atoms: C_6  and  C_7 
REMARK       I    between atoms: C_7  and  N_10 
ROOT
HETATM    1  C   UNL     1      63.248   8.552   3.663  1.00  0.00     0.005 A 
HETATM    2  C   UNL     1      62.324   9.294   2.883  1.00  0.00     0.027 A 
HETATM    3  C   UNL     1      62.032   8.550   1.643  1.00  0.00     0.194 A 
HETATM    4  C   UNL     1      63.559   7.328   2.908  1.00  0.00    -0.010 A 
HETATM    5  C   UNL     1      62.840   7.329   1.694  1.00  0.00     0.026 A 
HETATM    6  C   UNL     1      63.671   9.117   4.873  1.00  0.00     0.043 A 
HETATM    7  O   UNL     1      61.287   8.897   0.751  1.00  0.00    -0.287 OA
HETATM    8  C   UNL     1      61.810  10.535   3.217  1.00  0.00     0.016 A 
HETATM    9  C   UNL     1      64.402   6.252   3.138  1.00  0.00     0.013 A 
HETATM   10  C   UNL     1      62.926   6.342   0.722  1.00  0.00     0.016 A 
HETATM   11  C   UNL     1      63.155  10.392   5.227  1.00  0.00     0.018 A 
HETATM   12  C   UNL     1      62.242  11.089   4.410  1.00  0.00     0.002 A 
HETATM   13  C   UNL     1      64.509   5.232   2.173  1.00  0.00     0.001 A 
HETATM   14  C   UNL     1      63.784   5.277   0.973  1.00  0.00     0.001 A 
ENDROOT
BRANCH   6  15
HETATM   15  C   UNL     1      64.587   8.435   5.837  1.00  0.00     0.250 C 
HETATM   16  O   UNL     1      65.759   8.766   5.982  1.00  0.00    -0.268 OA
HETATM   17  N   UNL     1      64.120   7.371   6.559  1.00  0.00    -0.366 N 
HETATM   18  H   UNL     1      63.183   7.084   6.463  1.00  0.00     0.159 HD
HETATM   19  H   UNL     1      64.720   6.894   7.177  1.00  0.00     0.159 HD
ENDBRANCH   6  15
TORSDOF 1
ENDMDL
MODEL 3
REMARK VINA RESULT:      -6.3      2.148      5.425
REMARK  1 active torsions:
REMARK  status: ('A' for Active; 'I' for Inactive)
REMARK    1  A    between atoms: C_6  and  C_7 
REMARK       I    between atoms: C_7  and  N_10 
ROOT
HETATM    1  C   UNL     1      63.161   8.645   3.500  1.00  0.00     0.005 A 
HETATM    2  C   UNL     1      63.666   9.128   4.735  1.00  0.00     0.027 A 
HETATM    3  C   UNL     1      64.608   8.137   5.291  1.00  0.00     0.194 A 
HETATM    4  C   UNL     1      63.775   7.327   3.273  1.00  0.00    -0.010 A 
HETATM    5  C   UNL     1      64.633   7.017   4.348  1.00  0.00     0.026 A 
HETATM    6  C   UNL     1      62.223   9.442   2.831  1.00  0.00     0.043 A 
HETATM    7  O   UNL     1      65.218   8.230   6.336  1.00  0.00    -0.287 OA
HETATM    8  C   UNL     1      63.305  10.322   5.336  1.00  0.00     0.016 A 
HETATM    9  C   UNL     1      63.649   6.374   2.274  1.00  0.00     0.013 A 
HETATM   10  C   UNL     1      65.345   5.833   4.477  1.00  0.00     0.016 A 
HETATM   11  C   UNL     1      61.838  10.667   3.438  1.00  0.00     0.018 A 
HETATM   12  C   UNL     1      62.370  11.096   4.671  1.00  0.00     0.002 A 
HETATM   13  C   UNL     1      64.361   5.163   2.373  1.00  0.00     0.001 A 
HETATM   14  C   UNL     1      65.197   4.891   3.466  1.00  0.00     0.001 A 
ENDROOT
BRANCH   6  15
HETATM   15  C   UNL     1      61.646   9.106   1.494  1.00  0.00     0.250 C 
HETATM   16  O   UNL     1      62.314   9.115   0.465  1.00  0.00    -0.268 OA
HETATM   17  N   UNL     1      60.312   8.816   1.398  1.00  0.00    -0.366 N 
HETATM   18  H   UNL     1      59.753   8.802   2.209  1.00  0.00     0.159 HD
HETATM   19  H   UNL     1      59.912   8.621   0.520  1.00  0.00     0.159 HD
ENDBRANCH   6  15
TORSDOF 1
ENDMDL
MODEL 4
REMARK VINA RESULT:      -5.8      2.563      4.245
REMARK  1 active torsions:
REMARK  status: ('A' for Active; 'I' for Inactive)
REMARK    1  A    between atoms: C_6  and  C_7 
REMARK       I    between atoms: C_7  and  N_10 
ROOT
HETATM    1  C   UNL     1      62.874   8.118   2.585  1.00  0.00     0.005 A 
HETATM    2  C   UNL     1      62.955   6.941   1.796  1.00  0.00     0.027 A 
HETATM    3  C   UNL     1      63.970   6.041   2.376  1.00  0.00     0.194 A 
HETATM    4  C   UNL     1      63.856   7.973   3.671  1.00  0.00    -0.010 A 
HETATM    5  C   UNL     1      64.520   6.736   3.542  1.00  0.00     0.026 A 
HETATM    6  C   UNL     1      61.977   9.112   2.171  1.00  0.00     0.043 A 
HETATM    7  O   UNL     1      64.295   4.952   1.952  1.00  0.00    -0.287 OA
HETATM    8  C   UNL     1      62.223   6.696   0.647  1.00  0.00     0.016 A 
HETATM    9  C   UNL     1      64.251   8.793   4.717  1.00  0.00     0.013 A 
HETATM   10  C   UNL     1      65.537   6.292   4.376  1.00  0.00     0.016 A 
HETATM   11  C   UNL     1      61.223   8.876   0.991  1.00  0.00     0.018 A 
HETATM   12  C   UNL     1      61.348   7.689   0.242  1.00  0.00     0.002 A 
HETATM   13  C   UNL     1      65.278   8.371   5.584  1.00  0.00     0.001 A 
HETATM   14  C   UNL     1      65.919   7.135   5.414  1.00  0.00     0.001 A 
ENDROOT
BRANCH   6  15
HETATM   15  C   UNL     1      61.728  10.377   2.926  1.00  0.00     0.250 C 
HETATM   16  O   UNL     1      61.480  10.392   4.128  1.00  0.00    -0.268 OA
HETATM   17  N   UNL     1      61.733  11.567   2.251  1.00  0.00    -0.366 N 
HETATM   18  H   UNL     1      61.929  11.584   1.286  1.00  0.00     0.159 HD
HETATM   19  H   UNL     1      61.542  12.406   2.730  1.00  0.00     0.159 HD
ENDBRANCH   6  15
TORSDOF 1
ENDMDL
MODEL 5
REMARK VINA RESULT:      -5.6      2.670      5.404
REMARK  1 active torsions:
REMARK  status: ('A' for Active; 'I' for Inactive)
REMARK    1  A    between atoms: C_6  and  C_7 
REMARK       I    between atoms: C_7  and  N_10 
ROOT
HETATM    1  C   UNL     1      63.786   7.646   3.567  1.00  0.00     0.005 A 
HETATM    2  C   UNL     1      63.951   8.675   4.530  1.00  0.00     0.027 A 
HETATM    3  C   UNL     1      65.202   8.441   5.277  1.00  0.00     0.194 A 
HETATM    4  C   UNL     1      64.936   6.739   3.709  1.00  0.00    -0.010 A 
HETATM    5  C   UNL     1      65.779   7.207   4.739  1.00  0.00     0.026 A 
HETATM    6  C   UNL     1      62.631   7.683   2.775  1.00  0.00     0.043 A 
HETATM    7  O   UNL     1      65.646   9.127   6.173  1.00  0.00    -0.287 OA
HETATM    8  C   UNL     1      63.061   9.711   4.755  1.00  0.00     0.016 A 
HETATM    9  C   UNL     1      65.306   5.561   3.081  1.00  0.00     0.013 A 
HETATM   10  C   UNL     1      66.936   6.570   5.165  1.00  0.00     0.016 A 
HETATM   11  C   UNL     1      61.706   8.737   2.998  1.00  0.00     0.018 A 
HETATM   12  C   UNL     1      61.918   9.732   3.974  1.00  0.00     0.002 A 
HETATM   13  C   UNL     1      66.477   4.892   3.487  1.00  0.00     0.001 A 
HETATM   14  C   UNL     1      67.283   5.387   4.523  1.00  0.00     0.001 A 
ENDROOT
BRANCH   6  15
HETATM   15  C   UNL     1      62.342   6.713   1.676  1.00  0.00     0.250 C 
HETATM   16  O   UNL     1      61.758   5.651   1.868  1.00  0.00    -0.268 OA
HETATM   17  N   UNL     1      62.781   6.992   0.410  1.00  0.00    -0.366 N 
HETATM   18  H   UNL     1      63.252   7.836   0.228  1.00  0.00     0.159 HD
HETATM   19  H   UNL     1      62.623   6.348  -0.318  1.00  0.00     0.159 HD
ENDBRANCH   6  15
TORSDOF 1
ENDMDL
MODEL 6
REMARK VINA RESULT:      -5.5      2.081      5.327
REMARK  1 active torsions:
REMARK  status: ('A' for Active; 'I' for Inactive)
REMARK    1  A    between atoms: C_6  and  C_7 
REMARK       I    between atoms: C_7  and  N_10 
ROOT
HETATM    1  C   UNL     1      62.243   9.075   3.107  1.00  0.00     0.005 A 
HETATM    2  C   UNL     1      62.398  10.222   3.929  1.00  0.00     0.027 A 
HETATM    3  C   UNL     1      62.823   9.794   5.276  1.00  0.00     0.194 A 
HETATM    4  C   UNL     1      62.560   7.905   3.940  1.00  0.00    -0.010 A 
HETATM    5  C   UNL     1      62.897   8.332   5.242  1.00  0.00     0.026 A 
HETATM    6  C   UNL     1      61.813   9.281   1.789  1.00  0.00     0.043 A 
HETATM    7  O   UNL     1      63.043  10.516   6.226  1.00  0.00    -0.287 OA
HETATM    8  C   UNL     1      62.154  11.526   3.537  1.00  0.00     0.016 A 
HETATM    9  C   UNL     1      62.555   6.538   3.709  1.00  0.00     0.013 A 
HETATM   10  C   UNL     1      63.213   7.486   6.295  1.00  0.00     0.016 A 
HETATM   11  C   UNL     1      61.554  10.613   1.375  1.00  0.00     0.018 A 
HETATM   12  C   UNL     1      61.719  11.716   2.237  1.00  0.00     0.002 A 
HETATM   13  C   UNL     1      62.875   5.653   4.756  1.00  0.00     0.001 A 
HETATM   14  C   UNL     1      63.196   6.120   6.040  1.00  0.00     0.001 A 
ENDROOT
BRANCH   6  15
HETATM   15  C   UNL     1      61.665   8.187   0.781  1.00  0.00     0.250 C 
HETATM   16  O   UNL     1      60.575   7.712   0.477  1.00  0.00    -0.268 OA
HETATM   17  N   UNL     1      62.786   7.661   0.200  1.00  0.00    -0.366 N 
HETATM   18  H   UNL     1      63.673   8.024   0.426  1.00  0.00     0.159 HD
HETATM   19  H   UNL     1      62.706   6.921  -0.444  1.00  0.00     0.159 HD
ENDBRANCH   6  15
TORSDOF 1
ENDMDL
MODEL 7
REMARK VINA RESULT:      -5.2      5.090      7.392
REMARK  1 active torsions:
REMARK  status: ('A' for Active; 'I' for Inactive)
REMARK    1  A    between atoms: C_6  and  C_7 
REMARK       I    between atoms: C_7  and  N_10 
ROOT
HETATM    1  C   UNL     1      67.258   5.493   6.429  1.00  0.00     0.005 A 
HETATM    2  C   UNL     1      67.538   4.523   7.426  1.00  0.00     0.027 A 
HETATM    3  C   UNL     1      67.804   3.225   6.775  1.00  0.00     0.194 A 
HETATM    4  C   UNL     1      67.334   4.806   5.130  1.00  0.00    -0.010 A 
HETATM    5  C   UNL     1      67.650   3.446   5.336  1.00  0.00     0.026 A 
HETATM    6  C   UNL     1      66.950   6.790   6.860  1.00  0.00     0.043 A 
HETATM    7  O   UNL     1      68.073   2.181   7.331  1.00  0.00    -0.287 OA
HETATM    8  C   UNL     1      67.526   4.752   8.791  1.00  0.00     0.016 A 
HETATM    9  C   UNL     1      67.130   5.213   3.821  1.00  0.00     0.013 A 
HETATM   10  C   UNL     1      67.762   2.499   4.328  1.00  0.00     0.016 A 
HETATM   11  C   UNL     1      66.929   7.038   8.258  1.00  0.00     0.018 A 
HETATM   12  C   UNL     1      67.210   6.034   9.206  1.00  0.00     0.002 A 
HETATM   13  C   UNL     1      67.240   4.276   2.775  1.00  0.00     0.001 A 
HETATM   14  C   UNL     1      67.547   2.930   3.024  1.00  0.00     0.001 A 
ENDROOT
BRANCH   6  15
HETATM   15  C   UNL     1      66.696   7.937   5.936  1.00  0.00     0.250 C 
HETATM   16  O   UNL     1      67.554   8.376   5.176  1.00  0.00    -0.268 OA
HETATM   17  N   UNL     1      65.476   8.555   5.962  1.00  0.00    -0.366 N 
HETATM   18  H   UNL     1      64.770   8.224   6.562  1.00  0.00     0.159 HD
HETATM   19  H   UNL     1      65.304   9.330   5.380  1.00  0.00     0.159 HD
ENDBRANCH   6  15
TORSDOF 1
ENDMDL
MODEL 8
REMARK VINA RESULT:      -5.1      2.757      4.796
REMARK  1 active torsions:
REMARK  status: ('A' for Active; 'I' for Inactive)
REMARK    1  A    between atoms: C_6  and  C_7 
REMARK       I    between atoms: C_7  and  N_10 
ROOT
HETATM    1  C   UNL     1      62.085   7.672   4.667  1.00  0.00     0.005 A 
HETATM    2  C   UNL     1      61.523   6.472   5.176  1.00  0.00     0.027 A 
HETATM    3  C   UNL     1      62.513   5.809   6.046  1.00  0.00     0.194 A 
HETATM    4  C   UNL     1      63.450   7.769   5.207  1.00  0.00    -0.010 A 
HETATM    5  C   UNL     1      63.712   6.650   6.025  1.00  0.00     0.026 A 
HETATM    6  C   UNL     1      61.297   8.431   3.790  1.00  0.00     0.043 A 
HETATM    7  O   UNL     1      62.364   4.762   6.641  1.00  0.00    -0.287 OA
HETATM    8  C   UNL     1      60.263   5.987   4.873  1.00  0.00     0.016 A 
HETATM    9  C   UNL     1      64.478   8.684   5.045  1.00  0.00     0.013 A 
HETATM   10  C   UNL     1      64.919   6.401   6.663  1.00  0.00     0.016 A 
HETATM   11  C   UNL     1      60.004   7.943   3.467  1.00  0.00     0.018 A 
HETATM   12  C   UNL     1      59.499   6.739   3.998  1.00  0.00     0.002 A 
HETATM   13  C   UNL     1      65.715   8.463   5.683  1.00  0.00     0.001 A 
HETATM   14  C   UNL     1      65.937   7.330   6.480  1.00  0.00     0.001 A 
ENDROOT
BRANCH   6  15
HETATM   15  C   UNL     1      61.717   9.748   3.221  1.00  0.00     0.250 C 
HETATM   16  O   UNL     1      61.699  10.786   3.874  1.00  0.00    -0.268 OA
HETATM   17  N   UNL     1      62.098   9.814   1.908  1.00  0.00    -0.366 N 
HETATM   18  H   UNL     1      62.122   8.996   1.361  1.00  0.00     0.159 HD
HETATM   19  H   UNL     1      62.349  10.679   1.512  1.00  0.00     0.159 HD
ENDBRANCH   6  15
TORSDOF 1
ENDMDL
MODEL 9
REMARK VINA RESULT:      -5.0      3.340      4.974
REMARK  1 active torsions:
REMARK  status: ('A' for Active; 'I' for Inactive)
REMARK    1  A    between atoms: C_6  and  C_7 
REMARK       I    between atoms: C_7  and  N_10 
ROOT
HETATM    1  C   UNL     1      65.819   5.820   5.337  1.00  0.00     0.005 A 
HETATM    2  C   UNL     1      66.615   6.611   6.205  1.00  0.00     0.027 A 
HETATM    3  C   UNL     1      66.104   7.996   6.200  1.00  0.00     0.194 A 
HETATM    4  C   UNL     1      64.798   6.711   4.763  1.00  0.00    -0.010 A 
HETATM    5  C   UNL     1      64.973   8.015   5.270  1.00  0.00     0.026 A 
HETATM    6  C   UNL     1      66.171   4.472   5.188  1.00  0.00     0.043 A 
HETATM    7  O   UNL     1      66.552   8.932   6.828  1.00  0.00    -0.287 OA
HETATM    8  C   UNL     1      67.716   6.161   6.913  1.00  0.00     0.016 A 
HETATM    9  C   UNL     1      63.777   6.526   3.844  1.00  0.00     0.013 A 
HETATM   10  C   UNL     1      64.207   9.115   4.909  1.00  0.00     0.016 A 
HETATM   11  C   UNL     1      67.301   3.998   5.904  1.00  0.00     0.018 A 
HETATM   12  C   UNL     1      68.061   4.831   6.750  1.00  0.00     0.002 A 
HETATM   13  C   UNL     1      62.978   7.620   3.459  1.00  0.00     0.001 A 
HETATM   14  C   UNL     1      63.194   8.905   3.981  1.00  0.00     0.001 A 
ENDROOT
BRANCH   6  15
HETATM   15  C   UNL     1      65.397   3.495   4.364  1.00  0.00     0.250 C 
HETATM   16  O   UNL     1      65.662   3.265   3.189  1.00  0.00    -0.268 OA
HETATM   17  N   UNL     1      64.323   2.858   4.923  1.00  0.00    -0.366 N 
HETATM   18  H   UNL     1      64.088   3.024   5.864  1.00  0.00     0.159 HD
HETATM   19  H   UNL     1      63.786   2.233   4.384  1.00  0.00     0.159 HD
ENDBRANCH   6  15
TORSDOF 1
ENDMDL
