MODEL 1
REMARK VINA RESULT:      -5.1      0.000      0.000
REMARK  2 active torsions:
REMARK  status: ('A' for Active; 'I' for Inactive)
REMARK    1  A    between atoms: C_1  and  C_3 
REMARK    2  A    between atoms: C_2  and  O_13 
ROOT
HETATM    1  C   UNL     1      62.070   9.226   3.385  1.00  0.00     0.052 C 
HETATM    2  C   UNL     1      60.432   7.472   2.591  1.00  0.00     0.060 C 
HETATM    3  C   UNL     1      60.766   8.470   3.714  1.00  0.00     0.058 C 
HETATM    4  C   UNL     1      61.896   9.968   2.039  1.00  0.00     0.025 C 
HETATM    5  C   UNL     1      63.211   8.191   3.229  1.00  0.00     0.025 C 
HETATM    6  C   UNL     1      61.564   8.972   0.914  1.00  0.00    -0.010 C 
HETATM    7  C   UNL     1      62.885   7.189   2.109  1.00  0.00    -0.010 C 
HETATM    8  C   UNL     1      60.265   8.230   1.262  1.00  0.00     0.042 C 
HETATM    9  C   UNL     1      61.579   6.459   2.453  1.00  0.00     0.042 C 
HETATM   10  C   UNL     1      62.707   7.951   0.785  1.00  0.00     0.009 C 
ENDROOT
BRANCH   1  11
HETATM   11  C   UNL     1      62.407  10.209   4.494  1.00  0.00     0.182 C 
HETATM   12  O   UNL     1      63.025   9.973   5.519  1.00  0.00    -0.647 OA
HETATM   13  O   UNL     1      61.948  11.455   4.260  1.00  0.00    -0.647 OA
ENDBRANCH   1  11
BRANCH   2  14
HETATM   14  O   UNL     1      59.235   6.775   2.905  1.00  0.00    -0.390 OA
HETATM   15  H   UNL     1      58.906   6.325   2.112  1.00  0.00     0.210 HD
ENDBRANCH   2  14
TORSDOF 2
ENDMDL
MODEL 2
REMARK VINA RESULT:      -5.0      1.769      3.007
REMARK  2 active torsions:
REMARK  status: ('A' for Active; 'I' for Inactive)
REMARK    1  A    between atoms: C_1  and  C_3 
REMARK    2  A    between atoms: C_2  and  O_13 
ROOT
HETATM    1  C   UNL     1      63.276   7.907   4.795  1.00  0.00     0.052 C 
HETATM    2  C   UNL     1      61.698   9.291   3.387  1.00  0.00     0.060 C 
HETATM    3  C   UNL     1      62.687   9.314   4.565  1.00  0.00     0.058 C 
HETATM    4  C   UNL     1      63.987   7.440   3.504  1.00  0.00     0.025 C 
HETATM    5  C   UNL     1      62.110   6.931   5.092  1.00  0.00     0.025 C 
HETATM    6  C   UNL     1      62.999   7.414   2.324  1.00  0.00    -0.010 C 
HETATM    7  C   UNL     1      61.116   6.902   3.919  1.00  0.00    -0.010 C 
HETATM    8  C   UNL     1      62.424   8.823   2.113  1.00  0.00     0.042 C 
HETATM    9  C   UNL     1      60.554   8.314   3.702  1.00  0.00     0.042 C 
HETATM   10  C   UNL     1      61.848   6.445   2.647  1.00  0.00     0.009 C 
ENDROOT
BRANCH   1  11
HETATM   11  C   UNL     1      64.250   7.924   5.962  1.00  0.00     0.182 C 
HETATM   12  O   UNL     1      64.206   7.229   6.963  1.00  0.00    -0.647 OA
HETATM   13  O   UNL     1      65.244   8.824   5.813  1.00  0.00    -0.647 OA
ENDBRANCH   1  11
BRANCH   2  14
HETATM   14  O   UNL     1      61.155  10.588   3.186  1.00  0.00    -0.390 OA
HETATM   15  H   UNL     1      61.787  11.128   2.686  1.00  0.00     0.210 HD
ENDBRANCH   2  14
TORSDOF 2
ENDMDL
MODEL 3
REMARK VINA RESULT:      -5.0      2.019      3.167
REMARK  2 active torsions:
REMARK  status: ('A' for Active; 'I' for Inactive)
REMARK    1  A    between atoms: C_1  and  C_3 
REMARK    2  A    between atoms: C_2  and  O_13 
ROOT
HETATM    1  C   UNL     1      62.187   9.476   3.521  1.00  0.00     0.052 C 
HETATM    2  C   UNL     1      63.470   7.930   5.056  1.00  0.00     0.060 C 
HETATM    3  C   UNL     1      63.179   9.399   4.701  1.00  0.00     0.058 C 
HETATM    4  C   UNL     1      60.881   8.747   3.911  1.00  0.00     0.025 C 
HETATM    5  C   UNL     1      62.812   8.745   2.307  1.00  0.00     0.025 C 
HETATM    6  C   UNL     1      61.169   7.277   4.264  1.00  0.00    -0.010 C 
HETATM    7  C   UNL     1      63.107   7.275   2.653  1.00  0.00    -0.010 C 
HETATM    8  C   UNL     1      62.157   7.222   5.439  1.00  0.00     0.042 C 
HETATM    9  C   UNL     1      64.085   7.224   3.837  1.00  0.00     0.042 C 
HETATM   10  C   UNL     1      61.796   6.576   3.047  1.00  0.00     0.009 C 
ENDROOT
BRANCH   1  11
HETATM   11  C   UNL     1      61.901  10.926   3.164  1.00  0.00     0.182 C 
HETATM   12  O   UNL     1      61.718  11.383   2.048  1.00  0.00    -0.647 OA
HETATM   13  O   UNL     1      61.857  11.740   4.238  1.00  0.00    -0.647 OA
ENDBRANCH   1  11
BRANCH   2  14
HETATM   14  O   UNL     1      64.387   7.867   6.137  1.00  0.00    -0.390 OA
HETATM   15  H   UNL     1      63.966   7.432   6.895  1.00  0.00     0.210 HD
ENDBRANCH   2  14
TORSDOF 2
ENDMDL
MODEL 4
REMARK VINA RESULT:      -5.0      1.299      2.383
REMARK  2 active torsions:
REMARK  status: ('A' for Active; 'I' for Inactive)
REMARK    1  A    between atoms: C_1  and  C_3 
REMARK    2  A    between atoms: C_2  and  O_13 
ROOT
HETATM    1  C   UNL     1      61.980   9.274   3.209  1.00  0.00     0.052 C 
HETATM    2  C   UNL     1      62.839   7.148   2.145  1.00  0.00     0.060 C 
HETATM    3  C   UNL     1      63.138   8.254   3.172  1.00  0.00     0.058 C 
HETATM    4  C   UNL     1      60.671   8.537   3.576  1.00  0.00     0.025 C 
HETATM    5  C   UNL     1      61.818   9.884   1.795  1.00  0.00     0.025 C 
HETATM    6  C   UNL     1      60.369   7.431   2.549  1.00  0.00    -0.010 C 
HETATM    7  C   UNL     1      61.520   8.784   0.761  1.00  0.00    -0.010 C 
HETATM    8  C   UNL     1      61.533   6.428   2.527  1.00  0.00     0.042 C 
HETATM    9  C   UNL     1      62.679   7.776   0.752  1.00  0.00     0.042 C 
HETATM   10  C   UNL     1      60.221   8.060   1.153  1.00  0.00     0.009 C 
ENDROOT
BRANCH   1  11
HETATM   11  C   UNL     1      62.273  10.372   4.218  1.00  0.00     0.182 C 
HETATM   12  O   UNL     1      62.887  10.258   5.266  1.00  0.00    -0.647 OA
HETATM   13  O   UNL     1      61.779  11.573   3.858  1.00  0.00    -0.647 OA
ENDBRANCH   1  11
BRANCH   2  14
HETATM   14  O   UNL     1      63.912   6.218   2.112  1.00  0.00    -0.390 OA
HETATM   15  H   UNL     1      63.670   5.465   1.549  1.00  0.00     0.210 HD
ENDBRANCH   2  14
TORSDOF 2
ENDMDL
MODEL 5
REMARK VINA RESULT:      -4.9      2.352      3.183
REMARK  2 active torsions:
REMARK  status: ('A' for Active; 'I' for Inactive)
REMARK    1  A    between atoms: C_1  and  C_3 
REMARK    2  A    between atoms: C_2  and  O_13 
ROOT
HETATM    1  C   UNL     1      63.345   9.165   5.082  1.00  0.00     0.052 C 
HETATM    2  C   UNL     1      62.631   6.843   5.782  1.00  0.00     0.060 C 
HETATM    3  C   UNL     1      62.529   8.344   6.103  1.00  0.00     0.058 C 
HETATM    4  C   UNL     1      62.806   8.880   3.661  1.00  0.00     0.025 C 
HETATM    5  C   UNL     1      64.821   8.700   5.148  1.00  0.00     0.025 C 
HETATM    6  C   UNL     1      62.909   7.379   3.337  1.00  0.00    -0.010 C 
HETATM    7  C   UNL     1      64.932   7.200   4.829  1.00  0.00    -0.010 C 
HETATM    8  C   UNL     1      62.092   6.581   4.364  1.00  0.00     0.042 C 
HETATM    9  C   UNL     1      64.103   6.407   5.850  1.00  0.00     0.042 C 
HETATM   10  C   UNL     1      64.382   6.941   3.417  1.00  0.00     0.009 C 
ENDROOT
BRANCH   1  11
HETATM   11  C   UNL     1      63.252  10.648   5.399  1.00  0.00     0.182 C 
HETATM   12  O   UNL     1      62.391  11.425   5.020  1.00  0.00    -0.647 OA
HETATM   13  O   UNL     1      64.254  11.089   6.186  1.00  0.00    -0.647 OA
ENDBRANCH   1  11
BRANCH   2  14
HETATM   14  O   UNL     1      61.884   6.095   6.730  1.00  0.00    -0.390 OA
HETATM   15  H   UNL     1      60.942   6.309   6.641  1.00  0.00     0.210 HD
ENDBRANCH   2  14
TORSDOF 2
ENDMDL
MODEL 6
REMARK VINA RESULT:      -4.8      5.094      7.002
REMARK  2 active torsions:
REMARK  status: ('A' for Active; 'I' for Inactive)
REMARK    1  A    between atoms: C_1  and  C_3 
REMARK    2  A    between atoms: C_2  and  O_13 
ROOT
HETATM    1  C   UNL     1      65.987   5.448   6.616  1.00  0.00     0.052 C 
HETATM    2  C   UNL     1      66.592   7.889   6.359  1.00  0.00     0.060 C 
HETATM    3  C   UNL     1      66.347   6.749   7.364  1.00  0.00     0.058 C 
HETATM    4  C   UNL     1      67.144   5.082   5.657  1.00  0.00     0.025 C 
HETATM    5  C   UNL     1      64.714   5.703   5.773  1.00  0.00     0.025 C 
HETATM    6  C   UNL     1      67.388   6.220   4.650  1.00  0.00    -0.010 C 
HETATM    7  C   UNL     1      64.949   6.842   4.767  1.00  0.00    -0.010 C 
HETATM    8  C   UNL     1      67.743   7.505   5.413  1.00  0.00     0.042 C 
HETATM    9  C   UNL     1      65.317   8.121   5.533  1.00  0.00     0.042 C 
HETATM   10  C   UNL     1      66.108   6.459   3.832  1.00  0.00     0.009 C 
ENDROOT
BRANCH   1  11
HETATM   11  C   UNL     1      65.740   4.321   7.605  1.00  0.00     0.182 C 
HETATM   12  O   UNL     1      65.073   3.317   7.419  1.00  0.00    -0.647 OA
HETATM   13  O   UNL     1      66.351   4.510   8.793  1.00  0.00    -0.647 OA
ENDBRANCH   1  11
BRANCH   2  14
HETATM   14  O   UNL     1      66.915   9.084   7.055  1.00  0.00    -0.390 OA
HETATM   15  H   UNL     1      66.210   9.290   7.690  1.00  0.00     0.210 HD
ENDBRANCH   2  14
TORSDOF 2
ENDMDL
MODEL 7
REMARK VINA RESULT:      -4.6      4.093      6.075
REMARK  2 active torsions:
REMARK  status: ('A' for Active; 'I' for Inactive)
REMARK    1  A    between atoms: C_1  and  C_3 
REMARK    2  A    between atoms: C_2  and  O_13 
ROOT
HETATM    1  C   UNL     1      64.991   7.040   4.542  1.00  0.00     0.052 C 
HETATM    2  C   UNL     1      66.506   7.851   6.397  1.00  0.00     0.060 C 
HETATM    3  C   UNL     1      65.440   8.265   5.367  1.00  0.00     0.058 C 
HETATM    4  C   UNL     1      64.424   5.968   5.501  1.00  0.00     0.025 C 
HETATM    5  C   UNL     1      66.230   6.451   3.825  1.00  0.00     0.025 C 
HETATM    6  C   UNL     1      65.489   5.550   6.531  1.00  0.00    -0.010 C 
HETATM    7  C   UNL     1      67.301   6.034   4.848  1.00  0.00    -0.010 C 
HETATM    8  C   UNL     1      65.924   6.782   7.340  1.00  0.00     0.042 C 
HETATM    9  C   UNL     1      67.723   7.265   5.663  1.00  0.00     0.042 C 
HETATM   10  C   UNL     1      66.712   4.976   5.794  1.00  0.00     0.009 C 
ENDROOT
BRANCH   1  11
HETATM   11  C   UNL     1      63.942   7.446   3.520  1.00  0.00     0.182 C 
HETATM   12  O   UNL     1      63.607   6.822   2.527  1.00  0.00    -0.647 OA
HETATM   13  O   UNL     1      63.357   8.629   3.798  1.00  0.00    -0.647 OA
ENDBRANCH   1  11
BRANCH   2  14
HETATM   14  O   UNL     1      66.919   8.983   7.146  1.00  0.00    -0.390 OA
HETATM   15  H   UNL     1      67.106   8.716   8.060  1.00  0.00     0.210 HD
ENDBRANCH   2  14
TORSDOF 2
ENDMDL
MODEL 8
REMARK VINA RESULT:      -4.6      4.602      6.458
REMARK  2 active torsions:
REMARK  status: ('A' for Active; 'I' for Inactive)
REMARK    1  A    between atoms: C_1  and  C_3 
REMARK    2  A    between atoms: C_2  and  O_13 
ROOT
HETATM    1  C   UNL     1      64.910   6.522   5.832  1.00  0.00     0.052 C 
HETATM    2  C   UNL     1      67.263   6.386   6.747  1.00  0.00     0.060 C 
HETATM    3  C   UNL     1      65.799   6.724   7.078  1.00  0.00     0.058 C 
HETATM    4  C   UNL     1      65.030   5.055   5.360  1.00  0.00     0.025 C 
HETATM    5  C   UNL     1      65.432   7.445   4.703  1.00  0.00     0.025 C 
HETATM    6  C   UNL     1      66.494   4.715   5.025  1.00  0.00    -0.010 C 
HETATM    7  C   UNL     1      66.896   7.114   4.366  1.00  0.00    -0.010 C 
HETATM    8  C   UNL     1      67.361   4.923   6.277  1.00  0.00     0.042 C 
HETATM    9  C   UNL     1      67.757   7.310   5.623  1.00  0.00     0.042 C 
HETATM   10  C   UNL     1      66.991   5.650   3.909  1.00  0.00     0.009 C 
ENDROOT
BRANCH   1  11
HETATM   11  C   UNL     1      63.464   6.861   6.154  1.00  0.00     0.182 C 
HETATM   12  O   UNL     1      63.066   7.710   6.933  1.00  0.00    -0.647 OA
HETATM   13  O   UNL     1      62.576   6.109   5.471  1.00  0.00    -0.647 OA
ENDBRANCH   1  11
BRANCH   2  14
HETATM   14  O   UNL     1      68.075   6.581   7.895  1.00  0.00    -0.390 OA
HETATM   15  H   UNL     1      67.661   6.151   8.660  1.00  0.00     0.210 HD
ENDBRANCH   2  14
TORSDOF 2
ENDMDL
MODEL 9
REMARK VINA RESULT:      -4.6      1.784      2.366
REMARK  2 active torsions:
REMARK  status: ('A' for Active; 'I' for Inactive)
REMARK    1  A    between atoms: C_1  and  C_3 
REMARK    2  A    between atoms: C_2  and  O_13 
ROOT
HETATM    1  C   UNL     1      63.322   7.962   4.652  1.00  0.00     0.052 C 
HETATM    2  C   UNL     1      61.143   6.886   3.956  1.00  0.00     0.060 C 
HETATM    3  C   UNL     1      62.136   7.088   5.113  1.00  0.00     0.058 C 
HETATM    4  C   UNL     1      62.783   9.325   4.161  1.00  0.00     0.025 C 
HETATM    5  C   UNL     1      64.019   7.254   3.464  1.00  0.00     0.025 C 
HETATM    6  C   UNL     1      61.791   9.126   3.001  1.00  0.00    -0.010 C 
HETATM    7  C   UNL     1      63.033   7.047   2.302  1.00  0.00    -0.010 C 
HETATM    8  C   UNL     1      60.620   8.254   3.480  1.00  0.00     0.042 C 
HETATM    9  C   UNL     1      61.857   6.187   2.788  1.00  0.00     0.042 C 
HETATM   10  C   UNL     1      62.504   8.414   1.839  1.00  0.00     0.009 C 
ENDROOT
BRANCH   1  11
HETATM   11  C   UNL     1      64.308   8.159   5.792  1.00  0.00     0.182 C 
HETATM   12  O   UNL     1      65.280   8.896   5.799  1.00  0.00    -0.647 OA
HETATM   13  O   UNL     1      64.022   7.416   6.879  1.00  0.00    -0.647 OA
ENDBRANCH   1  11
BRANCH   2  14
HETATM   14  O   UNL     1      60.059   6.076   4.386  1.00  0.00    -0.390 OA
HETATM   15  H   UNL     1      59.554   6.547   5.067  1.00  0.00     0.210 HD
ENDBRANCH   2  14
TORSDOF 2
ENDMDL
