MODEL 1
REMARK VINA RESULT:      -5.6      0.000      0.000
REMARK  3 active torsions:
REMARK  status: ('A' for Active; 'I' for Inactive)
REMARK    1  A    between atoms: C_3  and  C_6 
REMARK    2  A    between atoms: C_6  and  C_10 
REMARK    3  A    between atoms: O_7  and  C_10 
ROOT
HETATM    1  N   UNL     1      61.547  10.681   2.021  1.00  0.00    -0.365 N 
HETATM    2  C   UNL     1      61.875  11.025   3.306  1.00  0.00     0.096 A 
HETATM    3  C   UNL     1      62.525   9.956   3.890  1.00  0.00    -0.028 A 
HETATM    4  C   UNL     1      62.577   8.915   2.905  1.00  0.00    -0.002 A 
HETATM    5  C   UNL     1      61.957   9.395   1.754  1.00  0.00     0.042 A 
HETATM    6  C   UNL     1      63.088   7.600   2.897  1.00  0.00     0.014 A 
HETATM    7  C   UNL     1      61.829   8.631   0.587  1.00  0.00     0.030 A 
HETATM    8  C   UNL     1      62.960   6.819   1.744  1.00  0.00     0.001 A 
HETATM    9  C   UNL     1      62.342   7.329   0.605  1.00  0.00     0.002 A 
HETATM   10  H   UNL     1      61.084  11.269   1.381  1.00  0.00     0.165 HD
ENDROOT
BRANCH   3  11
HETATM   11  C   UNL     1      63.079   9.895   5.283  1.00  0.00     0.067 C 
BRANCH  11  12
HETATM   12  C   UNL     1      63.127  11.258   5.971  1.00  0.00     0.168 C 
BRANCH  12  13
HETATM   13  O   UNL     1      64.426  11.553   6.482  1.00  0.00    -0.401 OA
HETATM   14  H   UNL     1      65.045  10.856   6.211  1.00  0.00     0.209 HD
ENDBRANCH  12  13
ENDBRANCH  11  12
ENDBRANCH   3  11
TORSDOF 3
ENDMDL
MODEL 2
REMARK VINA RESULT:      -5.1      1.417      2.168
REMARK  3 active torsions:
REMARK  status: ('A' for Active; 'I' for Inactive)
REMARK    1  A    between atoms: C_3  and  C_6 
REMARK    2  A    between atoms: C_6  and  C_10 
REMARK    3  A    between atoms: O_7  and  C_10 
ROOT
HETATM    1  N   UNL     1      63.396   7.465   4.277  1.00  0.00    -0.365 N 
HETATM    2  C   UNL     1      63.348   8.556   5.102  1.00  0.00     0.096 A 
HETATM    3  C   UNL     1      62.847   9.623   4.382  1.00  0.00    -0.028 A 
HETATM    4  C   UNL     1      62.595   9.145   3.054  1.00  0.00    -0.002 A 
HETATM    5  C   UNL     1      62.951   7.799   3.018  1.00  0.00     0.042 A 
HETATM    6  C   UNL     1      62.106   9.744   1.874  1.00  0.00     0.014 A 
HETATM    7  C   UNL     1      62.833   7.014   1.864  1.00  0.00     0.030 A 
HETATM    8  C   UNL     1      61.992   8.979   0.709  1.00  0.00     0.001 A 
HETATM    9  C   UNL     1      62.348   7.633   0.707  1.00  0.00     0.002 A 
HETATM   10  H   UNL     1      63.707   6.569   4.545  1.00  0.00     0.165 HD
ENDROOT
BRANCH   3  11
HETATM   11  C   UNL     1      62.604  11.014   4.891  1.00  0.00     0.067 C 
BRANCH  11  12
HETATM   12  C   UNL     1      63.073  11.218   6.330  1.00  0.00     0.168 C 
BRANCH  12  13
HETATM   13  O   UNL     1      64.443  11.610   6.394  1.00  0.00    -0.401 OA
HETATM   14  H   UNL     1      64.884  11.128   7.111  1.00  0.00     0.209 HD
ENDBRANCH  12  13
ENDBRANCH  11  12
ENDBRANCH   3  11
TORSDOF 3
ENDMDL
MODEL 3
REMARK VINA RESULT:      -5.0      1.793      3.178
REMARK  3 active torsions:
REMARK  status: ('A' for Active; 'I' for Inactive)
REMARK    1  A    between atoms: C_3  and  C_6 
REMARK    2  A    between atoms: C_6  and  C_10 
REMARK    3  A    between atoms: O_7  and  C_10 
ROOT
HETATM    1  N   UNL     1      62.818   7.697   1.980  1.00  0.00    -0.365 N 
HETATM    2  C   UNL     1      63.281   7.023   3.078  1.00  0.00     0.096 A 
HETATM    3  C   UNL     1      63.219   7.870   4.167  1.00  0.00    -0.028 A 
HETATM    4  C   UNL     1      62.704   9.120   3.689  1.00  0.00    -0.002 A 
HETATM    5  C   UNL     1      62.467   8.982   2.323  1.00  0.00     0.042 A 
HETATM    6  C   UNL     1      62.428  10.362   4.298  1.00  0.00     0.014 A 
HETATM    7  C   UNL     1      61.959  10.021   1.532  1.00  0.00     0.030 A 
HETATM    8  C   UNL     1      61.930  11.414   3.523  1.00  0.00     0.001 A 
HETATM    9  C   UNL     1      61.696  11.244   2.161  1.00  0.00     0.002 A 
HETATM   10  H   UNL     1      62.748   7.316   1.074  1.00  0.00     0.165 HD
ENDROOT
BRANCH   3  11
HETATM   11  C   UNL     1      63.608   7.547   5.580  1.00  0.00     0.067 C 
BRANCH  11  12
HETATM   12  C   UNL     1      65.103   7.710   5.844  1.00  0.00     0.168 C 
BRANCH  12  13
HETATM   13  O   UNL     1      65.479   9.082   5.953  1.00  0.00    -0.401 OA
HETATM   14  H   UNL     1      65.213   9.422   6.822  1.00  0.00     0.209 HD
ENDBRANCH  12  13
ENDBRANCH  11  12
ENDBRANCH   3  11
TORSDOF 3
ENDMDL
MODEL 4
REMARK VINA RESULT:      -5.0      1.667      2.132
REMARK  3 active torsions:
REMARK  status: ('A' for Active; 'I' for Inactive)
REMARK    1  A    between atoms: C_3  and  C_6 
REMARK    2  A    between atoms: C_6  and  C_10 
REMARK    3  A    between atoms: O_7  and  C_10 
ROOT
HETATM    1  N   UNL     1      62.228  10.828   4.115  1.00  0.00    -0.365 N 
HETATM    2  C   UNL     1      62.870  10.251   5.178  1.00  0.00     0.096 A 
HETATM    3  C   UNL     1      63.294   8.992   4.799  1.00  0.00    -0.028 A 
HETATM    4  C   UNL     1      62.871   8.804   3.443  1.00  0.00    -0.002 A 
HETATM    5  C   UNL     1      62.207   9.962   3.045  1.00  0.00     0.042 A 
HETATM    6  C   UNL     1      62.985   7.743   2.520  1.00  0.00     0.014 A 
HETATM    7  C   UNL     1      61.657  10.121   1.767  1.00  0.00     0.030 A 
HETATM    8  C   UNL     1      62.433   7.879   1.242  1.00  0.00     0.001 A 
HETATM    9  C   UNL     1      61.782   9.052   0.871  1.00  0.00     0.002 A 
HETATM   10  H   UNL     1      61.837  11.732   4.116  1.00  0.00     0.165 HD
ENDROOT
BRANCH   3  11
HETATM   11  C   UNL     1      64.057   8.012   5.641  1.00  0.00     0.067 C 
BRANCH  11  12
HETATM   12  C   UNL     1      65.571   8.111   5.456  1.00  0.00     0.168 C 
BRANCH  12  13
HETATM   13  O   UNL     1      66.184   8.887   6.485  1.00  0.00    -0.401 OA
HETATM   14  H   UNL     1      66.674   9.622   6.086  1.00  0.00     0.209 HD
ENDBRANCH  12  13
ENDBRANCH  11  12
ENDBRANCH   3  11
TORSDOF 3
ENDMDL
MODEL 5
REMARK VINA RESULT:      -4.9      2.543      3.744
REMARK  3 active torsions:
REMARK  status: ('A' for Active; 'I' for Inactive)
REMARK    1  A    between atoms: C_3  and  C_6 
REMARK    2  A    between atoms: C_6  and  C_10 
REMARK    3  A    between atoms: O_7  and  C_10 
ROOT
HETATM    1  N   UNL     1      63.904  10.046   5.760  1.00  0.00    -0.365 N 
HETATM    2  C   UNL     1      62.843  10.594   5.089  1.00  0.00     0.096 A 
HETATM    3  C   UNL     1      62.531   9.772   4.024  1.00  0.00    -0.028 A 
HETATM    4  C   UNL     1      63.464   8.684   4.053  1.00  0.00    -0.002 A 
HETATM    5  C   UNL     1      64.308   8.884   5.143  1.00  0.00     0.042 A 
HETATM    6  C   UNL     1      63.671   7.550   3.240  1.00  0.00     0.014 A 
HETATM    7  C   UNL     1      65.346   8.002   5.470  1.00  0.00     0.030 A 
HETATM    8  C   UNL     1      64.709   6.664   3.544  1.00  0.00     0.001 A 
HETATM    9  C   UNL     1      65.532   6.886   4.645  1.00  0.00     0.002 A 
HETATM   10  H   UNL     1      64.319  10.429   6.567  1.00  0.00     0.165 HD
ENDROOT
BRANCH   3  11
HETATM   11  C   UNL     1      61.425   9.974   3.030  1.00  0.00     0.067 C 
BRANCH  11  12
HETATM   12  C   UNL     1      61.893  10.635   1.734  1.00  0.00     0.168 C 
BRANCH  12  13
HETATM   13  O   UNL     1      62.092  12.038   1.893  1.00  0.00    -0.401 OA
HETATM   14  H   UNL     1      62.301  12.232   2.821  1.00  0.00     0.209 HD
ENDBRANCH  12  13
ENDBRANCH  11  12
ENDBRANCH   3  11
TORSDOF 3
ENDMDL
MODEL 6
REMARK VINA RESULT:      -4.9      2.781      4.881
REMARK  3 active torsions:
REMARK  status: ('A' for Active; 'I' for Inactive)
REMARK    1  A    between atoms: C_3  and  C_6 
REMARK    2  A    between atoms: C_6  and  C_10 
REMARK    3  A    between atoms: O_7  and  C_10 
ROOT
HETATM    1  N   UNL     1      63.460   7.563   3.463  1.00  0.00    -0.365 N 
HETATM    2  C   UNL     1      62.884   7.352   2.239  1.00  0.00     0.096 A 
HETATM    3  C   UNL     1      62.180   8.487   1.889  1.00  0.00    -0.028 A 
HETATM    4  C   UNL     1      62.332   9.419   2.967  1.00  0.00    -0.002 A 
HETATM    5  C   UNL     1      63.132   8.814   3.935  1.00  0.00     0.042 A 
HETATM    6  C   UNL     1      61.851  10.722   3.211  1.00  0.00     0.014 A 
HETATM    7  C   UNL     1      63.485   9.448   5.132  1.00  0.00     0.030 A 
HETATM    8  C   UNL     1      62.184  11.367   4.406  1.00  0.00     0.001 A 
HETATM    9  C   UNL     1      62.992  10.740   5.351  1.00  0.00     0.002 A 
HETATM   10  H   UNL     1      64.027   6.913   3.939  1.00  0.00     0.165 HD
ENDROOT
BRANCH   3  11
HETATM   11  C   UNL     1      61.407   8.708   0.621  1.00  0.00     0.067 C 
BRANCH  11  12
HETATM   12  C   UNL     1      60.091   7.934   0.575  1.00  0.00     0.168 C 
BRANCH  12  13
HETATM   13  O   UNL     1      58.983   8.742   0.969  1.00  0.00    -0.401 OA
HETATM   14  H   UNL     1      59.104   9.030   1.888  1.00  0.00     0.209 HD
ENDBRANCH  12  13
ENDBRANCH  11  12
ENDBRANCH   3  11
TORSDOF 3
ENDMDL
MODEL 7
REMARK VINA RESULT:      -4.4      2.931      4.132
REMARK  3 active torsions:
REMARK  status: ('A' for Active; 'I' for Inactive)
REMARK    1  A    between atoms: C_3  and  C_6 
REMARK    2  A    between atoms: C_6  and  C_10 
REMARK    3  A    between atoms: O_7  and  C_10 
ROOT
HETATM    1  N   UNL     1      63.999   7.164   3.378  1.00  0.00    -0.365 N 
HETATM    2  C   UNL     1      65.103   6.974   4.165  1.00  0.00     0.096 A 
HETATM    3  C   UNL     1      65.191   8.028   5.054  1.00  0.00    -0.028 A 
HETATM    4  C   UNL     1      64.088   8.899   4.772  1.00  0.00    -0.002 A 
HETATM    5  C   UNL     1      63.366   8.337   3.722  1.00  0.00     0.042 A 
HETATM    6  C   UNL     1      63.646  10.125   5.313  1.00  0.00     0.014 A 
HETATM    7  C   UNL     1      62.216   8.932   3.188  1.00  0.00     0.030 A 
HETATM    8  C   UNL     1      62.506  10.739   4.786  1.00  0.00     0.001 A 
HETATM    9  C   UNL     1      61.800  10.149   3.741  1.00  0.00     0.002 A 
HETATM   10  H   UNL     1      63.701   6.551   2.667  1.00  0.00     0.165 HD
ENDROOT
BRANCH   3  11
HETATM   11  C   UNL     1      66.235   8.223   6.115  1.00  0.00     0.067 C 
BRANCH  11  12
HETATM   12  C   UNL     1      66.234   7.117   7.169  1.00  0.00     0.168 C 
BRANCH  12  13
HETATM   13  O   UNL     1      67.183   7.367   8.204  1.00  0.00    -0.401 OA
HETATM   14  H   UNL     1      66.994   6.791   8.962  1.00  0.00     0.209 HD
ENDBRANCH  12  13
ENDBRANCH  11  12
ENDBRANCH   3  11
TORSDOF 3
ENDMDL
MODEL 8
REMARK VINA RESULT:      -4.4      2.219      2.485
REMARK  3 active torsions:
REMARK  status: ('A' for Active; 'I' for Inactive)
REMARK    1  A    between atoms: C_3  and  C_6 
REMARK    2  A    between atoms: C_6  and  C_10 
REMARK    3  A    between atoms: O_7  and  C_10 
ROOT
HETATM    1  N   UNL     1      60.869   9.051   2.636  1.00  0.00    -0.365 N 
HETATM    2  C   UNL     1      61.842   9.863   3.154  1.00  0.00     0.096 A 
HETATM    3  C   UNL     1      62.415   9.221   4.234  1.00  0.00    -0.028 A 
HETATM    4  C   UNL     1      61.739   7.965   4.375  1.00  0.00    -0.002 A 
HETATM    5  C   UNL     1      60.779   7.889   3.368  1.00  0.00     0.042 A 
HETATM    6  C   UNL     1      61.853   6.889   5.280  1.00  0.00     0.014 A 
HETATM    7  C   UNL     1      59.930   6.787   3.211  1.00  0.00     0.030 A 
HETATM    8  C   UNL     1      61.006   5.784   5.145  1.00  0.00     0.001 A 
HETATM    9  C   UNL     1      60.062   5.733   4.123  1.00  0.00     0.002 A 
HETATM   10  H   UNL     1      60.312   9.268   1.853  1.00  0.00     0.165 HD
ENDROOT
BRANCH   3  11
HETATM   11  C   UNL     1      63.535   9.734   5.091  1.00  0.00     0.067 C 
BRANCH  11  12
HETATM   12  C   UNL     1      63.196  11.041   5.806  1.00  0.00     0.168 C 
BRANCH  12  13
HETATM   13  O   UNL     1      64.330  11.593   6.474  1.00  0.00    -0.401 OA
HETATM   14  H   UNL     1      64.896  12.045   5.829  1.00  0.00     0.209 HD
ENDBRANCH  12  13
ENDBRANCH  11  12
ENDBRANCH   3  11
TORSDOF 3
ENDMDL
MODEL 9
REMARK VINA RESULT:      -4.4      2.167      3.099
REMARK  3 active torsions:
REMARK  status: ('A' for Active; 'I' for Inactive)
REMARK    1  A    between atoms: C_3  and  C_6 
REMARK    2  A    between atoms: C_6  and  C_10 
REMARK    3  A    between atoms: O_7  and  C_10 
ROOT
HETATM    1  N   UNL     1      61.924   7.410   3.699  1.00  0.00    -0.365 N 
HETATM    2  C   UNL     1      61.582   8.725   3.866  1.00  0.00     0.096 A 
HETATM    3  C   UNL     1      62.681   9.400   4.360  1.00  0.00    -0.028 A 
HETATM    4  C   UNL     1      63.729   8.433   4.508  1.00  0.00    -0.002 A 
HETATM    5  C   UNL     1      63.227   7.203   4.091  1.00  0.00     0.042 A 
HETATM    6  C   UNL     1      65.061   8.496   4.970  1.00  0.00     0.014 A 
HETATM    7  C   UNL     1      63.990   6.028   4.103  1.00  0.00     0.030 A 
HETATM    8  C   UNL     1      65.835   7.331   4.999  1.00  0.00     0.001 A 
HETATM    9  C   UNL     1      65.307   6.117   4.568  1.00  0.00     0.002 A 
HETATM   10  H   UNL     1      61.323   6.712   3.349  1.00  0.00     0.165 HD
ENDROOT
BRANCH   3  11
HETATM   11  C   UNL     1      62.767  10.865   4.677  1.00  0.00     0.067 C 
BRANCH  11  12
HETATM   12  C   UNL     1      63.000  11.147   6.160  1.00  0.00     0.168 C 
BRANCH  12  13
HETATM   13  O   UNL     1      64.324  11.615   6.412  1.00  0.00    -0.401 OA
HETATM   14  H   UNL     1      64.847  11.562   5.596  1.00  0.00     0.209 HD
ENDBRANCH  12  13
ENDBRANCH  11  12
ENDBRANCH   3  11
TORSDOF 3
ENDMDL
