MODEL 1
REMARK VINA RESULT:      -4.9      0.000      0.000
REMARK  1 active torsions:
REMARK  status: ('A' for Active; 'I' for Inactive)
REMARK    1  A    between atoms: N_7  and  O_11 
ROOT
HETATM    1  N   UNL     1      63.559   7.682   3.526  1.00  0.00    -0.066 N 
HETATM    2  C   UNL     1      62.223   8.138   3.924  1.00  0.00     0.193 C 
HETATM    3  C   UNL     1      64.268   7.677   4.819  1.00  0.00     0.193 C 
HETATM    4  C   UNL     1      63.435  10.024   5.107  1.00  0.00     0.013 C 
HETATM    5  C   UNL     1      62.288   9.664   4.190  1.00  0.00     0.087 C 
HETATM    6  C   UNL     1      64.665   9.135   5.117  1.00  0.00     0.087 C 
HETATM    7  N   UNL     1      63.402  11.133   5.765  1.00  0.00    -0.277 N 
ATOM      8  HN  UNL     1      62.584  11.737   5.683  1.00  0.00     0.193 HD
HETATM    9  C   UNL     1      61.902   7.346   5.192  1.00  0.00     0.036 C 
HETATM   10  C   UNL     1      63.251   7.197   5.883  1.00  0.00     0.036 C 
HETATM   11  C   UNL     1      63.589   6.363   2.875  1.00  0.00     0.270 C 
HETATM   12  H   UNL     1      63.975   8.279   2.810  1.00  0.00     0.280 HD
ENDROOT
BRANCH   7  13
HETATM   13  O   UNL     1      64.398  11.503   6.538  1.00  0.00    -0.290 OA
HETATM   14  H   UNL     1      64.383  11.297   7.452  1.00  0.00     0.244 HD
ENDBRANCH   7  13
TORSDOF 1
ENDMDL
MODEL 2
REMARK VINA RESULT:      -4.3      2.179      2.703
REMARK  1 active torsions:
REMARK  status: ('A' for Active; 'I' for Inactive)
REMARK    1  A    between atoms: N_7  and  O_11 
ROOT
HETATM    1  N   UNL     1      62.995   7.535   2.295  1.00  0.00    -0.066 N 
HETATM    2  C   UNL     1      61.902   8.000   1.434  1.00  0.00     0.193 C 
HETATM    3  C   UNL     1      62.473   7.860   3.636  1.00  0.00     0.193 C 
HETATM    4  C   UNL     1      62.055  10.165   2.742  1.00  0.00     0.013 C 
HETATM    5  C   UNL     1      61.960   9.547   1.366  1.00  0.00     0.087 C 
HETATM    6  C   UNL     1      62.710   9.366   3.854  1.00  0.00     0.087 C 
HETATM    7  N   UNL     1      61.695  11.391   2.919  1.00  0.00    -0.277 N 
ATOM      8  HN  UNL     1      61.317  11.917   2.131  1.00  0.00     0.193 HD
HETATM    9  C   UNL     1      60.629   7.500   2.115  1.00  0.00     0.036 C 
HETATM   10  C   UNL     1      60.951   7.581   3.602  1.00  0.00     0.036 C 
HETATM   11  C   UNL     1      63.318   6.106   2.160  1.00  0.00     0.270 C 
HETATM   12  H   UNL     1      63.886   7.974   2.062  1.00  0.00     0.280 HD
ENDROOT
BRANCH   7  13
HETATM   13  O   UNL     1      61.803  11.977   4.090  1.00  0.00    -0.290 OA
HETATM   14  H   UNL     1      62.221  11.531   4.800  1.00  0.00     0.244 HD
ENDBRANCH   7  13
TORSDOF 1
ENDMDL
MODEL 3
REMARK VINA RESULT:      -4.2      2.189      2.995
REMARK  1 active torsions:
REMARK  status: ('A' for Active; 'I' for Inactive)
REMARK    1  A    between atoms: N_7  and  O_11 
ROOT
HETATM    1  N   UNL     1      62.216   7.680   5.305  1.00  0.00    -0.066 N 
HETATM    2  C   UNL     1      63.343   8.615   5.406  1.00  0.00     0.193 C 
HETATM    3  C   UNL     1      62.058   7.565   3.843  1.00  0.00     0.193 C 
HETATM    4  C   UNL     1      62.022  10.071   3.807  1.00  0.00     0.013 C 
HETATM    5  C   UNL     1      62.823  10.040   5.089  1.00  0.00     0.087 C 
HETATM    6  C   UNL     1      61.289   8.814   3.377  1.00  0.00     0.087 C 
HETATM    7  N   UNL     1      61.876  11.185   3.172  1.00  0.00    -0.277 N 
ATOM      8  HN  UNL     1      62.334  12.025   3.528  1.00  0.00     0.193 HD
HETATM    9  C   UNL     1      64.351   8.124   4.368  1.00  0.00     0.036 C 
HETATM   10  C   UNL     1      63.483   7.587   3.238  1.00  0.00     0.036 C 
HETATM   11  C   UNL     1      62.444   6.373   5.940  1.00  0.00     0.270 C 
HETATM   12  H   UNL     1      61.389   8.014   5.802  1.00  0.00     0.280 HD
ENDROOT
BRANCH   7  13
HETATM   13  O   UNL     1      61.152  11.263   2.079  1.00  0.00    -0.290 OA
HETATM   14  H   UNL     1      61.564  11.203   1.239  1.00  0.00     0.244 HD
ENDBRANCH   7  13
TORSDOF 1
ENDMDL
MODEL 4
REMARK VINA RESULT:      -4.1      1.926      3.113
REMARK  1 active torsions:
REMARK  status: ('A' for Active; 'I' for Inactive)
REMARK    1  A    between atoms: N_7  and  O_11 
ROOT
HETATM    1  N   UNL     1      61.131   7.785   3.127  1.00  0.00    -0.066 N 
HETATM    2  C   UNL     1      62.293   7.545   2.263  1.00  0.00     0.193 C 
HETATM    3  C   UNL     1      61.376   9.170   3.573  1.00  0.00     0.193 C 
HETATM    4  C   UNL     1      63.670   8.391   4.215  1.00  0.00     0.013 C 
HETATM    5  C   UNL     1      63.530   7.311   3.166  1.00  0.00     0.087 C 
HETATM    6  C   UNL     1      62.418   9.097   4.703  1.00  0.00     0.087 C 
HETATM    7  N   UNL     1      64.819   8.606   4.761  1.00  0.00    -0.277 N 
ATOM      8  HN  UNL     1      65.627   8.066   4.451  1.00  0.00     0.193 HD
HETATM    9  C   UNL     1      62.424   8.815   1.423  1.00  0.00     0.036 C 
HETATM   10  C   UNL     1      61.982   9.927   2.366  1.00  0.00     0.036 C 
HETATM   11  C   UNL     1      59.829   7.643   2.457  1.00  0.00     0.270 C 
HETATM   12  H   UNL     1      61.057   7.098   3.877  1.00  0.00     0.280 HD
ENDROOT
BRANCH   7  13
HETATM   13  O   UNL     1      64.972   9.505   5.708  1.00  0.00    -0.290 OA
HETATM   14  H   UNL     1      64.231   9.797   6.201  1.00  0.00     0.244 HD
ENDBRANCH   7  13
TORSDOF 1
ENDMDL
MODEL 5
REMARK VINA RESULT:      -4.1     12.092     13.124
REMARK  1 active torsions:
REMARK  status: ('A' for Active; 'I' for Inactive)
REMARK    1  A    between atoms: N_7  and  O_11 
ROOT
HETATM    1  N   UNL     1      57.590   0.624  12.047  1.00  0.00    -0.066 N 
HETATM    2  C   UNL     1      57.402  -0.106  13.306  1.00  0.00     0.193 C 
HETATM    3  C   UNL     1      57.956   1.967  12.535  1.00  0.00     0.193 C 
HETATM    4  C   UNL     1      55.908   1.829  13.975  1.00  0.00     0.013 C 
HETATM    5  C   UNL     1      56.046   0.324  13.920  1.00  0.00     0.087 C 
HETATM    6  C   UNL     1      56.646   2.665  12.945  1.00  0.00     0.087 C 
HETATM    7  N   UNL     1      55.080   2.365  14.806  1.00  0.00    -0.277 N 
ATOM      8  HN  UNL     1      54.553   1.765  15.441  1.00  0.00     0.193 HD
HETATM    9  C   UNL     1      58.587   0.309  14.178  1.00  0.00     0.036 C 
HETATM   10  C   UNL     1      58.839   1.760  13.789  1.00  0.00     0.036 C 
HETATM   11  C   UNL     1      58.619   0.060  11.159  1.00  0.00     0.270 C 
HETATM   12  H   UNL     1      56.761   0.592  11.453  1.00  0.00     0.280 HD
ENDROOT
BRANCH   7  13
HETATM   13  O   UNL     1      54.899   3.666  14.854  1.00  0.00    -0.290 OA
HETATM   14  H   UNL     1      54.596   4.125  14.095  1.00  0.00     0.244 HD
ENDBRANCH   7  13
TORSDOF 1
ENDMDL
MODEL 6
REMARK VINA RESULT:      -4.0      4.141      4.982
REMARK  1 active torsions:
REMARK  status: ('A' for Active; 'I' for Inactive)
REMARK    1  A    between atoms: N_7  and  O_11 
ROOT
HETATM    1  N   UNL     1      67.133   4.611   6.453  1.00  0.00    -0.066 N 
HETATM    2  C   UNL     1      66.024   4.702   7.410  1.00  0.00     0.193 C 
HETATM    3  C   UNL     1      67.842   5.880   6.702  1.00  0.00     0.193 C 
HETATM    4  C   UNL     1      65.616   6.998   6.417  1.00  0.00     0.013 C 
HETATM    5  C   UNL     1      64.977   5.697   6.848  1.00  0.00     0.087 C 
HETATM    6  C   UNL     1      67.063   6.980   5.958  1.00  0.00     0.087 C 
HETATM    7  N   UNL     1      64.897   8.065   6.330  1.00  0.00    -0.277 N 
ATOM      8  HN  UNL     1      63.910   8.023   6.587  1.00  0.00     0.193 HD
HETATM    9  C   UNL     1      66.664   5.207   8.703  1.00  0.00     0.036 C 
HETATM   10  C   UNL     1      67.767   6.142   8.226  1.00  0.00     0.036 C 
HETATM   11  C   UNL     1      68.009   3.444   6.639  1.00  0.00     0.270 C 
HETATM   12  H   UNL     1      66.809   4.480   5.495  1.00  0.00     0.280 HD
ENDROOT
BRANCH   7  13
HETATM   13  O   UNL     1      65.405   9.205   5.917  1.00  0.00    -0.290 OA
HETATM   14  H   UNL     1      64.928   9.739   5.313  1.00  0.00     0.244 HD
ENDBRANCH   7  13
TORSDOF 1
ENDMDL
MODEL 7
REMARK VINA RESULT:      -3.9      1.877      2.261
REMARK  1 active torsions:
REMARK  status: ('A' for Active; 'I' for Inactive)
REMARK    1  A    between atoms: N_7  and  O_11 
ROOT
HETATM    1  N   UNL     1      64.503   7.483   4.360  1.00  0.00    -0.066 N 
HETATM    2  C   UNL     1      63.441   6.925   3.515  1.00  0.00     0.193 C 
HETATM    3  C   UNL     1      63.719   8.198   5.385  1.00  0.00     0.193 C 
HETATM    4  C   UNL     1      62.504   9.279   3.477  1.00  0.00     0.013 C 
HETATM    5  C   UNL     1      62.859   8.068   2.645  1.00  0.00     0.087 C 
HETATM    6  C   UNL     1      63.277   9.533   4.758  1.00  0.00     0.087 C 
HETATM    7  N   UNL     1      61.647  10.133   3.029  1.00  0.00    -0.277 N 
ATOM      8  HN  UNL     1      61.194   9.960   2.131  1.00  0.00     0.193 HD
HETATM    9  C   UNL     1      62.412   6.368   4.498  1.00  0.00     0.036 C 
HETATM   10  C   UNL     1      62.469   7.332   5.676  1.00  0.00     0.036 C 
HETATM   11  C   UNL     1      65.404   6.483   4.953  1.00  0.00     0.270 C 
HETATM   12  H   UNL     1      65.153   8.065   3.831  1.00  0.00     0.280 HD
ENDROOT
BRANCH   7  13
HETATM   13  O   UNL     1      61.345  11.221   3.701  1.00  0.00    -0.290 OA
HETATM   14  H   UNL     1      60.465  11.543   3.699  1.00  0.00     0.244 HD
ENDBRANCH   7  13
TORSDOF 1
ENDMDL
MODEL 8
REMARK VINA RESULT:      -3.9      5.416      6.441
REMARK  1 active torsions:
REMARK  status: ('A' for Active; 'I' for Inactive)
REMARK    1  A    between atoms: N_7  and  O_11 
ROOT
HETATM    1  N   UNL     1      67.866   6.715   6.426  1.00  0.00    -0.066 N 
HETATM    2  C   UNL     1      66.933   7.024   7.517  1.00  0.00     0.193 C 
HETATM    3  C   UNL     1      67.298   5.461   5.898  1.00  0.00     0.193 C 
HETATM    4  C   UNL     1      67.327   4.635   8.266  1.00  0.00     0.013 C 
HETATM    5  C   UNL     1      67.244   6.080   8.705  1.00  0.00     0.087 C 
HETATM    6  C   UNL     1      67.754   4.332   6.841  1.00  0.00     0.087 C 
HETATM    7  N   UNL     1      67.155   3.694   9.130  1.00  0.00    -0.277 N 
ATOM      8  HN  UNL     1      66.931   3.938  10.095  1.00  0.00     0.193 HD
HETATM    9  C   UNL     1      65.546   6.772   6.927  1.00  0.00     0.036 C 
HETATM   10  C   UNL     1      65.758   5.601   5.977  1.00  0.00     0.036 C 
HETATM   11  C   UNL     1      67.965   7.755   5.390  1.00  0.00     0.270 C 
HETATM   12  H   UNL     1      68.832   6.648   6.749  1.00  0.00     0.280 HD
ENDROOT
BRANCH   7  13
HETATM   13  O   UNL     1      67.262   2.427   8.797  1.00  0.00    -0.290 OA
HETATM   14  H   UNL     1      66.770   2.089   8.075  1.00  0.00     0.244 HD
ENDBRANCH   7  13
TORSDOF 1
ENDMDL
MODEL 9
REMARK VINA RESULT:      -3.9      2.477      3.089
REMARK  1 active torsions:
REMARK  status: ('A' for Active; 'I' for Inactive)
REMARK    1  A    between atoms: N_7  and  O_11 
ROOT
HETATM    1  N   UNL     1      66.515   6.079   5.195  1.00  0.00    -0.066 N 
HETATM    2  C   UNL     1      65.068   5.847   5.104  1.00  0.00     0.193 C 
HETATM    3  C   UNL     1      66.604   6.914   6.407  1.00  0.00     0.193 C 
HETATM    4  C   UNL     1      64.850   8.360   5.350  1.00  0.00     0.013 C 
HETATM    5  C   UNL     1      64.400   7.142   4.576  1.00  0.00     0.087 C 
HETATM    6  C   UNL     1      66.226   8.348   5.990  1.00  0.00     0.087 C 
HETATM    7  N   UNL     1      64.119   9.423   5.351  1.00  0.00    -0.277 N 
ATOM      8  HN  UNL     1      63.227   9.414   4.854  1.00  0.00     0.193 HD
HETATM    9  C   UNL     1      64.636   5.517   6.532  1.00  0.00     0.036 C 
HETATM   10  C   UNL     1      65.547   6.375   7.400  1.00  0.00     0.036 C 
HETATM   11  C   UNL     1      67.326   4.856   5.306  1.00  0.00     0.270 C 
HETATM   12  H   UNL     1      66.893   6.506   4.349  1.00  0.00     0.280 HD
ENDROOT
BRANCH   7  13
HETATM   13  O   UNL     1      64.495  10.516   5.975  1.00  0.00    -0.290 OA
HETATM   14  H   UNL     1      64.304  11.356   5.605  1.00  0.00     0.244 HD
ENDBRANCH   7  13
TORSDOF 1
ENDMDL
