MODEL 1
REMARK VINA RESULT:      -4.9      0.000      0.000
REMARK  0 active torsions:
REMARK  status: ('A' for Active; 'I' for Inactive)
ROOT
HETATM    1  C   UNL     1      61.776   8.041   2.243  1.00  0.00     0.056 C 
HETATM    2  C   UNL     1      61.733   9.621   4.135  1.00  0.00     0.056 C 
HETATM    3  C   UNL     1      63.105   7.476   2.686  1.00  0.00     0.131 C 
HETATM    4  C   UNL     1      61.892  10.810   3.210  1.00  0.00     0.131 C 
HETATM    5  C   UNL     1      60.978   8.506   3.441  1.00  0.00     0.024 C 
HETATM    6  C   UNL     1      62.103  10.579   1.730  1.00  0.00     0.079 C 
HETATM    7  C   UNL     1      63.866   8.164   3.802  1.00  0.00     0.079 C 
HETATM    8  O   UNL     1      63.620   6.531   2.081  1.00  0.00    -0.298 OA
HETATM    9  O   UNL     1      61.929  11.953   3.669  1.00  0.00    -0.298 OA
HETATM   10  C   UNL     1      63.089   9.158   4.665  1.00  0.00     0.019 C 
HETATM   11  C   UNL     1      61.972   9.149   1.206  1.00  0.00     0.019 C 
ENDROOT
TORSDOF 0
ENDMDL
MODEL 2
REMARK VINA RESULT:      -4.9      0.167      3.818
REMARK  0 active torsions:
REMARK  status: ('A' for Active; 'I' for Inactive)
ROOT
HETATM    1  C   UNL     1      61.770   9.547   4.109  1.00  0.00     0.056 C 
HETATM    2  C   UNL     1      61.654   8.026   2.172  1.00  0.00     0.056 C 
HETATM    3  C   UNL     1      61.895  10.755   3.210  1.00  0.00     0.131 C 
HETATM    4  C   UNL     1      62.998   7.416   2.508  1.00  0.00     0.131 C 
HETATM    5  C   UNL     1      60.944   8.475   3.434  1.00  0.00     0.024 C 
HETATM    6  C   UNL     1      63.808   7.981   3.654  1.00  0.00     0.079 C 
HETATM    7  C   UNL     1      62.105  10.551   1.723  1.00  0.00     0.079 C 
HETATM    8  O   UNL     1      61.934  11.893   3.687  1.00  0.00    -0.298 OA
HETATM    9  O   UNL     1      63.466   6.517   1.805  1.00  0.00    -0.298 OA
HETATM   10  C   UNL     1      61.808   9.161   1.161  1.00  0.00     0.019 C 
HETATM   11  C   UNL     1      63.148   9.040   4.538  1.00  0.00     0.019 C 
ENDROOT
TORSDOF 0
ENDMDL
MODEL 3
REMARK VINA RESULT:      -4.5      2.188      3.385
REMARK  0 active torsions:
REMARK  status: ('A' for Active; 'I' for Inactive)
ROOT
HETATM    1  C   UNL     1      62.684   8.088   2.955  1.00  0.00     0.056 C 
HETATM    2  C   UNL     1      63.550   8.705   5.179  1.00  0.00     0.056 C 
HETATM    3  C   UNL     1      62.094   9.465   2.753  1.00  0.00     0.131 C 
HETATM    4  C   UNL     1      62.588   7.762   5.870  1.00  0.00     0.131 C 
HETATM    5  C   UNL     1      63.928   8.172   3.812  1.00  0.00     0.024 C 
HETATM    6  C   UNL     1      61.555   7.020   5.051  1.00  0.00     0.079 C 
HETATM    7  C   UNL     1      62.071  10.437   3.915  1.00  0.00     0.079 C 
HETATM    8  O   UNL     1      61.540   9.762   1.690  1.00  0.00    -0.298 OA
HETATM    9  O   UNL     1      62.594   7.658   7.098  1.00  0.00    -0.298 OA
HETATM   10  C   UNL     1      62.971  10.118   5.108  1.00  0.00     0.019 C 
HETATM   11  C   UNL     1      61.642   7.126   3.528  1.00  0.00     0.019 C 
ENDROOT
TORSDOF 0
ENDMDL
MODEL 4
REMARK VINA RESULT:      -4.5      2.186      3.185
REMARK  0 active torsions:
REMARK  status: ('A' for Active; 'I' for Inactive)
ROOT
HETATM    1  C   UNL     1      63.525   8.761   5.134  1.00  0.00     0.056 C 
HETATM    2  C   UNL     1      62.742   8.055   2.905  1.00  0.00     0.056 C 
HETATM    3  C   UNL     1      62.605   7.777   5.818  1.00  0.00     0.131 C 
HETATM    4  C   UNL     1      62.076   9.392   2.660  1.00  0.00     0.131 C 
HETATM    5  C   UNL     1      63.962   8.222   3.789  1.00  0.00     0.024 C 
HETATM    6  C   UNL     1      62.057  10.428   3.763  1.00  0.00     0.079 C 
HETATM    7  C   UNL     1      61.566   7.040   4.995  1.00  0.00     0.079 C 
HETATM    8  O   UNL     1      62.621   7.650   7.046  1.00  0.00    -0.298 OA
HETATM    9  O   UNL     1      61.486   9.608   1.600  1.00  0.00    -0.298 OA
HETATM   10  C   UNL     1      61.747   7.047   3.478  1.00  0.00     0.019 C 
HETATM   11  C   UNL     1      62.869  10.139   5.026  1.00  0.00     0.019 C 
ENDROOT
TORSDOF 0
ENDMDL
MODEL 5
REMARK VINA RESULT:      -4.1      6.145      8.050
REMARK  0 active torsions:
REMARK  status: ('A' for Active; 'I' for Inactive)
ROOT
HETATM    1  C   UNL     1      66.089   6.798   7.585  1.00  0.00     0.056 C 
HETATM    2  C   UNL     1      66.607   4.411   7.251  1.00  0.00     0.056 C 
HETATM    3  C   UNL     1      66.833   7.182   6.328  1.00  0.00     0.131 C 
HETATM    4  C   UNL     1      67.508   4.385   8.468  1.00  0.00     0.131 C 
HETATM    5  C   UNL     1      65.489   5.417   7.439  1.00  0.00     0.024 C 
HETATM    6  C   UNL     1      67.783   5.669   9.219  1.00  0.00     0.079 C 
HETATM    7  C   UNL     1      67.666   6.137   5.613  1.00  0.00     0.079 C 
HETATM    8  O   UNL     1      66.853   8.355   5.942  1.00  0.00    -0.298 OA
HETATM    9  O   UNL     1      68.075   3.342   8.799  1.00  0.00    -0.298 OA
HETATM   10  C   UNL     1      67.415   4.675   5.981  1.00  0.00     0.019 C 
HETATM   11  C   UNL     1      66.994   6.915   8.813  1.00  0.00     0.019 C 
ENDROOT
TORSDOF 0
ENDMDL
MODEL 6
REMARK VINA RESULT:      -4.1      1.627      2.882
REMARK  0 active torsions:
REMARK  status: ('A' for Active; 'I' for Inactive)
ROOT
HETATM    1  C   UNL     1      62.231   7.622   3.330  1.00  0.00     0.056 C 
HETATM    2  C   UNL     1      62.000   9.115   1.382  1.00  0.00     0.056 C 
HETATM    3  C   UNL     1      60.853   7.043   3.107  1.00  0.00     0.131 C 
HETATM    4  C   UNL     1      61.973  10.344   2.265  1.00  0.00     0.131 C 
HETATM    5  C   UNL     1      62.849   8.028   2.010  1.00  0.00     0.024 C 
HETATM    6  C   UNL     1      61.978  10.182   3.769  1.00  0.00     0.079 C 
HETATM    7  C   UNL     1      59.939   7.685   2.082  1.00  0.00     0.079 C 
HETATM    8  O   UNL     1      60.431   6.129   3.822  1.00  0.00    -0.298 OA
HETATM    9  O   UNL     1      61.870  11.466   1.765  1.00  0.00    -0.298 OA
HETATM   10  C   UNL     1      60.583   8.635   1.073  1.00  0.00     0.019 C 
HETATM   11  C   UNL     1      62.184   8.776   4.333  1.00  0.00     0.019 C 
ENDROOT
TORSDOF 0
ENDMDL
MODEL 7
REMARK VINA RESULT:      -4.0      1.953      2.913
REMARK  0 active torsions:
REMARK  status: ('A' for Active; 'I' for Inactive)
ROOT
HETATM    1  C   UNL     1      61.478   9.079   3.081  1.00  0.00     0.056 C 
HETATM    2  C   UNL     1      61.949   7.242   4.656  1.00  0.00     0.056 C 
HETATM    3  C   UNL     1      62.373   8.467   2.029  1.00  0.00     0.131 C 
HETATM    4  C   UNL     1      62.703   8.168   5.587  1.00  0.00     0.131 C 
HETATM    5  C   UNL     1      60.852   7.996   3.931  1.00  0.00     0.024 C 
HETATM    6  C   UNL     1      62.934   9.607   5.182  1.00  0.00     0.079 C 
HETATM    7  C   UNL     1      63.247   7.284   2.398  1.00  0.00     0.079 C 
HETATM    8  O   UNL     1      62.478   8.985   0.913  1.00  0.00    -0.298 OA
HETATM    9  O   UNL     1      63.193   7.734   6.632  1.00  0.00    -0.298 OA
HETATM   10  C   UNL     1      62.905   6.543   3.691  1.00  0.00     0.019 C 
HETATM   11  C   UNL     1      62.241  10.110   3.916  1.00  0.00     0.019 C 
ENDROOT
TORSDOF 0
ENDMDL
MODEL 8
REMARK VINA RESULT:      -4.0      5.487      7.432
REMARK  0 active torsions:
REMARK  status: ('A' for Active; 'I' for Inactive)
ROOT
HETATM    1  C   UNL     1      66.530   6.532   5.762  1.00  0.00     0.056 C 
HETATM    2  C   UNL     1      67.505   4.828   7.254  1.00  0.00     0.056 C 
HETATM    3  C   UNL     1      66.636   7.594   6.832  1.00  0.00     0.131 C 
HETATM    4  C   UNL     1      66.197   4.069   7.323  1.00  0.00     0.131 C 
HETATM    5  C   UNL     1      67.646   5.522   5.914  1.00  0.00     0.024 C 
HETATM    6  C   UNL     1      64.968   4.638   6.648  1.00  0.00     0.079 C 
HETATM    7  C   UNL     1      67.016   7.188   8.242  1.00  0.00     0.079 C 
HETATM    8  O   UNL     1      66.313   8.762   6.593  1.00  0.00    -0.298 OA
HETATM    9  O   UNL     1      66.113   3.034   7.988  1.00  0.00    -0.298 OA
HETATM   10  C   UNL     1      67.632   5.801   8.425  1.00  0.00     0.019 C 
HETATM   11  C   UNL     1      65.146   5.880   5.774  1.00  0.00     0.019 C 
ENDROOT
TORSDOF 0
ENDMDL
MODEL 9
REMARK VINA RESULT:      -3.9      3.478      4.601
REMARK  0 active torsions:
REMARK  status: ('A' for Active; 'I' for Inactive)
ROOT
HETATM    1  C   UNL     1      65.334   7.256   4.419  1.00  0.00     0.056 C 
HETATM    2  C   UNL     1      64.154   6.176   6.295  1.00  0.00     0.056 C 
HETATM    3  C   UNL     1      66.461   7.696   5.323  1.00  0.00     0.131 C 
HETATM    4  C   UNL     1      63.031   7.190   6.237  1.00  0.00     0.131 C 
HETATM    5  C   UNL     1      64.742   5.955   4.915  1.00  0.00     0.024 C 
HETATM    6  C   UNL     1      63.127   8.354   5.276  1.00  0.00     0.079 C 
HETATM    7  C   UNL     1      66.315   7.529   6.822  1.00  0.00     0.079 C 
HETATM    8  O   UNL     1      67.445   8.284   4.861  1.00  0.00    -0.298 OA
HETATM    9  O   UNL     1      62.083   7.112   7.021  1.00  0.00    -0.298 OA
HETATM   10  C   UNL     1      65.213   6.592   7.314  1.00  0.00     0.019 C 
HETATM   11  C   UNL     1      64.284   8.359   4.276  1.00  0.00     0.019 C 
ENDROOT
TORSDOF 0
ENDMDL
