MODEL 1
REMARK VINA RESULT:      -5.2      0.000      0.000
REMARK  1 active torsions:
REMARK  status: ('A' for Active; 'I' for Inactive)
REMARK    1  A    between atoms: C_2  and  C_5 
ROOT
HETATM    1  C   UNL     1      64.561   8.474   5.591  1.00  0.00     0.103 A 
HETATM    2  C   UNL     1      62.730   9.259   4.219  1.00  0.00     0.012 A 
HETATM    3  C   UNL     1      63.952   9.494   4.860  1.00  0.00     0.054 A 
HETATM    4  C   UNL     1      63.947   7.224   5.709  1.00  0.00     0.102 A 
HETATM    5  O   UNL     1      65.763   8.778   6.176  1.00  0.00    -0.346 OA
HETATM    6  O   UNL     1      64.482   6.189   6.431  1.00  0.00    -0.346 OA
HETATM    7  C   UNL     1      62.126   7.997   4.325  1.00  0.00     0.018 A 
HETATM    8  C   UNL     1      62.736   6.981   5.067  1.00  0.00     0.040 A 
HETATM    9  C   UNL     1      66.456   7.598   6.598  1.00  0.00     0.202 C 
HETATM   10  C   UNL     1      65.513   6.643   7.314  1.00  0.00     0.202 C 
ENDROOT
BRANCH   2  11
HETATM   11  C   UNL     1      62.042  10.314   3.417  1.00  0.00     0.155 C 
HETATM   12  O   UNL     1      61.700  11.366   3.953  1.00  0.00    -0.293 OA
HETATM   13  C   UNL     1      61.776  10.062   1.955  1.00  0.00     0.096 C 
ENDBRANCH   2  11
TORSDOF 1
ENDMDL
MODEL 2
REMARK VINA RESULT:      -4.7      1.771      2.397
REMARK  1 active torsions:
REMARK  status: ('A' for Active; 'I' for Inactive)
REMARK    1  A    between atoms: C_2  and  C_5 
ROOT
HETATM    1  C   UNL     1      64.671   7.522   4.380  1.00  0.00     0.103 A 
HETATM    2  C   UNL     1      62.750   8.326   3.149  1.00  0.00     0.012 A 
HETATM    3  C   UNL     1      63.746   7.362   3.348  1.00  0.00     0.054 A 
HETATM    4  C   UNL     1      64.627   8.651   5.203  1.00  0.00     0.102 A 
HETATM    5  O   UNL     1      65.606   6.528   4.520  1.00  0.00    -0.346 OA
HETATM    6  O   UNL     1      65.520   8.877   6.217  1.00  0.00    -0.346 OA
HETATM    7  C   UNL     1      62.698   9.448   3.989  1.00  0.00     0.018 A 
HETATM    8  C   UNL     1      63.633   9.608   5.015  1.00  0.00     0.040 A 
HETATM    9  C   UNL     1      66.272   6.607   5.784  1.00  0.00     0.202 C 
HETATM   10  C   UNL     1      66.674   8.039   6.096  1.00  0.00     0.202 C 
ENDROOT
BRANCH   2  11
HETATM   11  C   UNL     1      61.730   8.197   2.066  1.00  0.00     0.155 C 
HETATM   12  O   UNL     1      60.707   7.545   2.261  1.00  0.00    -0.293 OA
HETATM   13  C   UNL     1      61.982   8.874   0.743  1.00  0.00     0.096 C 
ENDBRANCH   2  11
TORSDOF 1
ENDMDL
MODEL 3
REMARK VINA RESULT:      -4.7      2.017      4.578
REMARK  1 active torsions:
REMARK  status: ('A' for Active; 'I' for Inactive)
REMARK    1  A    between atoms: C_2  and  C_5 
ROOT
HETATM    1  C   UNL     1      64.161   9.211   4.977  1.00  0.00     0.103 A 
HETATM    2  C   UNL     1      65.290   7.140   4.438  1.00  0.00     0.012 A 
HETATM    3  C   UNL     1      65.235   8.339   5.159  1.00  0.00     0.054 A 
HETATM    4  C   UNL     1      63.150   8.908   4.060  1.00  0.00     0.102 A 
HETATM    5  O   UNL     1      64.171  10.357   5.730  1.00  0.00    -0.346 OA
HETATM    6  O   UNL     1      62.082   9.733   3.819  1.00  0.00    -0.346 OA
HETATM    7  C   UNL     1      64.263   6.832   3.532  1.00  0.00     0.018 A 
HETATM    8  C   UNL     1      63.195   7.714   3.346  1.00  0.00     0.040 A 
HETATM    9  C   UNL     1      62.892  10.999   5.729  1.00  0.00     0.202 C 
HETATM   10  C   UNL     1      62.313  11.052   4.324  1.00  0.00     0.202 C 
ENDROOT
BRANCH   2  11
HETATM   11  C   UNL     1      66.412   6.169   4.603  1.00  0.00     0.155 C 
HETATM   12  O   UNL     1      66.927   6.009   5.708  1.00  0.00    -0.293 OA
HETATM   13  C   UNL     1      66.895   5.401   3.400  1.00  0.00     0.096 C 
ENDBRANCH   2  11
TORSDOF 1
ENDMDL
MODEL 4
REMARK VINA RESULT:      -4.6      2.135      5.086
REMARK  1 active torsions:
REMARK  status: ('A' for Active; 'I' for Inactive)
REMARK    1  A    between atoms: C_2  and  C_5 
ROOT
HETATM    1  C   UNL     1      62.956   7.956   2.576  1.00  0.00     0.103 A 
HETATM    2  C   UNL     1      63.997   8.421   4.709  1.00  0.00     0.012 A 
HETATM    3  C   UNL     1      63.852   7.600   3.584  1.00  0.00     0.054 A 
HETATM    4  C   UNL     1      62.182   9.114   2.691  1.00  0.00     0.102 A 
HETATM    5  O   UNL     1      62.882   7.108   1.500  1.00  0.00    -0.346 OA
HETATM    6  O   UNL     1      61.269   9.506   1.747  1.00  0.00    -0.346 OA
HETATM    7  C   UNL     1      63.232   9.593   4.812  1.00  0.00     0.018 A 
HETATM    8  C   UNL     1      62.329   9.939   3.803  1.00  0.00     0.040 A 
HETATM    9  C   UNL     1      62.213   7.721   0.393  1.00  0.00     0.202 C 
HETATM   10  C   UNL     1      60.951   8.436   0.850  1.00  0.00     0.202 C 
ENDROOT
BRANCH   2  11
HETATM   11  C   UNL     1      64.948   8.091   5.811  1.00  0.00     0.155 C 
HETATM   12  O   UNL     1      65.791   8.915   6.162  1.00  0.00    -0.293 OA
HETATM   13  C   UNL     1      64.857   6.741   6.474  1.00  0.00     0.096 C 
ENDBRANCH   2  11
TORSDOF 1
ENDMDL
MODEL 5
REMARK VINA RESULT:      -4.2      1.689      5.537
REMARK  1 active torsions:
REMARK  status: ('A' for Active; 'I' for Inactive)
REMARK    1  A    between atoms: C_2  and  C_5 
ROOT
HETATM    1  C   UNL     1      63.753   7.175   5.901  1.00  0.00     0.103 A 
HETATM    2  C   UNL     1      65.679   6.580   7.239  1.00  0.00     0.012 A 
HETATM    3  C   UNL     1      64.339   6.378   6.885  1.00  0.00     0.054 A 
HETATM    4  C   UNL     1      64.487   8.192   5.282  1.00  0.00     0.102 A 
HETATM    5  O   UNL     1      62.442   6.906   5.599  1.00  0.00    -0.346 OA
HETATM    6  O   UNL     1      63.962   9.022   4.326  1.00  0.00    -0.346 OA
HETATM    7  C   UNL     1      66.416   7.589   6.602  1.00  0.00     0.018 A 
HETATM    8  C   UNL     1      65.821   8.391   5.624  1.00  0.00     0.040 A 
HETATM    9  C   UNL     1      62.047   7.526   4.371  1.00  0.00     0.202 C 
HETATM   10  C   UNL     1      62.532   8.965   4.310  1.00  0.00     0.202 C 
ENDROOT
BRANCH   2  11
HETATM   11  C   UNL     1      66.355   5.749   8.278  1.00  0.00     0.155 C 
HETATM   12  O   UNL     1      66.010   4.581   8.450  1.00  0.00    -0.293 OA
HETATM   13  C   UNL     1      67.454   6.365   9.104  1.00  0.00     0.096 C 
ENDBRANCH   2  11
TORSDOF 1
ENDMDL
MODEL 6
REMARK VINA RESULT:      -4.2      1.693      2.617
REMARK  1 active torsions:
REMARK  status: ('A' for Active; 'I' for Inactive)
REMARK    1  A    between atoms: C_2  and  C_5 
ROOT
HETATM    1  C   UNL     1      63.851   7.314   5.500  1.00  0.00     0.103 A 
HETATM    2  C   UNL     1      61.833   7.828   4.268  1.00  0.00     0.012 A 
HETATM    3  C   UNL     1      62.642   6.902   4.938  1.00  0.00     0.054 A 
HETATM    4  C   UNL     1      64.274   8.641   5.377  1.00  0.00     0.102 A 
HETATM    5  O   UNL     1      64.580   6.352   6.152  1.00  0.00    -0.346 OA
HETATM    6  O   UNL     1      65.460   9.102   5.885  1.00  0.00    -0.346 OA
HETATM    7  C   UNL     1      62.253   9.162   4.164  1.00  0.00     0.018 A 
HETATM    8  C   UNL     1      63.470   9.568   4.720  1.00  0.00     0.040 A 
HETATM    9  C   UNL     1      65.603   6.931   6.969  1.00  0.00     0.202 C 
HETATM   10  C   UNL     1      66.343   8.025   6.217  1.00  0.00     0.202 C 
ENDROOT
BRANCH   2  11
HETATM   11  C   UNL     1      60.527   7.440   3.658  1.00  0.00     0.155 C 
HETATM   12  O   UNL     1      59.687   6.849   4.333  1.00  0.00    -0.293 OA
HETATM   13  C   UNL     1      60.265   7.783   2.215  1.00  0.00     0.096 C 
ENDBRANCH   2  11
TORSDOF 1
ENDMDL
MODEL 7
REMARK VINA RESULT:      -4.2      2.712      4.165
REMARK  1 active torsions:
REMARK  status: ('A' for Active; 'I' for Inactive)
REMARK    1  A    between atoms: C_2  and  C_5 
ROOT
HETATM    1  C   UNL     1      62.310   9.505   3.674  1.00  0.00     0.103 A 
HETATM    2  C   UNL     1      62.637   7.427   2.480  1.00  0.00     0.012 A 
HETATM    3  C   UNL     1      61.910   8.606   2.685  1.00  0.00     0.054 A 
HETATM    4  C   UNL     1      63.417   9.226   4.480  1.00  0.00     0.102 A 
HETATM    5  O   UNL     1      61.556  10.644   3.803  1.00  0.00    -0.346 OA
HETATM    6  O   UNL     1      63.846  10.057   5.482  1.00  0.00    -0.346 OA
HETATM    7  C   UNL     1      63.758   7.160   3.280  1.00  0.00     0.018 A 
HETATM    8  C   UNL     1      64.149   8.059   4.275  1.00  0.00     0.040 A 
HETATM    9  C   UNL     1      62.231  11.636   4.584  1.00  0.00     0.202 C 
HETATM   10  C   UNL     1      62.844  11.019   5.830  1.00  0.00     0.202 C 
ENDROOT
BRANCH   2  11
HETATM   11  C   UNL     1      62.257   6.437   1.429  1.00  0.00     0.155 C 
HETATM   12  O   UNL     1      61.132   5.941   1.432  1.00  0.00    -0.293 OA
HETATM   13  C   UNL     1      63.271   6.061   0.380  1.00  0.00     0.096 C 
ENDBRANCH   2  11
TORSDOF 1
ENDMDL
MODEL 8
REMARK VINA RESULT:      -4.2      2.288      3.441
REMARK  1 active torsions:
REMARK  status: ('A' for Active; 'I' for Inactive)
REMARK    1  A    between atoms: C_2  and  C_5 
ROOT
HETATM    1  C   UNL     1      65.979   6.620   7.102  1.00  0.00     0.103 A 
HETATM    2  C   UNL     1      65.020   7.394   5.021  1.00  0.00     0.012 A 
HETATM    3  C   UNL     1      64.958   7.275   6.414  1.00  0.00     0.054 A 
HETATM    4  C   UNL     1      67.054   6.056   6.407  1.00  0.00     0.102 A 
HETATM    5  O   UNL     1      65.854   6.558   8.467  1.00  0.00    -0.346 OA
HETATM    6  O   UNL     1      68.075   5.380   7.022  1.00  0.00    -0.346 OA
HETATM    7  C   UNL     1      66.110   6.843   4.329  1.00  0.00     0.018 A 
HETATM    8  C   UNL     1      67.125   6.178   5.023  1.00  0.00     0.040 A 
HETATM    9  C   UNL     1      67.086   6.184   9.092  1.00  0.00     0.202 C 
HETATM   10  C   UNL     1      67.731   5.016   8.363  1.00  0.00     0.202 C 
ENDROOT
BRANCH   2  11
HETATM   11  C   UNL     1      63.958   8.094   4.239  1.00  0.00     0.155 C 
HETATM   12  O   UNL     1      63.612   7.654   3.145  1.00  0.00    -0.293 OA
HETATM   13  C   UNL     1      63.331   9.338   4.812  1.00  0.00     0.096 C 
ENDBRANCH   2  11
TORSDOF 1
ENDMDL
MODEL 9
REMARK VINA RESULT:      -4.2      2.037      2.230
REMARK  1 active torsions:
REMARK  status: ('A' for Active; 'I' for Inactive)
REMARK    1  A    between atoms: C_2  and  C_5 
ROOT
HETATM    1  C   UNL     1      65.006   6.930   4.946  1.00  0.00     0.103 A 
HETATM    2  C   UNL     1      63.262   7.659   3.437  1.00  0.00     0.012 A 
HETATM    3  C   UNL     1      64.539   7.126   3.646  1.00  0.00     0.054 A 
HETATM    4  C   UNL     1      64.217   7.288   6.044  1.00  0.00     0.102 A 
HETATM    5  O   UNL     1      66.261   6.389   5.069  1.00  0.00    -0.346 OA
HETATM    6  O   UNL     1      64.627   7.142   7.343  1.00  0.00    -0.346 OA
HETATM    7  C   UNL     1      62.467   7.999   4.542  1.00  0.00     0.018 A 
HETATM    8  C   UNL     1      62.943   7.810   5.842  1.00  0.00     0.040 A 
HETATM    9  C   UNL     1      66.503   5.918   6.398  1.00  0.00     0.202 C 
HETATM   10  C   UNL     1      66.042   6.938   7.427  1.00  0.00     0.202 C 
ENDROOT
BRANCH   2  11
HETATM   11  C   UNL     1      62.712   7.879   2.067  1.00  0.00     0.155 C 
HETATM   12  O   UNL     1      62.799   6.991   1.221  1.00  0.00    -0.293 OA
HETATM   13  C   UNL     1      62.058   9.198   1.746  1.00  0.00     0.096 C 
ENDBRANCH   2  11
TORSDOF 1
ENDMDL
