MODEL 1
REMARK VINA RESULT:      -4.3      0.000      0.000
REMARK  1 active torsions:
REMARK  status: ('A' for Active; 'I' for Inactive)
REMARK    1  A    between atoms: C_4  and  O_7 
ROOT
HETATM    1  C   UNL     1      62.059   9.124   2.766  1.00  0.00    -0.048 C 
HETATM    2  C   UNL     1      63.257   8.598   3.590  1.00  0.00     0.011 C 
HETATM    3  C   UNL     1      62.016  10.667   2.863  1.00  0.00     0.011 C 
HETATM    4  C   UNL     1      63.150  10.614   5.117  1.00  0.00     0.118 C 
HETATM    5  C   UNL     1      61.978  11.164   4.307  1.00  0.00     0.032 C 
HETATM    6  C   UNL     1      63.245   9.091   5.038  1.00  0.00     0.032 C 
HETATM    7  C   UNL     1      62.225   8.717   1.296  1.00  0.00     0.015 C 
HETATM    8  C   UNL     1      60.738   8.512   3.282  1.00  0.00     0.015 C 
ENDROOT
BRANCH   4   9
HETATM    9  O   UNL     1      63.017  11.014   6.476  1.00  0.00    -0.396 OA
HETATM   10  H   UNL     1      62.947  10.226   7.039  1.00  0.00     0.210 HD
ENDBRANCH   4   9
TORSDOF 1
ENDMDL
MODEL 2
REMARK VINA RESULT:      -4.0      1.664      2.225
REMARK  1 active torsions:
REMARK  status: ('A' for Active; 'I' for Inactive)
REMARK    1  A    between atoms: C_4  and  O_7 
ROOT
HETATM    1  C   UNL     1      61.651   8.202   1.218  1.00  0.00    -0.048 C 
HETATM    2  C   UNL     1      61.916   7.847   2.699  1.00  0.00     0.011 C 
HETATM    3  C   UNL     1      62.333   9.552   0.891  1.00  0.00     0.011 C 
HETATM    4  C   UNL     1      62.136  10.298   3.294  1.00  0.00     0.118 C 
HETATM    5  C   UNL     1      61.897  10.673   1.833  1.00  0.00     0.032 C 
HETATM    6  C   UNL     1      61.495   8.960   3.660  1.00  0.00     0.032 C 
HETATM    7  C   UNL     1      62.239   7.111   0.313  1.00  0.00     0.015 C 
HETATM    8  C   UNL     1      60.134   8.281   0.942  1.00  0.00     0.015 C 
ENDROOT
BRANCH   4   9
HETATM    9  O   UNL     1      61.619  11.322   4.137  1.00  0.00    -0.396 OA
HETATM   10  H   UNL     1      60.723  11.083   4.423  1.00  0.00     0.210 HD
ENDBRANCH   4   9
TORSDOF 1
ENDMDL
MODEL 3
REMARK VINA RESULT:      -4.0      1.996      2.986
REMARK  1 active torsions:
REMARK  status: ('A' for Active; 'I' for Inactive)
REMARK    1  A    between atoms: C_4  and  O_7 
ROOT
HETATM    1  C   UNL     1      62.057   8.138   3.376  1.00  0.00    -0.048 C 
HETATM    2  C   UNL     1      61.584   8.388   1.926  1.00  0.00     0.011 C 
HETATM    3  C   UNL     1      61.601   9.317   4.268  1.00  0.00     0.011 C 
HETATM    4  C   UNL     1      61.624  10.892   2.296  1.00  0.00     0.118 C 
HETATM    5  C   UNL     1      62.073  10.670   3.739  1.00  0.00     0.032 C 
HETATM    6  C   UNL     1      62.037   9.743   1.378  1.00  0.00     0.032 C 
HETATM    7  C   UNL     1      61.435   6.839   3.905  1.00  0.00     0.015 C 
HETATM    8  C   UNL     1      63.592   7.984   3.425  1.00  0.00     0.015 C 
ENDROOT
BRANCH   4   9
HETATM    9  O   UNL     1      62.173  12.112   1.810  1.00  0.00    -0.396 OA
HETATM   10  H   UNL     1      61.828  12.852   2.334  1.00  0.00     0.210 HD
ENDBRANCH   4   9
TORSDOF 1
ENDMDL
MODEL 4
REMARK VINA RESULT:      -3.8      1.356      1.662
REMARK  1 active torsions:
REMARK  status: ('A' for Active; 'I' for Inactive)
REMARK    1  A    between atoms: C_4  and  O_7 
ROOT
HETATM    1  C   UNL     1      61.863   8.770   2.806  1.00  0.00    -0.048 C 
HETATM    2  C   UNL     1      63.086   7.837   2.664  1.00  0.00     0.011 C 
HETATM    3  C   UNL     1      62.282  10.040   3.585  1.00  0.00     0.011 C 
HETATM    4  C   UNL     1      64.103   8.771   4.786  1.00  0.00     0.118 C 
HETATM    5  C   UNL     1      62.914   9.717   4.938  1.00  0.00     0.032 C 
HETATM    6  C   UNL     1      63.742   7.508   4.007  1.00  0.00     0.032 C 
HETATM    7  C   UNL     1      61.360   9.177   1.415  1.00  0.00     0.015 C 
HETATM    8  C   UNL     1      60.710   8.045   3.534  1.00  0.00     0.015 C 
ENDROOT
BRANCH   4   9
HETATM    9  O   UNL     1      64.593   8.414   6.073  1.00  0.00    -0.396 OA
HETATM   10  H   UNL     1      65.139   7.616   6.001  1.00  0.00     0.210 HD
ENDBRANCH   4   9
TORSDOF 1
ENDMDL
MODEL 5
REMARK VINA RESULT:      -3.8      1.943      2.801
REMARK  1 active torsions:
REMARK  status: ('A' for Active; 'I' for Inactive)
REMARK    1  A    between atoms: C_4  and  O_7 
ROOT
HETATM    1  C   UNL     1      62.484   7.960   3.218  1.00  0.00    -0.048 C 
HETATM    2  C   UNL     1      62.891   9.194   4.054  1.00  0.00     0.011 C 
HETATM    3  C   UNL     1      62.525   8.330   1.716  1.00  0.00     0.011 C 
HETATM    4  C   UNL     1      62.059  10.754   2.242  1.00  0.00     0.118 C 
HETATM    5  C   UNL     1      61.666   9.550   1.388  1.00  0.00     0.032 C 
HETATM    6  C   UNL     1      62.050  10.431   3.736  1.00  0.00     0.032 C 
HETATM    7  C   UNL     1      63.468   6.812   3.479  1.00  0.00     0.015 C 
HETATM    8  C   UNL     1      61.073   7.476   3.618  1.00  0.00     0.015 C 
ENDROOT
BRANCH   4   9
HETATM    9  O   UNL     1      61.168  11.832   1.981  1.00  0.00    -0.396 OA
HETATM   10  H   UNL     1      60.648  12.021   2.778  1.00  0.00     0.210 HD
ENDBRANCH   4   9
TORSDOF 1
ENDMDL
MODEL 6
REMARK VINA RESULT:      -3.6      1.271      2.406
REMARK  1 active torsions:
REMARK  status: ('A' for Active; 'I' for Inactive)
REMARK    1  A    between atoms: C_4  and  O_7 
ROOT
HETATM    1  C   UNL     1      61.649   8.539   2.602  1.00  0.00    -0.048 C 
HETATM    2  C   UNL     1      61.312   9.525   3.743  1.00  0.00     0.011 C 
HETATM    3  C   UNL     1      62.549   7.410   3.158  1.00  0.00     0.011 C 
HETATM    4  C   UNL     1      63.461   8.939   4.946  1.00  0.00     0.118 C 
HETATM    5  C   UNL     1      63.807   7.944   3.841  1.00  0.00     0.032 C 
HETATM    6  C   UNL     1      62.557  10.066   4.448  1.00  0.00     0.032 C 
HETATM    7  C   UNL     1      60.355   7.925   2.052  1.00  0.00     0.015 C 
HETATM    8  C   UNL     1      62.356   9.273   1.443  1.00  0.00     0.015 C 
ENDROOT
BRANCH   4   9
HETATM    9  O   UNL     1      64.659   9.490   5.480  1.00  0.00    -0.396 OA
HETATM   10  H   UNL     1      65.324   9.561   4.777  1.00  0.00     0.210 HD
ENDBRANCH   4   9
TORSDOF 1
ENDMDL
MODEL 7
REMARK VINA RESULT:      -3.6      2.702      4.075
REMARK  1 active torsions:
REMARK  status: ('A' for Active; 'I' for Inactive)
REMARK    1  A    between atoms: C_4  and  O_7 
ROOT
HETATM    1  C   UNL     1      62.334   8.612   3.355  1.00  0.00    -0.048 C 
HETATM    2  C   UNL     1      62.413   8.653   1.812  1.00  0.00     0.011 C 
HETATM    3  C   UNL     1      61.251   7.592   3.780  1.00  0.00     0.011 C 
HETATM    4  C   UNL     1      59.990   7.948   1.624  1.00  0.00     0.118 C 
HETATM    5  C   UNL     1      59.892   7.882   3.146  1.00  0.00     0.032 C 
HETATM    6  C   UNL     1      61.061   8.932   1.155  1.00  0.00     0.032 C 
HETATM    7  C   UNL     1      63.688   8.176   3.930  1.00  0.00     0.015 C 
HETATM    8  C   UNL     1      62.009  10.013   3.918  1.00  0.00     0.015 C 
ENDROOT
BRANCH   4   9
HETATM    9  O   UNL     1      58.728   8.324   1.083  1.00  0.00    -0.396 OA
HETATM   10  H   UNL     1      58.820   8.487   0.131  1.00  0.00     0.210 HD
ENDBRANCH   4   9
TORSDOF 1
ENDMDL
MODEL 8
REMARK VINA RESULT:      -3.6      2.108      3.528
REMARK  1 active torsions:
REMARK  status: ('A' for Active; 'I' for Inactive)
REMARK    1  A    between atoms: C_4  and  O_7 
ROOT
HETATM    1  C   UNL     1      63.685   8.257   4.907  1.00  0.00    -0.048 C 
HETATM    2  C   UNL     1      63.359   9.766   4.839  1.00  0.00     0.011 C 
HETATM    3  C   UNL     1      63.746   7.687   3.470  1.00  0.00     0.011 C 
HETATM    4  C   UNL     1      62.143   9.451   2.641  1.00  0.00     0.118 C 
HETATM    5  C   UNL     1      62.470   7.959   2.676  1.00  0.00     0.032 C 
HETATM    6  C   UNL     1      62.089  10.064   4.039  1.00  0.00     0.032 C 
HETATM    7  C   UNL     1      65.046   8.054   5.586  1.00  0.00     0.015 C 
HETATM    8  C   UNL     1      62.622   7.510   5.741  1.00  0.00     0.015 C 
ENDROOT
BRANCH   4   9
HETATM    9  O   UNL     1      60.895   9.648   1.985  1.00  0.00    -0.396 OA
HETATM   10  H   UNL     1      60.798   8.995   1.274  1.00  0.00     0.210 HD
ENDBRANCH   4   9
TORSDOF 1
ENDMDL
MODEL 9
REMARK VINA RESULT:      -3.5      2.224      3.195
REMARK  1 active torsions:
REMARK  status: ('A' for Active; 'I' for Inactive)
REMARK    1  A    between atoms: C_4  and  O_7 
ROOT
HETATM    1  C   UNL     1      62.854   8.509   4.060  1.00  0.00    -0.048 C 
HETATM    2  C   UNL     1      62.107   7.472   4.931  1.00  0.00     0.011 C 
HETATM    3  C   UNL     1      64.351   8.121   3.984  1.00  0.00     0.011 C 
HETATM    4  C   UNL     1      64.224   6.964   6.223  1.00  0.00     0.118 C 
HETATM    5  C   UNL     1      64.988   7.969   5.364  1.00  0.00     0.032 C 
HETATM    6  C   UNL     1      62.735   7.296   6.314  1.00  0.00     0.032 C 
HETATM    7  C   UNL     1      62.265   8.515   2.644  1.00  0.00     0.015 C 
HETATM    8  C   UNL     1      62.692   9.927   4.648  1.00  0.00     0.015 C 
ENDROOT
BRANCH   4   9
HETATM    9  O   UNL     1      64.786   6.933   7.530  1.00  0.00    -0.396 OA
HETATM   10  H   UNL     1      65.746   6.805   7.466  1.00  0.00     0.210 HD
ENDBRANCH   4   9
TORSDOF 1
ENDMDL
