MODEL 1
REMARK VINA RESULT:      -4.2      0.000      0.000
REMARK  3 active torsions:
REMARK  status: ('A' for Active; 'I' for Inactive)
REMARK       I    between atoms: C_1  and  N_2 
REMARK    1  A    between atoms: C_1  and  O_6 
REMARK    2  A    between atoms: N_2  and  C_3 
REMARK    3  A    between atoms: O_6  and  C_10 
ROOT
HETATM    1  C   UNL     1      61.888  10.145   3.910  1.00  0.00     0.365 C 
HETATM    2  N   UNL     1      62.920   9.904   4.773  1.00  0.00    -0.302 N 
HETATM    3  O   UNL     1      61.596  11.313   3.665  1.00  0.00    -0.238 OA
HETATM    4  H   UNL     1      63.359  10.720   5.105  1.00  0.00     0.171 HD
ENDROOT
BRANCH   1   5
HETATM    5  O   UNL     1      61.244   9.064   3.397  1.00  0.00    -0.294 OA
BRANCH   5   6
HETATM    6  C   UNL     1      61.624   8.581   2.077  1.00  0.00     0.061 C 
HETATM    7  C   UNL     1      62.591   7.385   2.158  1.00  0.00     0.046 C 
HETATM    8  C   UNL     1      60.317   8.110   1.408  1.00  0.00     0.046 C 
HETATM    9  C   UNL     1      62.214   9.709   1.219  1.00  0.00     0.046 C 
ENDBRANCH   5   6
ENDBRANCH   1   5
BRANCH   2  10
HETATM   10  C   UNL     1      63.467   8.735   5.270  1.00  0.00     0.043 A 
HETATM   11  C   UNL     1      62.859   7.680   6.012  1.00  0.00     0.037 A 
HETATM   12  C   UNL     1      63.762   6.703   6.383  1.00  0.00     0.052 A 
HETATM   13  S   UNL     1      65.335   7.021   5.794  1.00  0.00    -0.111 SA
HETATM   14  C   UNL     1      64.806   8.465   5.047  1.00  0.00     0.079 A 
ENDBRANCH   2  10
TORSDOF 3
ENDMDL
MODEL 2
REMARK VINA RESULT:      -4.1      2.401      4.396
REMARK  3 active torsions:
REMARK  status: ('A' for Active; 'I' for Inactive)
REMARK       I    between atoms: C_1  and  N_2 
REMARK    1  A    between atoms: C_1  and  O_6 
REMARK    2  A    between atoms: N_2  and  C_3 
REMARK    3  A    between atoms: O_6  and  C_10 
ROOT
HETATM    1  C   UNL     1      63.155   9.933   5.053  1.00  0.00     0.365 C 
HETATM    2  N   UNL     1      62.026   9.969   4.282  1.00  0.00    -0.302 N 
HETATM    3  O   UNL     1      63.201  10.652   6.049  1.00  0.00    -0.238 OA
HETATM    4  H   UNL     1      61.328  10.570   4.628  1.00  0.00     0.171 HD
ENDROOT
BRANCH   1   5
HETATM    5  O   UNL     1      64.157   9.111   4.646  1.00  0.00    -0.294 OA
BRANCH   5   6
HETATM    6  C   UNL     1      64.265   7.787   5.242  1.00  0.00     0.061 C 
HETATM    7  C   UNL     1      63.042   7.445   6.113  1.00  0.00     0.046 C 
HETATM    8  C   UNL     1      64.319   6.797   4.062  1.00  0.00     0.046 C 
HETATM    9  C   UNL     1      65.569   7.640   6.041  1.00  0.00     0.046 C 
ENDBRANCH   5   6
ENDBRANCH   1   5
BRANCH   2  10
HETATM   10  C   UNL     1      61.676   9.323   3.110  1.00  0.00     0.043 A 
HETATM   11  C   UNL     1      62.025   9.620   1.760  1.00  0.00     0.037 A 
HETATM   12  C   UNL     1      61.420   8.768   0.856  1.00  0.00     0.052 A 
HETATM   13  S   UNL     1      60.474   7.573   1.629  1.00  0.00    -0.111 SA
HETATM   14  C   UNL     1      60.872   8.198   3.170  1.00  0.00     0.079 A 
ENDBRANCH   2  10
TORSDOF 3
ENDMDL
MODEL 3
REMARK VINA RESULT:      -4.0      3.402      5.171
REMARK  3 active torsions:
REMARK  status: ('A' for Active; 'I' for Inactive)
REMARK       I    between atoms: C_1  and  N_2 
REMARK    1  A    between atoms: C_1  and  O_6 
REMARK    2  A    between atoms: N_2  and  C_3 
REMARK    3  A    between atoms: O_6  and  C_10 
ROOT
HETATM    1  C   UNL     1      64.736   6.835   6.660  1.00  0.00     0.365 C 
HETATM    2  N   UNL     1      63.709   7.677   6.335  1.00  0.00    -0.302 N 
HETATM    3  O   UNL     1      65.143   6.835   7.819  1.00  0.00    -0.238 OA
HETATM    4  H   UNL     1      63.368   8.199   7.096  1.00  0.00     0.171 HD
ENDROOT
BRANCH   1   5
HETATM    5  O   UNL     1      65.248   6.068   5.661  1.00  0.00    -0.294 OA
BRANCH   5   6
HETATM    6  C   UNL     1      66.604   6.330   5.199  1.00  0.00     0.061 C 
HETATM    7  C   UNL     1      67.646   5.502   5.973  1.00  0.00     0.046 C 
HETATM    8  C   UNL     1      66.635   5.898   3.720  1.00  0.00     0.046 C 
HETATM    9  C   UNL     1      66.935   7.828   5.261  1.00  0.00     0.046 C 
ENDBRANCH   5   6
ENDBRANCH   1   5
BRANCH   2  10
HETATM   10  C   UNL     1      63.055   7.935   5.143  1.00  0.00     0.043 A 
HETATM   11  C   UNL     1      63.429   8.780   4.057  1.00  0.00     0.037 A 
HETATM   12  C   UNL     1      62.470   8.820   3.063  1.00  0.00     0.052 A 
HETATM   13  S   UNL     1      61.143   7.799   3.404  1.00  0.00    -0.111 SA
HETATM   14  C   UNL     1      61.850   7.308   4.882  1.00  0.00     0.079 A 
ENDBRANCH   2  10
TORSDOF 3
ENDMDL
MODEL 4
REMARK VINA RESULT:      -3.9      2.934      3.872
REMARK  3 active torsions:
REMARK  status: ('A' for Active; 'I' for Inactive)
REMARK       I    between atoms: C_1  and  N_2 
REMARK    1  A    between atoms: C_1  and  O_6 
REMARK    2  A    between atoms: N_2  and  C_3 
REMARK    3  A    between atoms: O_6  and  C_10 
ROOT
HETATM    1  C   UNL     1      65.120   8.764   5.587  1.00  0.00     0.365 C 
HETATM    2  N   UNL     1      65.803   8.110   6.575  1.00  0.00    -0.302 N 
HETATM    3  O   UNL     1      64.700   9.895   5.821  1.00  0.00    -0.238 OA
HETATM    4  H   UNL     1      65.916   8.641   7.396  1.00  0.00     0.171 HD
ENDROOT
BRANCH   1   5
HETATM    5  O   UNL     1      64.938   8.100   4.416  1.00  0.00    -0.294 OA
BRANCH   5   6
HETATM    6  C   UNL     1      63.594   7.675   4.050  1.00  0.00     0.061 C 
HETATM    7  C   UNL     1      62.810   8.793   3.339  1.00  0.00     0.046 C 
HETATM    8  C   UNL     1      63.776   6.502   3.066  1.00  0.00     0.046 C 
HETATM    9  C   UNL     1      62.823   7.152   5.271  1.00  0.00     0.046 C 
ENDBRANCH   5   6
ENDBRANCH   1   5
BRANCH   2  10
HETATM   10  C   UNL     1      66.365   6.849   6.643  1.00  0.00     0.043 A 
HETATM   11  C   UNL     1      67.487   6.306   5.949  1.00  0.00     0.037 A 
HETATM   12  C   UNL     1      67.700   4.974   6.247  1.00  0.00     0.052 A 
HETATM   13  S   UNL     1      66.589   4.385   7.404  1.00  0.00    -0.111 SA
HETATM   14  C   UNL     1      65.822   5.910   7.502  1.00  0.00     0.079 A 
ENDBRANCH   2  10
TORSDOF 3
ENDMDL
MODEL 5
REMARK VINA RESULT:      -3.6      2.556      3.445
REMARK  3 active torsions:
REMARK  status: ('A' for Active; 'I' for Inactive)
REMARK       I    between atoms: C_1  and  N_2 
REMARK    1  A    between atoms: C_1  and  O_6 
REMARK    2  A    between atoms: N_2  and  C_3 
REMARK    3  A    between atoms: O_6  and  C_10 
ROOT
HETATM    1  C   UNL     1      63.140   7.666   6.247  1.00  0.00     0.365 C 
HETATM    2  N   UNL     1      64.357   7.198   6.662  1.00  0.00    -0.302 N 
HETATM    3  O   UNL     1      62.212   7.664   7.052  1.00  0.00    -0.238 OA
HETATM    4  H   UNL     1      64.373   6.919   7.606  1.00  0.00     0.171 HD
ENDROOT
BRANCH   1   5
HETATM    5  O   UNL     1      63.045   8.085   4.958  1.00  0.00    -0.294 OA
BRANCH   5   6
HETATM    6  C   UNL     1      62.332   7.251   3.999  1.00  0.00     0.061 C 
HETATM    7  C   UNL     1      60.886   7.732   3.782  1.00  0.00     0.046 C 
HETATM    8  C   UNL     1      63.100   7.388   2.670  1.00  0.00     0.046 C 
HETATM    9  C   UNL     1      62.365   5.773   4.414  1.00  0.00     0.046 C 
ENDBRANCH   5   6
ENDBRANCH   1   5
BRANCH   2  10
HETATM   10  C   UNL     1      65.567   7.041   6.012  1.00  0.00     0.043 A 
HETATM   11  C   UNL     1      66.037   5.972   5.193  1.00  0.00     0.037 A 
HETATM   12  C   UNL     1      67.339   6.159   4.772  1.00  0.00     0.052 A 
HETATM   13  S   UNL     1      67.984   7.646   5.313  1.00  0.00    -0.111 SA
HETATM   14  C   UNL     1      66.524   8.036   6.111  1.00  0.00     0.079 A 
ENDBRANCH   2  10
TORSDOF 3
ENDMDL
MODEL 6
REMARK VINA RESULT:      -3.5      2.059      2.958
REMARK  3 active torsions:
REMARK  status: ('A' for Active; 'I' for Inactive)
REMARK       I    between atoms: C_1  and  N_2 
REMARK    1  A    between atoms: C_1  and  O_6 
REMARK    2  A    between atoms: N_2  and  C_3 
REMARK    3  A    between atoms: O_6  and  C_10 
ROOT
HETATM    1  C   UNL     1      63.539   7.286   2.951  1.00  0.00     0.365 C 
HETATM    2  N   UNL     1      64.298   6.548   3.818  1.00  0.00    -0.302 N 
HETATM    3  O   UNL     1      63.066   6.721   1.967  1.00  0.00    -0.238 OA
HETATM    4  H   UNL     1      64.370   5.598   3.571  1.00  0.00     0.171 HD
ENDROOT
BRANCH   1   5
HETATM    5  O   UNL     1      63.380   8.605   3.235  1.00  0.00    -0.294 OA
BRANCH   5   6
HETATM    6  C   UNL     1      62.057   9.198   3.100  1.00  0.00     0.061 C 
HETATM    7  C   UNL     1      60.947   8.249   3.590  1.00  0.00     0.046 C 
HETATM    8  C   UNL     1      62.063  10.451   3.998  1.00  0.00     0.046 C 
HETATM    9  C   UNL     1      61.795   9.652   1.657  1.00  0.00     0.046 C 
ENDBRANCH   5   6
ENDBRANCH   1   5
BRANCH   2  10
HETATM   10  C   UNL     1      64.981   6.879   4.973  1.00  0.00     0.043 A 
HETATM   11  C   UNL     1      65.965   7.886   5.201  1.00  0.00     0.037 A 
HETATM   12  C   UNL     1      66.461   7.861   6.490  1.00  0.00     0.052 A 
HETATM   13  S   UNL     1      65.706   6.665   7.449  1.00  0.00    -0.111 SA
HETATM   14  C   UNL     1      64.720   6.180   6.139  1.00  0.00     0.079 A 
ENDBRANCH   2  10
TORSDOF 3
ENDMDL
MODEL 7
REMARK VINA RESULT:      -3.3      1.712      2.084
REMARK  3 active torsions:
REMARK  status: ('A' for Active; 'I' for Inactive)
REMARK       I    between atoms: C_1  and  N_2 
REMARK    1  A    between atoms: C_1  and  O_6 
REMARK    2  A    between atoms: N_2  and  C_3 
REMARK    3  A    between atoms: O_6  and  C_10 
ROOT
HETATM    1  C   UNL     1      60.779   7.723   3.532  1.00  0.00     0.365 C 
HETATM    2  N   UNL     1      61.477   7.914   4.692  1.00  0.00    -0.302 N 
HETATM    3  O   UNL     1      59.554   7.815   3.569  1.00  0.00    -0.238 OA
HETATM    4  H   UNL     1      60.910   8.138   5.464  1.00  0.00     0.171 HD
ENDROOT
BRANCH   1   5
HETATM    5  O   UNL     1      61.497   7.426   2.418  1.00  0.00    -0.294 OA
BRANCH   5   6
HETATM    6  C   UNL     1      61.483   8.362   1.302  1.00  0.00     0.061 C 
HETATM    7  C   UNL     1      62.481   7.960   0.200  1.00  0.00     0.046 C 
HETATM    8  C   UNL     1      60.058   8.301   0.718  1.00  0.00     0.046 C 
HETATM    9  C   UNL     1      61.738   9.800   1.778  1.00  0.00     0.046 C 
ENDBRANCH   5   6
ENDBRANCH   1   5
BRANCH   2  10
HETATM   10  C   UNL     1      62.826   7.852   4.990  1.00  0.00     0.043 A 
HETATM   11  C   UNL     1      63.880   8.755   4.662  1.00  0.00     0.037 A 
HETATM   12  C   UNL     1      65.114   8.307   5.090  1.00  0.00     0.052 A 
HETATM   13  S   UNL     1      65.006   6.827   5.937  1.00  0.00    -0.111 SA
HETATM   14  C   UNL     1      63.310   6.785   5.727  1.00  0.00     0.079 A 
ENDBRANCH   2  10
TORSDOF 3
ENDMDL
MODEL 8
REMARK VINA RESULT:      -3.3      3.080      3.966
REMARK  3 active torsions:
REMARK  status: ('A' for Active; 'I' for Inactive)
REMARK       I    between atoms: C_1  and  N_2 
REMARK    1  A    between atoms: C_1  and  O_6 
REMARK    2  A    between atoms: N_2  and  C_3 
REMARK    3  A    between atoms: O_6  and  C_10 
ROOT
HETATM    1  C   UNL     1      60.294   7.637   2.656  1.00  0.00     0.365 C 
HETATM    2  N   UNL     1      60.013   6.525   3.401  1.00  0.00    -0.302 N 
HETATM    3  O   UNL     1      60.231   7.548   1.433  1.00  0.00    -0.238 OA
HETATM    4  H   UNL     1      59.755   5.743   2.863  1.00  0.00     0.171 HD
ENDROOT
BRANCH   1   5
HETATM    5  O   UNL     1      60.642   8.763   3.332  1.00  0.00    -0.294 OA
BRANCH   5   6
HETATM    6  C   UNL     1      61.944   9.363   3.073  1.00  0.00     0.061 C 
HETATM    7  C   UNL     1      61.989  10.074   1.708  1.00  0.00     0.046 C 
HETATM    8  C   UNL     1      62.151  10.415   4.180  1.00  0.00     0.046 C 
HETATM    9  C   UNL     1      63.070   8.325   3.191  1.00  0.00     0.046 C 
ENDBRANCH   5   6
ENDBRANCH   1   5
BRANCH   2  10
HETATM   10  C   UNL     1      60.021   6.288   4.764  1.00  0.00     0.043 A 
HETATM   11  C   UNL     1      61.118   6.154   5.665  1.00  0.00     0.037 A 
HETATM   12  C   UNL     1      60.713   5.857   6.952  1.00  0.00     0.052 A 
HETATM   13  S   UNL     1      59.011   5.793   7.095  1.00  0.00    -0.111 SA
HETATM   14  C   UNL     1      58.818   6.160   5.436  1.00  0.00     0.079 A 
ENDBRANCH   2  10
TORSDOF 3
ENDMDL
MODEL 9
REMARK VINA RESULT:      -3.2     11.906     13.557
REMARK  3 active torsions:
REMARK  status: ('A' for Active; 'I' for Inactive)
REMARK       I    between atoms: C_1  and  N_2 
REMARK    1  A    between atoms: C_1  and  O_6 
REMARK    2  A    between atoms: N_2  and  C_3 
REMARK    3  A    between atoms: O_6  and  C_10 
ROOT
HETATM    1  C   UNL     1      57.617   2.346  11.902  1.00  0.00     0.365 C 
HETATM    2  N   UNL     1      56.414   2.885  12.265  1.00  0.00    -0.302 N 
HETATM    3  O   UNL     1      58.425   3.067  11.322  1.00  0.00    -0.238 OA
HETATM    4  H   UNL     1      56.323   3.839  12.041  1.00  0.00     0.171 HD
ENDROOT
BRANCH   1   5
HETATM    5  O   UNL     1      57.821   1.035  12.195  1.00  0.00    -0.294 OA
BRANCH   5   6
HETATM    6  C   UNL     1      58.758   0.690  13.256  1.00  0.00     0.061 C 
HETATM    7  C   UNL     1      58.704   1.695  14.421  1.00  0.00     0.046 C 
HETATM    8  C   UNL     1      58.314  -0.690  13.778  1.00  0.00     0.046 C 
HETATM    9  C   UNL     1      60.188   0.553  12.713  1.00  0.00     0.046 C 
ENDBRANCH   5   6
ENDBRANCH   1   5
BRANCH   2  10
HETATM   10  C   UNL     1      55.301   2.350  12.888  1.00  0.00     0.043 A 
HETATM   11  C   UNL     1      54.918   2.375  14.261  1.00  0.00     0.037 A 
HETATM   12  C   UNL     1      53.756   1.667  14.500  1.00  0.00     0.052 A 
HETATM   13  S   UNL     1      53.090   1.016  13.067  1.00  0.00    -0.111 SA
HETATM   14  C   UNL     1      54.357   1.678  12.130  1.00  0.00     0.079 A 
ENDBRANCH   2  10
TORSDOF 3
ENDMDL
