MODEL 1
REMARK VINA RESULT:      -4.7      0.000      0.000
REMARK  2 active torsions:
REMARK  status: ('A' for Active; 'I' for Inactive)
REMARK    1  A    between atoms: C_1  and  C_2 
REMARK    2  A    between atoms: C_1  and  N_12 
ROOT
HETATM    1  C   UNL     1      62.251   8.680   2.123  1.00  0.00     0.004 A 
HETATM    2  C   UNL     1      62.715   9.721   4.219  1.00  0.00     0.105 A 
HETATM    3  C   UNL     1      62.783   8.599   3.421  1.00  0.00     0.054 A 
HETATM    4  C   UNL     1      62.169  10.900   3.774  1.00  0.00     0.105 A 
HETATM    5  O   UNL     1      63.154   9.803   5.502  1.00  0.00    -0.323 OA
HETATM    6  O   UNL     1      62.194  11.873   4.724  1.00  0.00    -0.323 OA
HETATM    7  C   UNL     1      62.771  11.154   5.833  1.00  0.00     0.352 A 
HETATM    8  C   UNL     1      61.701   9.902   1.668  1.00  0.00     0.017 A 
HETATM    9  C   UNL     1      61.663  11.028   2.500  1.00  0.00     0.040 A 
ENDROOT
BRANCH   1  10
HETATM   10  C   UNL     1      62.256   7.471   1.251  1.00  0.00     0.104 C 
HETATM   11  S   UNL     1      63.249   6.140   1.437  1.00  0.00    -0.060 SA
BRANCH  10  12
HETATM   12  N   UNL     1      61.373   7.472   0.200  1.00  0.00    -0.390 N 
HETATM   13  H   UNL     1      60.423   7.680   0.356  1.00  0.00     0.157 HD
HETATM   14  H   UNL     1      61.689   7.264  -0.708  1.00  0.00     0.157 HD
ENDBRANCH  10  12
ENDBRANCH   1  10
TORSDOF 2
ENDMDL
MODEL 2
REMARK VINA RESULT:      -4.6      3.088      4.028
REMARK  2 active torsions:
REMARK  status: ('A' for Active; 'I' for Inactive)
REMARK    1  A    between atoms: C_1  and  C_2 
REMARK    2  A    between atoms: C_1  and  N_12 
ROOT
HETATM    1  C   UNL     1      62.969   8.757   3.735  1.00  0.00     0.004 A 
HETATM    2  C   UNL     1      64.826   8.619   5.226  1.00  0.00     0.105 A 
HETATM    3  C   UNL     1      63.699   9.294   4.809  1.00  0.00     0.054 A 
HETATM    4  C   UNL     1      65.231   7.444   4.641  1.00  0.00     0.105 A 
HETATM    5  O   UNL     1      65.658   9.015   6.226  1.00  0.00    -0.323 OA
HETATM    6  O   UNL     1      66.370   6.954   5.199  1.00  0.00    -0.323 OA
HETATM    7  C   UNL     1      66.664   7.982   6.166  1.00  0.00     0.352 A 
HETATM    8  C   UNL     1      63.386   7.540   3.146  1.00  0.00     0.017 A 
HETATM    9  C   UNL     1      64.527   6.871   3.606  1.00  0.00     0.040 A 
ENDROOT
BRANCH   1  10
HETATM   10  C   UNL     1      61.777   9.489   3.220  1.00  0.00     0.104 C 
HETATM   11  S   UNL     1      61.789  11.013   2.535  1.00  0.00    -0.060 SA
BRANCH  10  12
HETATM   12  N   UNL     1      60.569   8.847   3.339  1.00  0.00    -0.390 N 
HETATM   13  H   UNL     1      60.470   7.922   3.016  1.00  0.00     0.157 HD
HETATM   14  H   UNL     1      59.803   9.312   3.744  1.00  0.00     0.157 HD
ENDBRANCH  10  12
ENDBRANCH   1  10
TORSDOF 2
ENDMDL
MODEL 3
REMARK VINA RESULT:      -4.6      2.851      3.614
REMARK  2 active torsions:
REMARK  status: ('A' for Active; 'I' for Inactive)
REMARK    1  A    between atoms: C_1  and  C_2 
REMARK    2  A    between atoms: C_1  and  N_12 
ROOT
HETATM    1  C   UNL     1      62.719   8.077   4.582  1.00  0.00     0.004 A 
HETATM    2  C   UNL     1      62.255  10.229   3.662  1.00  0.00     0.105 A 
HETATM    3  C   UNL     1      62.522   9.455   4.772  1.00  0.00     0.054 A 
HETATM    4  C   UNL     1      62.200   9.696   2.397  1.00  0.00     0.105 A 
HETATM    5  O   UNL     1      62.011  11.566   3.673  1.00  0.00    -0.323 OA
HETATM    6  O   UNL     1      61.913  10.631   1.453  1.00  0.00    -0.323 OA
HETATM    7  C   UNL     1      61.742  11.804   2.276  1.00  0.00     0.352 A 
HETATM    8  C   UNL     1      62.673   7.538   3.274  1.00  0.00     0.017 A 
HETATM    9  C   UNL     1      62.416   8.355   2.167  1.00  0.00     0.040 A 
ENDROOT
BRANCH   1  10
HETATM   10  C   UNL     1      62.955   7.200   5.764  1.00  0.00     0.104 C 
HETATM   11  S   UNL     1      62.134   5.786   6.108  1.00  0.00    -0.060 SA
BRANCH  10  12
HETATM   12  N   UNL     1      63.924   7.611   6.645  1.00  0.00    -0.390 N 
HETATM   13  H   UNL     1      64.584   8.288   6.370  1.00  0.00     0.157 HD
HETATM   14  H   UNL     1      63.961   7.228   7.550  1.00  0.00     0.157 HD
ENDBRANCH  10  12
ENDBRANCH   1  10
TORSDOF 2
ENDMDL
MODEL 4
REMARK VINA RESULT:      -4.5      2.338      3.156
REMARK  2 active torsions:
REMARK  status: ('A' for Active; 'I' for Inactive)
REMARK    1  A    between atoms: C_1  and  C_2 
REMARK    2  A    between atoms: C_1  and  N_12 
ROOT
HETATM    1  C   UNL     1      63.194   8.099   4.218  1.00  0.00     0.004 A 
HETATM    2  C   UNL     1      62.336   9.807   2.790  1.00  0.00     0.105 A 
HETATM    3  C   UNL     1      62.750   8.501   2.947  1.00  0.00     0.054 A 
HETATM    4  C   UNL     1      62.329  10.700   3.834  1.00  0.00     0.105 A 
HETATM    5  O   UNL     1      61.907  10.364   1.627  1.00  0.00    -0.323 OA
HETATM    6  O   UNL     1      61.895  11.933   3.458  1.00  0.00    -0.323 OA
HETATM    7  C   UNL     1      61.680  11.726   2.046  1.00  0.00     0.352 A 
HETATM    8  C   UNL     1      63.172   9.021   5.290  1.00  0.00     0.017 A 
HETATM    9  C   UNL     1      62.730  10.336   5.100  1.00  0.00     0.040 A 
ENDROOT
BRANCH   1  10
HETATM   10  C   UNL     1      63.701   6.710   4.412  1.00  0.00     0.104 C 
HETATM   11  S   UNL     1      63.553   5.805   5.808  1.00  0.00    -0.060 SA
BRANCH  10  12
HETATM   12  N   UNL     1      64.355   6.145   3.345  1.00  0.00    -0.390 N 
HETATM   13  H   UNL     1      63.930   5.416   2.838  1.00  0.00     0.157 HD
HETATM   14  H   UNL     1      65.248   6.467   3.089  1.00  0.00     0.157 HD
ENDBRANCH  10  12
ENDBRANCH   1  10
TORSDOF 2
ENDMDL
MODEL 5
REMARK VINA RESULT:      -4.4      2.317      3.005
REMARK  2 active torsions:
REMARK  status: ('A' for Active; 'I' for Inactive)
REMARK    1  A    between atoms: C_1  and  C_2 
REMARK    2  A    between atoms: C_1  and  N_12 
ROOT
HETATM    1  C   UNL     1      62.122   8.666   3.366  1.00  0.00     0.004 A 
HETATM    2  C   UNL     1      64.221   8.043   4.314  1.00  0.00     0.105 A 
HETATM    3  C   UNL     1      63.209   7.776   3.417  1.00  0.00     0.054 A 
HETATM    4  C   UNL     1      64.202   9.150   5.127  1.00  0.00     0.105 A 
HETATM    5  O   UNL     1      65.324   7.273   4.511  1.00  0.00    -0.323 OA
HETATM    6  O   UNL     1      65.290   9.215   5.939  1.00  0.00    -0.323 OA
HETATM    7  C   UNL     1      65.970   7.994   5.581  1.00  0.00     0.352 A 
HETATM    8  C   UNL     1      62.116   9.810   4.198  1.00  0.00     0.017 A 
HETATM    9  C   UNL     1      63.169  10.060   5.086  1.00  0.00     0.040 A 
ENDROOT
BRANCH   1  10
HETATM   10  C   UNL     1      60.983   8.379   2.448  1.00  0.00     0.104 C 
HETATM   11  S   UNL     1      61.071   8.295   0.782  1.00  0.00    -0.060 SA
BRANCH  10  12
HETATM   12  N   UNL     1      59.759   8.183   3.038  1.00  0.00    -0.390 N 
HETATM   13  H   UNL     1      59.543   8.635   3.885  1.00  0.00     0.157 HD
HETATM   14  H   UNL     1      59.098   7.591   2.613  1.00  0.00     0.157 HD
ENDBRANCH  10  12
ENDBRANCH   1  10
TORSDOF 2
ENDMDL
MODEL 6
REMARK VINA RESULT:      -4.4      1.196      2.079
REMARK  2 active torsions:
REMARK  status: ('A' for Active; 'I' for Inactive)
REMARK    1  A    between atoms: C_1  and  C_2 
REMARK    2  A    between atoms: C_1  and  N_12 
ROOT
HETATM    1  C   UNL     1      61.861   8.594   2.491  1.00  0.00     0.004 A 
HETATM    2  C   UNL     1      62.234  10.262   4.156  1.00  0.00     0.105 A 
HETATM    3  C   UNL     1      61.528   9.840   3.050  1.00  0.00     0.054 A 
HETATM    4  C   UNL     1      63.222   9.496   4.726  1.00  0.00     0.105 A 
HETATM    5  O   UNL     1      62.059  11.447   4.798  1.00  0.00    -0.323 OA
HETATM    6  O   UNL     1      63.794  10.106   5.798  1.00  0.00    -0.323 OA
HETATM    7  C   UNL     1      63.089  11.364   5.805  1.00  0.00     0.352 A 
HETATM    8  C   UNL     1      62.872   7.807   3.091  1.00  0.00     0.017 A 
HETATM    9  C   UNL     1      63.558   8.259   4.225  1.00  0.00     0.040 A 
ENDROOT
BRANCH   1  10
HETATM   10  C   UNL     1      61.157   8.130   1.261  1.00  0.00     0.104 C 
HETATM   11  S   UNL     1      61.714   6.966   0.200  1.00  0.00    -0.060 SA
BRANCH  10  12
HETATM   12  N   UNL     1      59.954   8.731   0.984  1.00  0.00    -0.390 N 
HETATM   13  H   UNL     1      59.397   8.397   0.244  1.00  0.00     0.157 HD
HETATM   14  H   UNL     1      59.650   9.496   1.523  1.00  0.00     0.157 HD
ENDBRANCH  10  12
ENDBRANCH   1  10
TORSDOF 2
ENDMDL
MODEL 7
REMARK VINA RESULT:      -4.4      3.449      4.028
REMARK  2 active torsions:
REMARK  status: ('A' for Active; 'I' for Inactive)
REMARK    1  A    between atoms: C_1  and  C_2 
REMARK    2  A    between atoms: C_1  and  N_12 
ROOT
HETATM    1  C   UNL     1      65.448   7.102   4.476  1.00  0.00     0.004 A 
HETATM    2  C   UNL     1      64.378   9.127   5.144  1.00  0.00     0.105 A 
HETATM    3  C   UNL     1      65.441   8.258   5.273  1.00  0.00     0.054 A 
HETATM    4  C   UNL     1      63.356   8.901   4.254  1.00  0.00     0.105 A 
HETATM    5  O   UNL     1      64.202  10.270   5.857  1.00  0.00    -0.323 OA
HETATM    6  O   UNL     1      62.407   9.874   4.297  1.00  0.00    -0.323 OA
HETATM    7  C   UNL     1      62.923  10.710   5.353  1.00  0.00     0.352 A 
HETATM    8  C   UNL     1      64.398   6.883   3.553  1.00  0.00     0.017 A 
HETATM    9  C   UNL     1      63.342   7.793   3.435  1.00  0.00     0.040 A 
ENDROOT
BRANCH   1  10
HETATM   10  C   UNL     1      66.553   6.113   4.628  1.00  0.00     0.104 C 
HETATM   11  S   UNL     1      66.930   5.280   6.027  1.00  0.00    -0.060 SA
BRANCH  10  12
HETATM   12  N   UNL     1      67.328   5.888   3.517  1.00  0.00    -0.390 N 
HETATM   13  H   UNL     1      66.934   5.966   2.619  1.00  0.00     0.157 HD
HETATM   14  H   UNL     1      68.276   5.646   3.620  1.00  0.00     0.157 HD
ENDBRANCH  10  12
ENDBRANCH   1  10
TORSDOF 2
ENDMDL
MODEL 8
REMARK VINA RESULT:      -4.3      2.890      3.854
REMARK  2 active torsions:
REMARK  status: ('A' for Active; 'I' for Inactive)
REMARK    1  A    between atoms: C_1  and  C_2 
REMARK    2  A    between atoms: C_1  and  N_12 
ROOT
HETATM    1  C   UNL     1      62.298   8.191   4.130  1.00  0.00     0.004 A 
HETATM    2  C   UNL     1      64.470   8.353   5.106  1.00  0.00     0.105 A 
HETATM    3  C   UNL     1      63.584   8.758   4.129  1.00  0.00     0.054 A 
HETATM    4  C   UNL     1      64.122   7.442   6.074  1.00  0.00     0.105 A 
HETATM    5  O   UNL     1      65.755   8.777   5.230  1.00  0.00    -0.323 OA
HETATM    6  O   UNL     1      65.146   7.178   6.928  1.00  0.00    -0.323 OA
HETATM    7  C   UNL     1      66.194   7.987   6.354  1.00  0.00     0.352 A 
HETATM    8  C   UNL     1      61.944   7.263   5.138  1.00  0.00     0.017 A 
HETATM    9  C   UNL     1      62.863   6.887   6.125  1.00  0.00     0.040 A 
ENDROOT
BRANCH   1  10
HETATM   10  C   UNL     1      61.332   8.563   3.058  1.00  0.00     0.104 C 
HETATM   11  S   UNL     1      61.726   9.258   1.590  1.00  0.00    -0.060 SA
BRANCH  10  12
HETATM   12  N   UNL     1      60.007   8.320   3.319  1.00  0.00    -0.390 N 
HETATM   13  H   UNL     1      59.311   8.832   2.847  1.00  0.00     0.157 HD
HETATM   14  H   UNL     1      59.753   7.635   3.978  1.00  0.00     0.157 HD
ENDBRANCH  10  12
ENDBRANCH   1  10
TORSDOF 2
ENDMDL
MODEL 9
REMARK VINA RESULT:      -4.1      4.216      5.422
REMARK  2 active torsions:
REMARK  status: ('A' for Active; 'I' for Inactive)
REMARK    1  A    between atoms: C_1  and  C_2 
REMARK    2  A    between atoms: C_1  and  N_12 
ROOT
HETATM    1  C   UNL     1      63.615   8.769   5.399  1.00  0.00     0.004 A 
HETATM    2  C   UNL     1      65.505   7.316   5.474  1.00  0.00     0.105 A 
HETATM    3  C   UNL     1      64.992   8.567   5.206  1.00  0.00     0.054 A 
HETATM    4  C   UNL     1      64.719   6.289   5.938  1.00  0.00     0.105 A 
HETATM    5  O   UNL     1      66.802   6.944   5.314  1.00  0.00    -0.323 OA
HETATM    6  O   UNL     1      65.424   5.141   6.125  1.00  0.00    -0.323 OA
HETATM    7  C   UNL     1      66.732   5.550   5.677  1.00  0.00     0.352 A 
HETATM    8  C   UNL     1      62.814   7.710   5.888  1.00  0.00     0.017 A 
HETATM    9  C   UNL     1      63.371   6.456   6.166  1.00  0.00     0.040 A 
ENDROOT
BRANCH   1  10
HETATM   10  C   UNL     1      63.014  10.093   5.067  1.00  0.00     0.104 C 
HETATM   11  S   UNL     1      61.981  10.401   3.790  1.00  0.00    -0.060 SA
BRANCH  10  12
HETATM   12  N   UNL     1      63.361  11.142   5.881  1.00  0.00    -0.390 N 
HETATM   13  H   UNL     1      63.970  10.994   6.641  1.00  0.00     0.157 HD
HETATM   14  H   UNL     1      63.000  12.040   5.707  1.00  0.00     0.157 HD
ENDBRANCH  10  12
ENDBRANCH   1  10
TORSDOF 2
ENDMDL
