MODEL 1
REMARK VINA RESULT:      -5.5      0.000      0.000
REMARK  1 active torsions:
REMARK  status: ('A' for Active; 'I' for Inactive)
REMARK    1  A    between atoms: C_1  and  C_3 
ROOT
HETATM    1  C   UNL     1      62.827   9.646   4.277  1.00  0.00     0.074 A 
HETATM    2  C   UNL     1      62.702   8.998   3.057  1.00  0.00     0.092 A 
HETATM    3  O   UNL     1      63.100   7.713   2.777  1.00  0.00    -0.349 OA
HETATM    4  C   UNL     1      62.153   9.634   1.946  1.00  0.00    -0.022 A 
HETATM    5  C   UNL     1      62.353  10.968   4.358  1.00  0.00     0.021 A 
HETATM    6  C   UNL     1      62.472   7.415   1.512  1.00  0.00     0.180 C 
HETATM    7  C   UNL     1      61.801  11.609   3.234  1.00  0.00     0.002 A 
HETATM    8  C   UNL     1      62.210   8.725   0.777  1.00  0.00     0.068 C 
HETATM    9  C   UNL     1      61.709  10.943   2.011  1.00  0.00     0.010 A 
ENDROOT
BRANCH   1  10
HETATM   10  C   UNL     1      63.430   8.960   5.447  1.00  0.00     0.212 C 
HETATM   11  O   UNL     1      62.886   8.222   6.245  1.00  0.00    -0.644 OA
HETATM   12  O   UNL     1      64.744   9.234   5.572  1.00  0.00    -0.644 OA
ENDBRANCH   1  10
TORSDOF 1
ENDMDL
MODEL 2
REMARK VINA RESULT:      -5.4      2.071      3.706
REMARK  1 active torsions:
REMARK  status: ('A' for Active; 'I' for Inactive)
REMARK    1  A    between atoms: C_1  and  C_3 
ROOT
HETATM    1  C   UNL     1      63.089   9.689   4.652  1.00  0.00     0.074 A 
HETATM    2  C   UNL     1      64.235   8.954   4.920  1.00  0.00     0.092 A 
HETATM    3  O   UNL     1      65.217   9.286   5.820  1.00  0.00    -0.349 OA
HETATM    4  C   UNL     1      64.512   7.764   4.250  1.00  0.00    -0.022 A 
HETATM    5  C   UNL     1      62.201   9.173   3.691  1.00  0.00     0.021 A 
HETATM    6  C   UNL     1      65.995   8.077   5.959  1.00  0.00     0.180 C 
HETATM    7  C   UNL     1      62.484   7.972   3.014  1.00  0.00     0.002 A 
HETATM    8  C   UNL     1      65.825   7.241   4.694  1.00  0.00     0.068 C 
HETATM    9  C   UNL     1      63.656   7.264   3.285  1.00  0.00     0.010 A 
ENDROOT
BRANCH   1  10
HETATM   10  C   UNL     1      62.816  10.963   5.362  1.00  0.00     0.212 C 
HETATM   11  O   UNL     1      63.168  11.288   6.479  1.00  0.00    -0.644 OA
HETATM   12  O   UNL     1      62.086  11.814   4.613  1.00  0.00    -0.644 OA
ENDBRANCH   1  10
TORSDOF 1
ENDMDL
MODEL 3
REMARK VINA RESULT:      -5.2      1.808      3.452
REMARK  1 active torsions:
REMARK  status: ('A' for Active; 'I' for Inactive)
REMARK    1  A    between atoms: C_1  and  C_3 
ROOT
HETATM    1  C   UNL     1      64.521   8.083   5.010  1.00  0.00     0.074 A 
HETATM    2  C   UNL     1      63.592   9.096   4.822  1.00  0.00     0.092 A 
HETATM    3  O   UNL     1      63.368  10.157   5.665  1.00  0.00    -0.349 OA
HETATM    4  C   UNL     1      62.748   9.114   3.714  1.00  0.00    -0.022 A 
HETATM    5  C   UNL     1      64.596   7.083   4.024  1.00  0.00     0.021 A 
HETATM    6  C   UNL     1      62.564  11.067   4.883  1.00  0.00     0.180 C 
HETATM    7  C   UNL     1      63.741   7.103   2.907  1.00  0.00     0.002 A 
HETATM    8  C   UNL     1      61.825  10.269   3.814  1.00  0.00     0.068 C 
HETATM    9  C   UNL     1      62.798   8.120   2.753  1.00  0.00     0.010 A 
ENDROOT
BRANCH   1  10
HETATM   10  C   UNL     1      65.401   8.069   6.205  1.00  0.00     0.212 C 
HETATM   11  O   UNL     1      66.363   8.776   6.436  1.00  0.00    -0.644 OA
HETATM   12  O   UNL     1      65.025   7.133   7.100  1.00  0.00    -0.644 OA
ENDBRANCH   1  10
TORSDOF 1
ENDMDL
MODEL 4
REMARK VINA RESULT:      -4.9      1.815      2.774
REMARK  1 active torsions:
REMARK  status: ('A' for Active; 'I' for Inactive)
REMARK    1  A    between atoms: C_1  and  C_3 
ROOT
HETATM    1  C   UNL     1      63.217   9.787   4.841  1.00  0.00     0.074 A 
HETATM    2  C   UNL     1      62.574  10.128   3.660  1.00  0.00     0.092 A 
HETATM    3  O   UNL     1      62.073  11.365   3.338  1.00  0.00    -0.349 OA
HETATM    4  C   UNL     1      62.351   9.190   2.654  1.00  0.00    -0.022 A 
HETATM    5  C   UNL     1      63.659   8.459   4.976  1.00  0.00     0.021 A 
HETATM    6  C   UNL     1      61.809  11.283   1.921  1.00  0.00     0.180 C 
HETATM    7  C   UNL     1      63.431   7.513   3.960  1.00  0.00     0.002 A 
HETATM    8  C   UNL     1      61.591   9.820   1.549  1.00  0.00     0.068 C 
HETATM    9  C   UNL     1      62.759   7.875   2.791  1.00  0.00     0.010 A 
ENDROOT
BRANCH   1  10
HETATM   10  C   UNL     1      63.431  10.793   5.910  1.00  0.00     0.212 C 
HETATM   11  O   UNL     1      62.600  11.481   6.470  1.00  0.00    -0.644 OA
HETATM   12  O   UNL     1      64.732  10.901   6.250  1.00  0.00    -0.644 OA
ENDBRANCH   1  10
TORSDOF 1
ENDMDL
MODEL 5
REMARK VINA RESULT:      -4.8      1.845      2.845
REMARK  1 active torsions:
REMARK  status: ('A' for Active; 'I' for Inactive)
REMARK    1  A    between atoms: C_1  and  C_3 
ROOT
HETATM    1  C   UNL     1      63.048   9.666   4.415  1.00  0.00     0.074 A 
HETATM    2  C   UNL     1      62.582   9.254   3.175  1.00  0.00     0.092 A 
HETATM    3  O   UNL     1      61.718   9.946   2.362  1.00  0.00    -0.349 OA
HETATM    4  C   UNL     1      62.954   8.028   2.628  1.00  0.00    -0.022 A 
HETATM    5  C   UNL     1      63.933   8.808   5.091  1.00  0.00     0.021 A 
HETATM    6  C   UNL     1      61.806   9.267   1.091  1.00  0.00     0.180 C 
HETATM    7  C   UNL     1      64.305   7.569   4.537  1.00  0.00     0.002 A 
HETATM    8  C   UNL     1      62.255   7.830   1.336  1.00  0.00     0.068 C 
HETATM    9  C   UNL     1      63.803   7.166   3.299  1.00  0.00     0.010 A 
ENDROOT
BRANCH   1  10
HETATM   10  C   UNL     1      62.629  10.967   4.992  1.00  0.00     0.212 C 
HETATM   11  O   UNL     1      61.951  11.833   4.474  1.00  0.00    -0.644 OA
HETATM   12  O   UNL     1      63.092  11.138   6.247  1.00  0.00    -0.644 OA
ENDBRANCH   1  10
TORSDOF 1
ENDMDL
MODEL 6
REMARK VINA RESULT:      -4.7      1.587      3.644
REMARK  1 active torsions:
REMARK  status: ('A' for Active; 'I' for Inactive)
REMARK    1  A    between atoms: C_1  and  C_3 
ROOT
HETATM    1  C   UNL     1      62.228   9.506   2.586  1.00  0.00     0.074 A 
HETATM    2  C   UNL     1      63.013   8.706   3.404  1.00  0.00     0.092 A 
HETATM    3  O   UNL     1      63.491   7.456   3.096  1.00  0.00    -0.349 OA
HETATM    4  C   UNL     1      63.386   9.115   4.682  1.00  0.00    -0.022 A 
HETATM    5  C   UNL     1      61.841  10.762   3.089  1.00  0.00     0.021 A 
HETATM    6  C   UNL     1      64.489   7.199   4.107  1.00  0.00     0.180 C 
HETATM    7  C   UNL     1      62.218  11.171   4.382  1.00  0.00     0.002 A 
HETATM    8  C   UNL     1      64.161   8.036   5.340  1.00  0.00     0.068 C 
HETATM    9  C   UNL     1      62.988  10.337   5.194  1.00  0.00     0.010 A 
ENDROOT
BRANCH   1  10
HETATM   10  C   UNL     1      61.824   9.050   1.233  1.00  0.00     0.212 C 
HETATM   11  O   UNL     1      62.514   8.955   0.238  1.00  0.00    -0.644 OA
HETATM   12  O   UNL     1      60.519   8.714   1.181  1.00  0.00    -0.644 OA
ENDBRANCH   1  10
TORSDOF 1
ENDMDL
MODEL 7
REMARK VINA RESULT:      -4.7      1.487      3.081
REMARK  1 active torsions:
REMARK  status: ('A' for Active; 'I' for Inactive)
REMARK    1  A    between atoms: C_1  and  C_3 
ROOT
HETATM    1  C   UNL     1      62.189   8.142   3.340  1.00  0.00     0.074 A 
HETATM    2  C   UNL     1      61.979   9.498   3.136  1.00  0.00     0.092 A 
HETATM    3  O   UNL     1      61.721  10.434   4.108  1.00  0.00    -0.349 OA
HETATM    4  C   UNL     1      61.991  10.054   1.858  1.00  0.00    -0.022 A 
HETATM    5  C   UNL     1      62.441   7.350   2.206  1.00  0.00     0.021 A 
HETATM    6  C   UNL     1      61.903  11.700   3.439  1.00  0.00     0.180 C 
HETATM    7  C   UNL     1      62.450   7.913   0.917  1.00  0.00     0.002 A 
HETATM    8  C   UNL     1      61.673  11.499   1.945  1.00  0.00     0.068 C 
HETATM    9  C   UNL     1      62.211   9.276   0.736  1.00  0.00     0.010 A 
ENDROOT
BRANCH   1  10
HETATM   10  C   UNL     1      62.156   7.563   4.706  1.00  0.00     0.212 C 
HETATM   11  O   UNL     1      63.030   7.587   5.551  1.00  0.00    -0.644 OA
HETATM   12  O   UNL     1      60.982   6.954   4.969  1.00  0.00    -0.644 OA
ENDBRANCH   1  10
TORSDOF 1
ENDMDL
MODEL 8
REMARK VINA RESULT:      -4.7      1.377      3.211
REMARK  1 active torsions:
REMARK  status: ('A' for Active; 'I' for Inactive)
REMARK    1  A    between atoms: C_1  and  C_3 
ROOT
HETATM    1  C   UNL     1      62.870   8.170   3.055  1.00  0.00     0.074 A 
HETATM    2  C   UNL     1      62.699   9.309   3.828  1.00  0.00     0.092 A 
HETATM    3  O   UNL     1      62.983   9.429   5.167  1.00  0.00    -0.349 OA
HETATM    4  C   UNL     1      62.178  10.484   3.291  1.00  0.00    -0.022 A 
HETATM    5  C   UNL     1      62.519   8.253   1.695  1.00  0.00     0.021 A 
HETATM    6  C   UNL     1      62.942  10.852   5.411  1.00  0.00     0.180 C 
HETATM    7  C   UNL     1      61.991   9.440   1.156  1.00  0.00     0.002 A 
HETATM    8  C   UNL     1      62.049  11.502   4.360  1.00  0.00     0.068 C 
HETATM    9  C   UNL     1      61.805  10.565   1.961  1.00  0.00     0.010 A 
ENDROOT
BRANCH   1  10
HETATM   10  C   UNL     1      63.411   6.921   3.646  1.00  0.00     0.212 C 
HETATM   11  O   UNL     1      64.552   6.689   3.994  1.00  0.00    -0.644 OA
HETATM   12  O   UNL     1      62.460   5.974   3.786  1.00  0.00    -0.644 OA
ENDBRANCH   1  10
TORSDOF 1
ENDMDL
MODEL 9
REMARK VINA RESULT:      -4.5      3.909      5.648
REMARK  1 active torsions:
REMARK  status: ('A' for Active; 'I' for Inactive)
REMARK    1  A    between atoms: C_1  and  C_3 
ROOT
HETATM    1  C   UNL     1      66.433   6.517   7.222  1.00  0.00     0.074 A 
HETATM    2  C   UNL     1      65.339   6.977   6.504  1.00  0.00     0.092 A 
HETATM    3  O   UNL     1      64.043   7.041   6.953  1.00  0.00    -0.349 OA
HETATM    4  C   UNL     1      65.465   7.418   5.188  1.00  0.00    -0.022 A 
HETATM    5  C   UNL     1      67.683   6.534   6.579  1.00  0.00     0.021 A 
HETATM    6  C   UNL     1      63.371   7.870   5.980  1.00  0.00     0.180 C 
HETATM    7  C   UNL     1      67.807   6.978   5.249  1.00  0.00     0.002 A 
HETATM    8  C   UNL     1      64.129   7.784   4.660  1.00  0.00     0.068 C 
HETATM    9  C   UNL     1      66.687   7.413   4.539  1.00  0.00     0.010 A 
ENDROOT
BRANCH   1  10
HETATM   10  C   UNL     1      66.280   6.035   8.617  1.00  0.00     0.212 C 
HETATM   11  O   UNL     1      66.348   6.680   9.645  1.00  0.00    -0.644 OA
HETATM   12  O   UNL     1      66.035   4.710   8.672  1.00  0.00    -0.644 OA
ENDBRANCH   1  10
TORSDOF 1
ENDMDL
