MODEL 1
REMARK VINA RESULT:      -5.7      0.000      0.000
REMARK  2 active torsions:
REMARK  status: ('A' for Active; 'I' for Inactive)
REMARK    1  A    between atoms: C_2  and  C_7 
REMARK    2  A    between atoms: C_7  and  O_8 
ROOT
HETATM    1  C   UNL     1      63.482   9.218   4.776  1.00  0.00     0.110 A 
HETATM    2  C   UNL     1      62.875  10.477   4.940  1.00  0.00     0.001 A 
HETATM    3  C   UNL     1      63.246   8.471   3.607  1.00  0.00     0.102 A 
HETATM    4  O   UNL     1      64.282   8.792   5.811  1.00  0.00    -0.348 OA
HETATM    5  O   UNL     1      63.735   7.216   3.344  1.00  0.00    -0.348 OA
HETATM    6  C   UNL     1      65.195   6.633   5.193  1.00  0.00     0.053 C 
HETATM    7  C   UNL     1      62.078  10.990   3.901  1.00  0.00     0.012 A 
HETATM    8  C   UNL     1      65.461   8.116   5.374  1.00  0.00     0.178 C 
HETATM    9  C   UNL     1      63.870   6.384   4.494  1.00  0.00     0.178 C 
HETATM   10  C   UNL     1      61.886  10.268   2.725  1.00  0.00     0.003 A 
HETATM   11  C   UNL     1      62.470   9.013   2.580  1.00  0.00     0.040 A 
ENDROOT
BRANCH   2  12
HETATM   12  C   UNL     1      63.063  11.304   6.185  1.00  0.00     0.205 C 
BRANCH  12  13
HETATM   13  O   UNL     1      64.449  11.545   6.412  1.00  0.00    -0.396 OA
HETATM   14  H   UNL     1      64.637  11.479   7.362  1.00  0.00     0.209 HD
ENDBRANCH  12  13
ENDBRANCH   2  12
TORSDOF 2
ENDMDL
MODEL 2
REMARK VINA RESULT:      -4.8      1.359      3.207
REMARK  2 active torsions:
REMARK  status: ('A' for Active; 'I' for Inactive)
REMARK    1  A    between atoms: C_2  and  C_7 
REMARK    2  A    between atoms: C_7  and  O_8 
ROOT
HETATM    1  C   UNL     1      62.841   9.075   3.632  1.00  0.00     0.110 A 
HETATM    2  C   UNL     1      62.132   9.998   2.842  1.00  0.00     0.001 A 
HETATM    3  C   UNL     1      63.282   9.443   4.917  1.00  0.00     0.102 A 
HETATM    4  O   UNL     1      63.065   7.840   3.068  1.00  0.00    -0.348 OA
HETATM    5  O   UNL     1      64.019   8.659   5.769  1.00  0.00    -0.348 OA
HETATM    6  C   UNL     1      64.257   6.495   4.695  1.00  0.00     0.053 C 
HETATM    7  C   UNL     1      61.833  11.265   3.374  1.00  0.00     0.012 A 
HETATM    8  C   UNL     1      62.937   6.763   3.995  1.00  0.00     0.178 C 
HETATM    9  C   UNL     1      64.938   7.786   5.115  1.00  0.00     0.178 C 
HETATM   10  C   UNL     1      62.230  11.609   4.665  1.00  0.00     0.003 A 
HETATM   11  C   UNL     1      62.951  10.698   5.433  1.00  0.00     0.040 A 
ENDROOT
BRANCH   2  12
HETATM   12  C   UNL     1      61.668   9.671   1.446  1.00  0.00     0.205 C 
BRANCH  12  13
HETATM   13  O   UNL     1      60.502   8.854   1.493  1.00  0.00    -0.396 OA
HETATM   14  H   UNL     1      60.691   8.050   2.003  1.00  0.00     0.209 HD
ENDBRANCH  12  13
ENDBRANCH   2  12
TORSDOF 2
ENDMDL
MODEL 3
REMARK VINA RESULT:      -4.5      1.851      3.573
REMARK  2 active torsions:
REMARK  status: ('A' for Active; 'I' for Inactive)
REMARK    1  A    between atoms: C_2  and  C_7 
REMARK    2  A    between atoms: C_7  and  O_8 
ROOT
HETATM    1  C   UNL     1      62.393   8.588   3.383  1.00  0.00     0.110 A 
HETATM    2  C   UNL     1      62.840   8.759   4.706  1.00  0.00     0.001 A 
HETATM    3  C   UNL     1      61.907   9.692   2.657  1.00  0.00     0.102 A 
HETATM    4  O   UNL     1      62.459   7.308   2.881  1.00  0.00    -0.348 OA
HETATM    5  O   UNL     1      61.400   9.655   1.383  1.00  0.00    -0.348 OA
HETATM    6  C   UNL     1      61.663   7.375   0.592  1.00  0.00     0.053 C 
HETATM    7  C   UNL     1      62.839  10.049   5.266  1.00  0.00     0.012 A 
HETATM    8  C   UNL     1      62.863   7.256   1.514  1.00  0.00     0.178 C 
HETATM    9  C   UNL     1      60.702   8.453   1.063  1.00  0.00     0.178 C 
HETATM   10  C   UNL     1      62.402  11.147   4.528  1.00  0.00     0.003 A 
HETATM   11  C   UNL     1      61.939  10.967   3.228  1.00  0.00     0.040 A 
ENDROOT
BRANCH   2  12
HETATM   12  C   UNL     1      63.337   7.607   5.542  1.00  0.00     0.205 C 
BRANCH  12  13
HETATM   13  O   UNL     1      62.912   7.760   6.893  1.00  0.00    -0.396 OA
HETATM   14  H   UNL     1      62.999   8.691   7.156  1.00  0.00     0.209 HD
ENDBRANCH  12  13
ENDBRANCH   2  12
TORSDOF 2
ENDMDL
MODEL 4
REMARK VINA RESULT:      -4.5      1.537      1.779
REMARK  2 active torsions:
REMARK  status: ('A' for Active; 'I' for Inactive)
REMARK    1  A    between atoms: C_2  and  C_7 
REMARK    2  A    between atoms: C_7  and  O_8 
ROOT
HETATM    1  C   UNL     1      62.519   8.723   3.957  1.00  0.00     0.110 A 
HETATM    2  C   UNL     1      62.317  10.095   3.723  1.00  0.00     0.001 A 
HETATM    3  C   UNL     1      62.364   7.800   2.905  1.00  0.00     0.102 A 
HETATM    4  O   UNL     1      62.857   8.370   5.243  1.00  0.00    -0.348 OA
HETATM    5  O   UNL     1      62.484   6.437   3.008  1.00  0.00    -0.348 OA
HETATM    6  C   UNL     1      63.172   5.967   5.288  1.00  0.00     0.053 C 
HETATM    7  C   UNL     1      62.010  10.528   2.421  1.00  0.00     0.012 A 
HETATM    8  C   UNL     1      63.834   7.332   5.308  1.00  0.00     0.178 C 
HETATM    9  C   UNL     1      62.057   5.902   4.259  1.00  0.00     0.178 C 
HETATM   10  C   UNL     1      61.904   9.617   1.372  1.00  0.00     0.003 A 
HETATM   11  C   UNL     1      62.082   8.258   1.616  1.00  0.00     0.040 A 
ENDROOT
BRANCH   2  12
HETATM   12  C   UNL     1      62.434  11.123   4.820  1.00  0.00     0.205 C 
BRANCH  12  13
HETATM   13  O   UNL     1      62.041  12.404   4.337  1.00  0.00    -0.396 OA
HETATM   14  H   UNL     1      62.527  13.094   4.816  1.00  0.00     0.209 HD
ENDBRANCH  12  13
ENDBRANCH   2  12
TORSDOF 2
ENDMDL
MODEL 5
REMARK VINA RESULT:      -4.4      2.880      4.803
REMARK  2 active torsions:
REMARK  status: ('A' for Active; 'I' for Inactive)
REMARK    1  A    between atoms: C_2  and  C_7 
REMARK    2  A    between atoms: C_7  and  O_8 
ROOT
HETATM    1  C   UNL     1      66.099   6.580   6.218  1.00  0.00     0.110 A 
HETATM    2  C   UNL     1      65.460   7.161   5.107  1.00  0.00     0.001 A 
HETATM    3  C   UNL     1      67.009   5.522   6.031  1.00  0.00     0.102 A 
HETATM    4  O   UNL     1      65.769   7.100   7.448  1.00  0.00    -0.348 OA
HETATM    5  O   UNL     1      67.661   4.838   7.027  1.00  0.00    -0.348 OA
HETATM    6  C   UNL     1      67.066   5.916   9.119  1.00  0.00     0.053 C 
HETATM    7  C   UNL     1      65.783   6.703   3.817  1.00  0.00     0.012 A 
HETATM    8  C   UNL     1      66.881   7.203   8.336  1.00  0.00     0.178 C 
HETATM    9  C   UNL     1      66.909   4.694   8.230  1.00  0.00     0.178 C 
HETATM   10  C   UNL     1      66.721   5.688   3.634  1.00  0.00     0.003 A 
HETATM   11  C   UNL     1      67.330   5.102   4.739  1.00  0.00     0.040 A 
ENDROOT
BRANCH   2  12
HETATM   12  C   UNL     1      64.451   8.271   5.250  1.00  0.00     0.205 C 
BRANCH  12  13
HETATM   13  O   UNL     1      65.075   9.440   5.772  1.00  0.00    -0.396 OA
HETATM   14  H   UNL     1      66.015   9.260   5.932  1.00  0.00     0.209 HD
ENDBRANCH  12  13
ENDBRANCH   2  12
TORSDOF 2
ENDMDL
MODEL 6
REMARK VINA RESULT:      -4.1      2.022      3.839
REMARK  2 active torsions:
REMARK  status: ('A' for Active; 'I' for Inactive)
REMARK    1  A    between atoms: C_2  and  C_7 
REMARK    2  A    between atoms: C_7  and  O_8 
ROOT
HETATM    1  C   UNL     1      62.559   8.010   4.157  1.00  0.00     0.110 A 
HETATM    2  C   UNL     1      63.384   7.696   5.252  1.00  0.00     0.001 A 
HETATM    3  C   UNL     1      61.290   7.414   4.039  1.00  0.00     0.102 A 
HETATM    4  O   UNL     1      63.075   8.903   3.245  1.00  0.00    -0.348 OA
HETATM    5  O   UNL     1      60.410   7.596   3.001  1.00  0.00    -0.348 OA
HETATM    6  C   UNL     1      61.399   9.253   1.529  1.00  0.00     0.053 C 
HETATM    7  C   UNL     1      62.900   6.822   6.242  1.00  0.00     0.012 A 
HETATM    8  C   UNL     1      62.108   9.824   2.744  1.00  0.00     0.178 C 
HETATM    9  C   UNL     1      61.030   7.794   1.732  1.00  0.00     0.178 C 
HETATM   10  C   UNL     1      61.624   6.271   6.146  1.00  0.00     0.003 A 
HETATM   11  C   UNL     1      60.823   6.568   5.048  1.00  0.00     0.040 A 
ENDROOT
BRANCH   2  12
HETATM   12  C   UNL     1      64.766   8.277   5.410  1.00  0.00     0.205 C 
BRANCH  12  13
HETATM   13  O   UNL     1      64.686   9.674   5.675  1.00  0.00    -0.396 OA
HETATM   14  H   UNL     1      65.013  10.168   4.907  1.00  0.00     0.209 HD
ENDBRANCH  12  13
ENDBRANCH   2  12
TORSDOF 2
ENDMDL
MODEL 7
REMARK VINA RESULT:      -4.1      2.653      5.678
REMARK  2 active torsions:
REMARK  status: ('A' for Active; 'I' for Inactive)
REMARK    1  A    between atoms: C_2  and  C_7 
REMARK    2  A    between atoms: C_7  and  O_8 
ROOT
HETATM    1  C   UNL     1      65.599   6.148   5.637  1.00  0.00     0.110 A 
HETATM    2  C   UNL     1      66.791   5.404   5.577  1.00  0.00     0.001 A 
HETATM    3  C   UNL     1      65.180   6.707   6.859  1.00  0.00     0.102 A 
HETATM    4  O   UNL     1      64.902   6.273   4.458  1.00  0.00    -0.348 OA
HETATM    5  O   UNL     1      64.021   7.412   7.065  1.00  0.00    -0.348 OA
HETATM    6  C   UNL     1      62.947   7.636   4.900  1.00  0.00     0.053 C 
HETATM    7  C   UNL     1      67.573   5.273   6.739  1.00  0.00     0.012 A 
HETATM    8  C   UNL     1      64.327   7.566   4.273  1.00  0.00     0.178 C 
HETATM    9  C   UNL     1      62.920   6.977   6.268  1.00  0.00     0.178 C 
HETATM   10  C   UNL     1      67.180   5.868   7.935  1.00  0.00     0.003 A 
HETATM   11  C   UNL     1      65.987   6.583   7.993  1.00  0.00     0.040 A 
ENDROOT
BRANCH   2  12
HETATM   12  C   UNL     1      67.270   4.753   4.305  1.00  0.00     0.205 C 
BRANCH  12  13
HETATM   13  O   UNL     1      67.435   5.732   3.283  1.00  0.00    -0.396 OA
HETATM   14  H   UNL     1      68.151   5.460   2.687  1.00  0.00     0.209 HD
ENDBRANCH  12  13
ENDBRANCH   2  12
TORSDOF 2
ENDMDL
MODEL 8
REMARK VINA RESULT:      -3.9      3.150      4.855
REMARK  2 active torsions:
REMARK  status: ('A' for Active; 'I' for Inactive)
REMARK    1  A    between atoms: C_2  and  C_7 
REMARK    2  A    between atoms: C_7  and  O_8 
ROOT
HETATM    1  C   UNL     1      64.775   6.120   6.679  1.00  0.00     0.110 A 
HETATM    2  C   UNL     1      63.605   6.298   5.919  1.00  0.00     0.001 A 
HETATM    3  C   UNL     1      65.397   4.858   6.727  1.00  0.00     0.102 A 
HETATM    4  O   UNL     1      65.238   7.228   7.350  1.00  0.00    -0.348 OA
HETATM    5  O   UNL     1      66.510   4.537   7.463  1.00  0.00    -0.348 OA
HETATM    6  C   UNL     1      67.269   6.591   8.510  1.00  0.00     0.053 C 
HETATM    7  C   UNL     1      63.102   5.216   5.176  1.00  0.00     0.012 A 
HETATM    8  C   UNL     1      66.660   7.343   7.341  1.00  0.00     0.178 C 
HETATM    9  C   UNL     1      66.615   5.234   8.703  1.00  0.00     0.178 C 
HETATM   10  C   UNL     1      63.748   3.981   5.187  1.00  0.00     0.003 A 
HETATM   11  C   UNL     1      64.891   3.805   5.960  1.00  0.00     0.040 A 
ENDROOT
BRANCH   2  12
HETATM   12  C   UNL     1      62.878   7.617   5.861  1.00  0.00     0.205 C 
BRANCH  12  13
HETATM   13  O   UNL     1      62.518   8.039   7.173  1.00  0.00    -0.396 OA
HETATM   14  H   UNL     1      61.907   8.792   7.115  1.00  0.00     0.209 HD
ENDBRANCH  12  13
ENDBRANCH   2  12
TORSDOF 2
ENDMDL
MODEL 9
REMARK VINA RESULT:      -3.9      3.883      6.843
REMARK  2 active torsions:
REMARK  status: ('A' for Active; 'I' for Inactive)
REMARK    1  A    between atoms: C_2  and  C_7 
REMARK    2  A    between atoms: C_7  and  O_8 
ROOT
HETATM    1  C   UNL     1      66.145   5.065   7.186  1.00  0.00     0.110 A 
HETATM    2  C   UNL     1      66.994   4.200   7.899  1.00  0.00     0.001 A 
HETATM    3  C   UNL     1      66.080   6.428   7.531  1.00  0.00     0.102 A 
HETATM    4  O   UNL     1      65.407   4.494   6.175  1.00  0.00    -0.348 OA
HETATM    5  O   UNL     1      65.263   7.366   6.952  1.00  0.00    -0.348 OA
HETATM    6  C   UNL     1      64.099   6.252   5.137  1.00  0.00     0.053 C 
HETATM    7  C   UNL     1      67.807   4.727   8.918  1.00  0.00     0.012 A 
HETATM    8  C   UNL     1      65.293   5.323   5.019  1.00  0.00     0.178 C 
HETATM    9  C   UNL     1      64.000   6.861   6.525  1.00  0.00     0.178 C 
HETATM   10  C   UNL     1      67.777   6.086   9.224  1.00  0.00     0.003 A 
HETATM   11  C   UNL     1      66.916   6.932   8.531  1.00  0.00     0.040 A 
ENDROOT
BRANCH   2  12
HETATM   12  C   UNL     1      67.077   2.725   7.597  1.00  0.00     0.205 C 
BRANCH  12  13
HETATM   13  O   UNL     1      65.867   2.077   7.976  1.00  0.00    -0.396 OA
HETATM   14  H   UNL     1      65.514   1.580   7.220  1.00  0.00     0.209 HD
ENDBRANCH  12  13
ENDBRANCH   2  12
TORSDOF 2
ENDMDL
