MODEL 1
REMARK VINA RESULT:      -4.8      0.000      0.000
REMARK  2 active torsions:
REMARK  status: ('A' for Active; 'I' for Inactive)
REMARK    1  A    between atoms: C_6  and  C_11 
REMARK    2  A    between atoms: N_9  and  C_11 
ROOT
HETATM    1  C   UNL     1      62.638   8.704   2.906  1.00  0.00    -0.022 A 
HETATM    2  C   UNL     1      62.116   9.574   1.675  1.00  0.00     0.075 A 
HETATM    3  O   UNL     1      62.126   8.728   0.360  1.00  0.00    -0.350 OA
HETATM    4  C   UNL     1      62.739   9.296   4.149  1.00  0.00     0.019 A 
HETATM    5  C   UNL     1      61.756  10.889   1.872  1.00  0.00     0.038 A 
HETATM    6  C   UNL     1      62.394  10.664   4.274  1.00  0.00    -0.032 A 
HETATM    7  C   UNL     1      61.902  11.423   3.168  1.00  0.00     0.011 A 
HETATM    8  C   UNL     1      62.620   7.187   0.464  1.00  0.00     0.180 A 
HETATM    9  C   UNL     1      63.037   7.033   2.317  1.00  0.00     0.068 A 
ENDROOT
BRANCH   6  10
HETATM   10  C   UNL     1      62.611  11.343   5.602  1.00  0.00     0.268 C 
BRANCH  10  11
HETATM   11  N   UNL     1      63.957  11.107   6.108  1.00  0.00    -0.075 N 
HETATM   12  H   UNL     1      64.493  10.583   5.417  1.00  0.00     0.274 HD
HETATM   13  H   UNL     1      63.905  10.572   6.975  1.00  0.00     0.274 HD
HETATM   14  H   UNL     1      64.415  12.001   6.288  1.00  0.00     0.274 HD
ENDBRANCH  10  11
ENDBRANCH   6  10
TORSDOF 2
ENDMDL
MODEL 2
REMARK VINA RESULT:      -4.5      1.298      2.214
REMARK  2 active torsions:
REMARK  status: ('A' for Active; 'I' for Inactive)
REMARK    1  A    between atoms: C_6  and  C_11 
REMARK    2  A    between atoms: N_9  and  C_11 
ROOT
HETATM    1  C   UNL     1      62.277   8.989   2.402  1.00  0.00    -0.022 A 
HETATM    2  C   UNL     1      63.228   7.793   2.858  1.00  0.00     0.075 A 
HETATM    3  O   UNL     1      63.201   6.635   1.808  1.00  0.00    -0.350 OA
HETATM    4  C   UNL     1      62.138  10.088   3.226  1.00  0.00     0.019 A 
HETATM    5  C   UNL     1      63.912   7.882   4.051  1.00  0.00     0.038 A 
HETATM    6  C   UNL     1      62.836  10.096   4.458  1.00  0.00    -0.032 A 
HETATM    7  C   UNL     1      63.707   9.030   4.842  1.00  0.00     0.011 A 
HETATM    8  C   UNL     1      62.274   6.840   0.492  1.00  0.00     0.180 A 
HETATM    9  C   UNL     1      61.521   8.561   0.807  1.00  0.00     0.068 A 
ENDROOT
BRANCH   6  10
HETATM   10  C   UNL     1      62.600  11.240   5.412  1.00  0.00     0.268 C 
BRANCH  10  11
HETATM   11  N   UNL     1      63.745  11.446   6.290  1.00  0.00    -0.075 N 
HETATM   12  H   UNL     1      63.722  10.760   7.045  1.00  0.00     0.274 HD
HETATM   13  H   UNL     1      63.707  12.386   6.684  1.00  0.00     0.274 HD
HETATM   14  H   UNL     1      64.607  11.335   5.758  1.00  0.00     0.274 HD
ENDBRANCH  10  11
ENDBRANCH   6  10
TORSDOF 2
ENDMDL
MODEL 3
REMARK VINA RESULT:      -4.3      3.432      4.473
REMARK  2 active torsions:
REMARK  status: ('A' for Active; 'I' for Inactive)
REMARK    1  A    between atoms: C_6  and  C_11 
REMARK    2  A    between atoms: N_9  and  C_11 
ROOT
HETATM    1  C   UNL     1      64.458   7.727   4.211  1.00  0.00    -0.022 A 
HETATM    2  C   UNL     1      64.263   9.034   5.104  1.00  0.00     0.075 A 
HETATM    3  O   UNL     1      65.421   9.167   6.146  1.00  0.00    -0.350 OA
HETATM    4  C   UNL     1      63.508   7.417   3.258  1.00  0.00     0.019 A 
HETATM    5  C   UNL     1      63.167   9.842   4.899  1.00  0.00     0.038 A 
HETATM    6  C   UNL     1      62.383   8.268   3.130  1.00  0.00    -0.032 A 
HETATM    7  C   UNL     1      62.235   9.451   3.918  1.00  0.00     0.011 A 
HETATM    8  C   UNL     1      66.575   8.027   6.134  1.00  0.00     0.180 A 
HETATM    9  C   UNL     1      65.979   6.881   4.733  1.00  0.00     0.068 A 
ENDROOT
BRANCH   6  10
HETATM   10  C   UNL     1      61.288   7.874   2.171  1.00  0.00     0.268 C 
BRANCH  10  11
HETATM   11  N   UNL     1      60.612   9.044   1.625  1.00  0.00    -0.075 N 
HETATM   12  H   UNL     1      61.250   9.549   1.010  1.00  0.00     0.274 HD
HETATM   13  H   UNL     1      60.319   9.654   2.388  1.00  0.00     0.274 HD
HETATM   14  H   UNL     1      59.794   8.747   1.094  1.00  0.00     0.274 HD
ENDBRANCH  10  11
ENDBRANCH   6  10
TORSDOF 2
ENDMDL
MODEL 4
REMARK VINA RESULT:      -4.3      2.892      4.468
REMARK  2 active torsions:
REMARK  status: ('A' for Active; 'I' for Inactive)
REMARK    1  A    between atoms: C_6  and  C_11 
REMARK    2  A    between atoms: N_9  and  C_11 
ROOT
HETATM    1  C   UNL     1      62.881   9.025   3.566  1.00  0.00    -0.022 A 
HETATM    2  C   UNL     1      62.176  10.302   2.920  1.00  0.00     0.075 A 
HETATM    3  O   UNL     1      62.088  11.468   3.958  1.00  0.00    -0.350 OA
HETATM    4  C   UNL     1      63.012   7.877   2.811  1.00  0.00     0.019 A 
HETATM    5  C   UNL     1      61.730  10.248   1.618  1.00  0.00     0.038 A 
HETATM    6  C   UNL     1      62.493   7.876   1.494  1.00  0.00    -0.032 A 
HETATM    7  C   UNL     1      61.888   9.036   0.918  1.00  0.00     0.011 A 
HETATM    8  C   UNL     1      62.711  11.205   5.433  1.00  0.00     0.180 A 
HETATM    9  C   UNL     1      63.339   9.413   5.281  1.00  0.00     0.068 A 
ENDROOT
BRANCH   6  10
HETATM   10  C   UNL     1      62.532   6.592   0.705  1.00  0.00     0.268 C 
BRANCH  10  11
HETATM   11  N   UNL     1      61.217   5.965   0.641  1.00  0.00    -0.075 N 
HETATM   12  H   UNL     1      60.499   6.687   0.576  1.00  0.00     0.274 HD
HETATM   13  H   UNL     1      61.064   5.409   1.483  1.00  0.00     0.274 HD
HETATM   14  H   UNL     1      61.167   5.361  -0.178  1.00  0.00     0.274 HD
ENDBRANCH  10  11
ENDBRANCH   6  10
TORSDOF 2
ENDMDL
MODEL 5
REMARK VINA RESULT:      -4.0      3.345      5.265
REMARK  2 active torsions:
REMARK  status: ('A' for Active; 'I' for Inactive)
REMARK    1  A    between atoms: C_6  and  C_11 
REMARK    2  A    between atoms: N_9  and  C_11 
ROOT
HETATM    1  C   UNL     1      63.177   8.700   3.911  1.00  0.00    -0.022 A 
HETATM    2  C   UNL     1      64.385   8.811   4.948  1.00  0.00     0.075 A 
HETATM    3  O   UNL     1      64.259  10.113   5.804  1.00  0.00    -0.350 OA
HETATM    4  C   UNL     1      63.140   7.633   3.037  1.00  0.00     0.019 A 
HETATM    5  C   UNL     1      65.356   7.834   4.970  1.00  0.00     0.038 A 
HETATM    6  C   UNL     1      64.194   6.688   3.084  1.00  0.00    -0.032 A 
HETATM    7  C   UNL     1      65.255   6.784   4.036  1.00  0.00     0.011 A 
HETATM    8  C   UNL     1      62.981  11.072   5.524  1.00  0.00     0.180 A 
HETATM    9  C   UNL     1      62.086  10.136   4.127  1.00  0.00     0.068 A 
ENDROOT
BRANCH   6  10
HETATM   10  C   UNL     1      64.217   5.584   2.057  1.00  0.00     0.268 C 
BRANCH  10  11
HETATM   11  N   UNL     1      65.279   4.623   2.331  1.00  0.00    -0.075 N 
HETATM   12  H   UNL     1      64.867   3.718   2.558  1.00  0.00     0.274 HD
HETATM   13  H   UNL     1      65.838   4.950   3.120  1.00  0.00     0.274 HD
HETATM   14  H   UNL     1      65.874   4.529   1.509  1.00  0.00     0.274 HD
ENDBRANCH  10  11
ENDBRANCH   6  10
TORSDOF 2
ENDMDL
MODEL 6
REMARK VINA RESULT:      -4.0      2.851      3.720
REMARK  2 active torsions:
REMARK  status: ('A' for Active; 'I' for Inactive)
REMARK    1  A    between atoms: C_6  and  C_11 
REMARK    2  A    between atoms: N_9  and  C_11 
ROOT
HETATM    1  C   UNL     1      64.247   8.145   4.888  1.00  0.00    -0.022 A 
HETATM    2  C   UNL     1      64.093   7.152   3.649  1.00  0.00     0.075 A 
HETATM    3  O   UNL     1      65.049   5.924   3.805  1.00  0.00    -0.350 OA
HETATM    4  C   UNL     1      63.509   9.312   4.907  1.00  0.00     0.019 A 
HETATM    5  C   UNL     1      63.215   7.459   2.633  1.00  0.00     0.038 A 
HETATM    6  C   UNL     1      62.659   9.588   3.809  1.00  0.00    -0.032 A 
HETATM    7  C   UNL     1      62.510   8.676   2.719  1.00  0.00     0.011 A 
HETATM    8  C   UNL     1      65.974   5.860   5.136  1.00  0.00     0.180 A 
HETATM    9  C   UNL     1      65.477   7.463   6.037  1.00  0.00     0.068 A 
ENDROOT
BRANCH   6  10
HETATM   10  C   UNL     1      61.939  10.912   3.771  1.00  0.00     0.268 C 
BRANCH  10  11
HETATM   11  N   UNL     1      61.559  11.274   2.411  1.00  0.00    -0.075 N 
HETATM   12  H   UNL     1      61.505  10.431   1.838  1.00  0.00     0.274 HD
HETATM   13  H   UNL     1      62.257  11.907   2.020  1.00  0.00     0.274 HD
HETATM   14  H   UNL     1      60.650  11.735   2.423  1.00  0.00     0.274 HD
ENDBRANCH  10  11
ENDBRANCH   6  10
TORSDOF 2
ENDMDL
MODEL 7
REMARK VINA RESULT:      -3.9      3.045      5.007
REMARK  2 active torsions:
REMARK  status: ('A' for Active; 'I' for Inactive)
REMARK    1  A    between atoms: C_6  and  C_11 
REMARK    2  A    between atoms: N_9  and  C_11 
ROOT
HETATM    1  C   UNL     1      62.407   9.522   3.106  1.00  0.00    -0.022 A 
HETATM    2  C   UNL     1      63.247   8.686   4.174  1.00  0.00     0.075 A 
HETATM    3  O   UNL     1      63.479   9.527   5.472  1.00  0.00    -0.350 OA
HETATM    4  C   UNL     1      62.138   8.958   1.875  1.00  0.00     0.019 A 
HETATM    5  C   UNL     1      63.670   7.413   3.864  1.00  0.00     0.038 A 
HETATM    6  C   UNL     1      62.639   7.662   1.606  1.00  0.00    -0.032 A 
HETATM    7  C   UNL     1      63.366   6.913   2.582  1.00  0.00     0.011 A 
HETATM    8  C   UNL     1      62.846  11.020   5.521  1.00  0.00     0.180 A 
HETATM    9  C   UNL     1      62.016  11.150   3.811  1.00  0.00     0.068 A 
ENDROOT
BRANCH   6  10
HETATM   10  C   UNL     1      62.445   7.087   0.225  1.00  0.00     0.268 C 
BRANCH  10  11
HETATM   11  N   UNL     1      62.713   5.654   0.202  1.00  0.00    -0.075 N 
HETATM   12  H   UNL     1      61.948   5.173  -0.271  1.00  0.00     0.274 HD
HETATM   13  H   UNL     1      62.793   5.307   1.158  1.00  0.00     0.274 HD
HETATM   14  H   UNL     1      63.584   5.479  -0.297  1.00  0.00     0.274 HD
ENDBRANCH  10  11
ENDBRANCH   6  10
TORSDOF 2
ENDMDL
MODEL 8
REMARK VINA RESULT:      -3.8      4.128      5.271
REMARK  2 active torsions:
REMARK  status: ('A' for Active; 'I' for Inactive)
REMARK    1  A    between atoms: C_6  and  C_11 
REMARK    2  A    between atoms: N_9  and  C_11 
ROOT
HETATM    1  C   UNL     1      65.095   8.035   5.705  1.00  0.00    -0.022 A 
HETATM    2  C   UNL     1      64.294   6.864   6.436  1.00  0.00     0.075 A 
HETATM    3  O   UNL     1      65.250   6.033   7.354  1.00  0.00    -0.350 OA
HETATM    4  C   UNL     1      64.424   8.853   4.818  1.00  0.00     0.019 A 
HETATM    5  C   UNL     1      62.949   6.701   6.191  1.00  0.00     0.038 A 
HETATM    6  C   UNL     1      63.051   8.603   4.579  1.00  0.00    -0.032 A 
HETATM    7  C   UNL     1      62.340   7.568   5.262  1.00  0.00     0.011 A 
HETATM    8  C   UNL     1      66.806   6.486   7.419  1.00  0.00     0.180 A 
HETATM    9  C   UNL     1      66.832   7.974   6.230  1.00  0.00     0.068 A 
ENDROOT
BRANCH   6  10
HETATM   10  C   UNL     1      62.343   9.420   3.528  1.00  0.00     0.268 C 
BRANCH  10  11
HETATM   11  N   UNL     1      60.924   9.091   3.464  1.00  0.00    -0.075 N 
HETATM   12  H   UNL     1      60.431   9.813   2.938  1.00  0.00     0.274 HD
HETATM   13  H   UNL     1      60.544   9.040   4.410  1.00  0.00     0.274 HD
HETATM   14  H   UNL     1      60.804   8.192   3.000  1.00  0.00     0.274 HD
ENDBRANCH  10  11
ENDBRANCH   6  10
TORSDOF 2
ENDMDL
MODEL 9
REMARK VINA RESULT:      -3.8      3.411      4.504
REMARK  2 active torsions:
REMARK  status: ('A' for Active; 'I' for Inactive)
REMARK    1  A    between atoms: C_6  and  C_11 
REMARK    2  A    between atoms: N_9  and  C_11 
ROOT
HETATM    1  C   UNL     1      63.530   8.347   4.489  1.00  0.00    -0.022 A 
HETATM    2  C   UNL     1      62.671   7.233   5.241  1.00  0.00     0.075 A 
HETATM    3  O   UNL     1      61.216   7.181   4.670  1.00  0.00    -0.350 OA
HETATM    4  C   UNL     1      64.834   8.569   4.886  1.00  0.00     0.019 A 
HETATM    5  C   UNL     1      63.245   6.497   6.254  1.00  0.00     0.038 A 
HETATM    6  C   UNL     1      65.348   7.808   5.963  1.00  0.00    -0.032 A 
HETATM    7  C   UNL     1      64.576   6.794   6.609  1.00  0.00     0.011 A 
HETATM    8  C   UNL     1      60.849   8.200   3.463  1.00  0.00     0.180 A 
HETATM    9  C   UNL     1      62.491   9.136   3.226  1.00  0.00     0.068 A 
ENDROOT
BRANCH   6  10
HETATM   10  C   UNL     1      66.731   8.125   6.473  1.00  0.00     0.268 C 
BRANCH  10  11
HETATM   11  N   UNL     1      67.062   7.326   7.647  1.00  0.00    -0.075 N 
HETATM   12  H   UNL     1      66.336   6.625   7.797  1.00  0.00     0.274 HD
HETATM   13  H   UNL     1      67.123   7.933   8.465  1.00  0.00     0.274 HD
HETATM   14  H   UNL     1      67.958   6.862   7.501  1.00  0.00     0.274 HD
ENDBRANCH  10  11
ENDBRANCH   6  10
TORSDOF 2
ENDMDL
