MODEL 1
REMARK VINA RESULT:      -5.6      0.000      0.000
REMARK  3 active torsions:
REMARK  status: ('A' for Active; 'I' for Inactive)
REMARK    1  A    between atoms: C_1  and  C_8 
REMARK    2  A    between atoms: C_4  and  C_7 
REMARK    3  A    between atoms: C_8  and  O_9 
ROOT
HETATM    1  C   UNL     1      64.693   7.696   5.338  1.00  0.00     0.026 A 
HETATM    2  N   UNL     1      62.638   8.072   6.248  1.00  0.00    -0.260 N 
ATOM      3  HN  UNL     1      61.680   8.390   6.396  1.00  0.00     0.195 HD
HETATM    4  C   UNL     1      63.408   8.320   5.174  1.00  0.00     0.076 A 
HETATM    5  O   UNL     1      63.388   7.311   7.110  1.00  0.00    -0.242 OA
HETATM    6  C   UNL     1      64.609   7.082   6.573  1.00  0.00     0.083 A 
HETATM    7  C   UNL     1      65.519   6.256   7.390  1.00  0.00     0.079 C 
ENDROOT
BRANCH   4   8
HETATM    8  C   UNL     1      62.870   9.100   4.049  1.00  0.00    -0.007 A 
HETATM    9  C   UNL     1      62.758   8.562   2.761  1.00  0.00     0.014 A 
HETATM   10  C   UNL     1      62.214   9.312   1.713  1.00  0.00     0.001 A 
HETATM   11  C   UNL     1      61.790  10.619   1.935  1.00  0.00     0.000 A 
HETATM   12  C   UNL     1      61.916  11.180   3.202  1.00  0.00     0.001 A 
HETATM   13  C   UNL     1      62.452  10.426   4.251  1.00  0.00     0.014 A 
ENDBRANCH   4   8
BRANCH   1  14
HETATM   14  C   UNL     1      65.858   7.672   4.421  1.00  0.00     0.207 C 
BRANCH  14  15
HETATM   15  O   UNL     1      66.995   8.321   4.970  1.00  0.00    -0.396 OA
HETATM   16  H   UNL     1      67.697   8.366   4.301  1.00  0.00     0.209 HD
ENDBRANCH  14  15
ENDBRANCH   1  14
TORSDOF 3
ENDMDL
MODEL 2
REMARK VINA RESULT:      -5.6      0.181      1.298
REMARK  3 active torsions:
REMARK  status: ('A' for Active; 'I' for Inactive)
REMARK    1  A    between atoms: C_1  and  C_8 
REMARK    2  A    between atoms: C_4  and  C_7 
REMARK    3  A    between atoms: C_8  and  O_9 
ROOT
HETATM    1  C   UNL     1      64.800   7.626   5.341  1.00  0.00     0.026 A 
HETATM    2  N   UNL     1      62.758   7.981   6.287  1.00  0.00    -0.260 N 
ATOM      3  HN  UNL     1      61.797   8.283   6.448  1.00  0.00     0.195 HD
HETATM    4  C   UNL     1      63.500   8.220   5.190  1.00  0.00     0.076 A 
HETATM    5  O   UNL     1      63.541   7.254   7.148  1.00  0.00    -0.242 OA
HETATM    6  C   UNL     1      64.754   7.037   6.589  1.00  0.00     0.083 A 
HETATM    7  C   UNL     1      65.698   6.247   7.404  1.00  0.00     0.079 C 
ENDROOT
BRANCH   4   8
HETATM    8  C   UNL     1      62.923   8.966   4.061  1.00  0.00    -0.007 A 
HETATM    9  C   UNL     1      62.437  10.272   4.207  1.00  0.00     0.014 A 
HETATM   10  C   UNL     1      61.922  10.973   3.113  1.00  0.00     0.001 A 
HETATM   11  C   UNL     1      61.867  10.372   1.859  1.00  0.00     0.000 A 
HETATM   12  C   UNL     1      62.320   9.066   1.699  1.00  0.00     0.001 A 
HETATM   13  C   UNL     1      62.845   8.368   2.793  1.00  0.00     0.014 A 
ENDBRANCH   4   8
BRANCH   1  14
HETATM   14  C   UNL     1      65.945   7.605   4.399  1.00  0.00     0.207 C 
BRANCH  14  15
HETATM   15  O   UNL     1      67.063   8.334   4.886  1.00  0.00    -0.396 OA
HETATM   16  H   UNL     1      67.358   7.951   5.727  1.00  0.00     0.209 HD
ENDBRANCH  14  15
ENDBRANCH   1  14
TORSDOF 3
ENDMDL
MODEL 3
REMARK VINA RESULT:      -5.4      1.426      2.654
REMARK  3 active torsions:
REMARK  status: ('A' for Active; 'I' for Inactive)
REMARK    1  A    between atoms: C_1  and  C_8 
REMARK    2  A    between atoms: C_4  and  C_7 
REMARK    3  A    between atoms: C_8  and  O_9 
ROOT
HETATM    1  C   UNL     1      63.912   6.932   6.126  1.00  0.00     0.026 A 
HETATM    2  N   UNL     1      65.438   8.617   5.969  1.00  0.00    -0.260 N 
ATOM      3  HN  UNL     1      65.900   9.496   5.734  1.00  0.00     0.195 HD
HETATM    4  C   UNL     1      64.207   8.233   5.588  1.00  0.00     0.076 A 
HETATM    5  O   UNL     1      65.955   7.602   6.734  1.00  0.00    -0.242 OA
HETATM    6  C   UNL     1      65.051   6.599   6.833  1.00  0.00     0.083 A 
HETATM    7  C   UNL     1      65.471   5.442   7.648  1.00  0.00     0.079 C 
ENDROOT
BRANCH   4   8
HETATM    8  C   UNL     1      63.378   9.130   4.768  1.00  0.00    -0.007 A 
HETATM    9  C   UNL     1      62.970  10.388   5.230  1.00  0.00     0.014 A 
HETATM   10  C   UNL     1      62.209  11.238   4.421  1.00  0.00     0.001 A 
HETATM   11  C   UNL     1      61.829  10.835   3.145  1.00  0.00     0.000 A 
HETATM   12  C   UNL     1      62.203   9.578   2.678  1.00  0.00     0.001 A 
HETATM   13  C   UNL     1      62.972   8.733   3.484  1.00  0.00     0.014 A 
ENDBRANCH   4   8
BRANCH   1  14
HETATM   14  C   UNL     1      62.685   6.111   5.997  1.00  0.00     0.207 C 
BRANCH  14  15
HETATM   15  O   UNL     1      61.629   6.577   6.825  1.00  0.00    -0.396 OA
HETATM   16  H   UNL     1      61.301   7.425   6.485  1.00  0.00     0.209 HD
ENDBRANCH  14  15
ENDBRANCH   1  14
TORSDOF 3
ENDMDL
MODEL 4
REMARK VINA RESULT:      -5.2      2.099      5.111
REMARK  3 active torsions:
REMARK  status: ('A' for Active; 'I' for Inactive)
REMARK    1  A    between atoms: C_1  and  C_8 
REMARK    2  A    between atoms: C_4  and  C_7 
REMARK    3  A    between atoms: C_8  and  O_9 
ROOT
HETATM    1  C   UNL     1      63.154   9.869   4.704  1.00  0.00     0.026 A 
HETATM    2  N   UNL     1      63.584   8.044   3.408  1.00  0.00    -0.260 N 
ATOM      3  HN  UNL     1      63.933   7.146   3.073  1.00  0.00     0.195 HD
HETATM    4  C   UNL     1      63.830   8.603   4.607  1.00  0.00     0.076 A 
HETATM    5  O   UNL     1      62.773   8.913   2.721  1.00  0.00    -0.242 OA
HETATM    6  C   UNL     1      62.512   9.997   3.488  1.00  0.00     0.083 A 
HETATM    7  C   UNL     1      61.632  11.012   2.876  1.00  0.00     0.079 C 
ENDROOT
BRANCH   4   8
HETATM    8  C   UNL     1      64.659   7.892   5.592  1.00  0.00    -0.007 A 
HETATM    9  C   UNL     1      64.156   6.829   6.353  1.00  0.00     0.014 A 
HETATM   10  C   UNL     1      64.971   6.147   7.262  1.00  0.00     0.001 A 
HETATM   11  C   UNL     1      66.298   6.530   7.436  1.00  0.00     0.000 A 
HETATM   12  C   UNL     1      66.809   7.600   6.707  1.00  0.00     0.001 A 
HETATM   13  C   UNL     1      65.995   8.275   5.792  1.00  0.00     0.014 A 
ENDBRANCH   4   8
BRANCH   1  14
HETATM   14  C   UNL     1      63.110  10.833   5.829  1.00  0.00     0.207 C 
BRANCH  14  15
HETATM   15  O   UNL     1      64.397  11.328   6.171  1.00  0.00    -0.396 OA
HETATM   16  H   UNL     1      65.026  11.109   5.466  1.00  0.00     0.209 HD
ENDBRANCH  14  15
ENDBRANCH   1  14
TORSDOF 3
ENDMDL
MODEL 5
REMARK VINA RESULT:      -5.1      2.543      3.878
REMARK  3 active torsions:
REMARK  status: ('A' for Active; 'I' for Inactive)
REMARK    1  A    between atoms: C_1  and  C_8 
REMARK    2  A    between atoms: C_4  and  C_7 
REMARK    3  A    between atoms: C_8  and  O_9 
ROOT
HETATM    1  C   UNL     1      62.746   9.688   4.594  1.00  0.00     0.026 A 
HETATM    2  N   UNL     1      61.633  11.140   3.235  1.00  0.00    -0.260 N 
ATOM      3  HN  UNL     1      61.095  11.538   2.465  1.00  0.00     0.195 HD
HETATM    4  C   UNL     1      62.006   9.855   3.372  1.00  0.00     0.076 A 
HETATM    5  O   UNL     1      62.115  11.815   4.329  1.00  0.00    -0.242 OA
HETATM    6  C   UNL     1      62.774  10.956   5.141  1.00  0.00     0.083 A 
HETATM    7  C   UNL     1      63.333  11.547   6.373  1.00  0.00     0.079 C 
ENDROOT
BRANCH   4   8
HETATM    8  C   UNL     1      61.612   8.864   2.359  1.00  0.00    -0.007 A 
HETATM    9  C   UNL     1      62.287   8.746   1.137  1.00  0.00     0.014 A 
HETATM   10  C   UNL     1      61.916   7.776   0.201  1.00  0.00     0.001 A 
HETATM   11  C   UNL     1      60.851   6.920   0.466  1.00  0.00     0.000 A 
HETATM   12  C   UNL     1      60.151   7.038   1.663  1.00  0.00     0.001 A 
HETATM   13  C   UNL     1      60.530   8.003   2.603  1.00  0.00     0.014 A 
ENDBRANCH   4   8
BRANCH   1  14
HETATM   14  C   UNL     1      63.340   8.463   5.180  1.00  0.00     0.207 C 
BRANCH  14  15
HETATM   15  O   UNL     1      62.778   8.137   6.443  1.00  0.00    -0.396 OA
HETATM   16  H   UNL     1      61.972   8.658   6.584  1.00  0.00     0.209 HD
ENDBRANCH  14  15
ENDBRANCH   1  14
TORSDOF 3
ENDMDL
MODEL 6
REMARK VINA RESULT:      -5.1      2.539      5.169
REMARK  3 active torsions:
REMARK  status: ('A' for Active; 'I' for Inactive)
REMARK    1  A    between atoms: C_1  and  C_8 
REMARK    2  A    between atoms: C_4  and  C_7 
REMARK    3  A    between atoms: C_8  and  O_9 
ROOT
HETATM    1  C   UNL     1      62.313   9.851   3.055  1.00  0.00     0.026 A 
HETATM    2  N   UNL     1      62.606  10.861   5.077  1.00  0.00    -0.260 N 
ATOM      3  HN  UNL     1      62.831  11.035   6.056  1.00  0.00     0.195 HD
HETATM    4  C   UNL     1      62.724   9.691   4.424  1.00  0.00     0.076 A 
HETATM    5  O   UNL     1      62.124  11.776   4.174  1.00  0.00    -0.242 OA
HETATM    6  C   UNL     1      61.952  11.182   2.970  1.00  0.00     0.083 A 
HETATM    7  C   UNL     1      61.452  12.059   1.893  1.00  0.00     0.079 C 
ENDROOT
BRANCH   4   8
HETATM    8  C   UNL     1      63.246   8.508   5.125  1.00  0.00    -0.007 A 
HETATM    9  C   UNL     1      62.399   7.514   5.632  1.00  0.00     0.014 A 
HETATM   10  C   UNL     1      62.919   6.382   6.267  1.00  0.00     0.001 A 
HETATM   11  C   UNL     1      64.294   6.236   6.421  1.00  0.00     0.000 A 
HETATM   12  C   UNL     1      65.151   7.225   5.947  1.00  0.00     0.001 A 
HETATM   13  C   UNL     1      64.630   8.352   5.304  1.00  0.00     0.014 A 
ENDBRANCH   4   8
BRANCH   1  14
HETATM   14  C   UNL     1      62.285   8.859   1.953  1.00  0.00     0.207 C 
BRANCH  14  15
HETATM   15  O   UNL     1      60.966   8.575   1.512  1.00  0.00    -0.396 OA
HETATM   16  H   UNL     1      60.987   7.833   0.886  1.00  0.00     0.209 HD
ENDBRANCH  14  15
ENDBRANCH   1  14
TORSDOF 3
ENDMDL
MODEL 7
REMARK VINA RESULT:      -5.0      1.185      1.742
REMARK  3 active torsions:
REMARK  status: ('A' for Active; 'I' for Inactive)
REMARK    1  A    between atoms: C_1  and  C_8 
REMARK    2  A    between atoms: C_4  and  C_7 
REMARK    3  A    between atoms: C_8  and  O_9 
ROOT
HETATM    1  C   UNL     1      64.512   7.249   5.373  1.00  0.00     0.026 A 
HETATM    2  N   UNL     1      62.438   6.362   5.053  1.00  0.00    -0.260 N 
ATOM      3  HN  UNL     1      61.482   6.208   4.731  1.00  0.00     0.195 HD
HETATM    4  C   UNL     1      63.239   7.390   4.719  1.00  0.00     0.076 A 
HETATM    5  O   UNL     1      63.150   5.562   5.910  1.00  0.00    -0.242 OA
HETATM    6  C   UNL     1      64.385   6.082   6.101  1.00  0.00     0.083 A 
HETATM    7  C   UNL     1      65.271   5.309   6.993  1.00  0.00     0.079 C 
ENDROOT
BRANCH   4   8
HETATM    8  C   UNL     1      62.763   8.418   3.782  1.00  0.00    -0.007 A 
HETATM    9  C   UNL     1      62.382   9.695   4.214  1.00  0.00     0.014 A 
HETATM   10  C   UNL     1      61.963  10.668   3.300  1.00  0.00     0.001 A 
HETATM   11  C   UNL     1      61.900  10.371   1.942  1.00  0.00     0.000 A 
HETATM   12  C   UNL     1      62.250   9.100   1.496  1.00  0.00     0.001 A 
HETATM   13  C   UNL     1      62.678   8.131   2.409  1.00  0.00     0.014 A 
ENDBRANCH   4   8
BRANCH   1  14
HETATM   14  C   UNL     1      65.714   8.114   5.300  1.00  0.00     0.207 C 
BRANCH  14  15
HETATM   15  O   UNL     1      65.591   9.285   6.095  1.00  0.00    -0.396 OA
HETATM   16  H   UNL     1      64.658   9.545   6.146  1.00  0.00     0.209 HD
ENDBRANCH  14  15
ENDBRANCH   1  14
TORSDOF 3
ENDMDL
MODEL 8
REMARK VINA RESULT:      -4.9      1.768      2.441
REMARK  3 active torsions:
REMARK  status: ('A' for Active; 'I' for Inactive)
REMARK    1  A    between atoms: C_1  and  C_8 
REMARK    2  A    between atoms: C_4  and  C_7 
REMARK    3  A    between atoms: C_8  and  O_9 
ROOT
HETATM    1  C   UNL     1      63.300   6.714   5.298  1.00  0.00     0.026 A 
HETATM    2  N   UNL     1      64.772   6.771   3.560  1.00  0.00    -0.260 N 
ATOM      3  HN  UNL     1      65.247   7.018   2.691  1.00  0.00     0.195 HD
HETATM    4  C   UNL     1      63.652   7.332   4.048  1.00  0.00     0.076 A 
HETATM    5  O   UNL     1      65.156   5.802   4.453  1.00  0.00    -0.242 OA
HETATM    6  C   UNL     1      64.287   5.766   5.490  1.00  0.00     0.083 A 
HETATM    7  C   UNL     1      64.590   4.775   6.541  1.00  0.00     0.079 C 
ENDROOT
BRANCH   4   8
HETATM    8  C   UNL     1      63.005   8.434   3.320  1.00  0.00    -0.007 A 
HETATM    9  C   UNL     1      62.662   8.326   1.966  1.00  0.00     0.014 A 
HETATM   10  C   UNL     1      62.019   9.376   1.302  1.00  0.00     0.001 A 
HETATM   11  C   UNL     1      61.726  10.556   1.978  1.00  0.00     0.000 A 
HETATM   12  C   UNL     1      62.081  10.692   3.317  1.00  0.00     0.001 A 
HETATM   13  C   UNL     1      62.716   9.638   3.983  1.00  0.00     0.014 A 
ENDBRANCH   4   8
BRANCH   1  14
HETATM   14  C   UNL     1      62.170   7.004   6.212  1.00  0.00     0.207 C 
BRANCH  14  15
HETATM   15  O   UNL     1      62.501   7.973   7.197  1.00  0.00    -0.396 OA
HETATM   16  H   UNL     1      61.687   8.320   7.596  1.00  0.00     0.209 HD
ENDBRANCH  14  15
ENDBRANCH   1  14
TORSDOF 3
ENDMDL
MODEL 9
REMARK VINA RESULT:      -4.6      1.414      1.718
REMARK  3 active torsions:
REMARK  status: ('A' for Active; 'I' for Inactive)
REMARK    1  A    between atoms: C_1  and  C_8 
REMARK    2  A    between atoms: C_4  and  C_7 
REMARK    3  A    between atoms: C_8  and  O_9 
ROOT
HETATM    1  C   UNL     1      65.472   6.860   6.101  1.00  0.00     0.026 A 
HETATM    2  N   UNL     1      63.431   5.853   5.988  1.00  0.00    -0.260 N 
ATOM      3  HN  UNL     1      62.456   5.646   5.768  1.00  0.00     0.195 HD
HETATM    4  C   UNL     1      64.128   6.935   5.595  1.00  0.00     0.076 A 
HETATM    5  O   UNL     1      64.281   5.081   6.740  1.00  0.00    -0.242 OA
HETATM    6  C   UNL     1      65.496   5.674   6.807  1.00  0.00     0.083 A 
HETATM    7  C   UNL     1      66.520   4.939   7.576  1.00  0.00     0.079 C 
ENDROOT
BRANCH   4   8
HETATM    8  C   UNL     1      63.490   7.949   4.743  1.00  0.00    -0.007 A 
HETATM    9  C   UNL     1      63.297   7.748   3.370  1.00  0.00     0.014 A 
HETATM   10  C   UNL     1      62.659   8.714   2.584  1.00  0.00     0.001 A 
HETATM   11  C   UNL     1      62.222   9.904   3.157  1.00  0.00     0.000 A 
HETATM   12  C   UNL     1      62.428  10.134   4.515  1.00  0.00     0.001 A 
HETATM   13  C   UNL     1      63.057   9.163   5.301  1.00  0.00     0.014 A 
ENDBRANCH   4   8
BRANCH   1  14
HETATM   14  C   UNL     1      66.605   7.799   5.918  1.00  0.00     0.207 C 
BRANCH  14  15
HETATM   15  O   UNL     1      66.469   8.974   6.705  1.00  0.00    -0.396 OA
HETATM   16  H   UNL     1      66.014   8.758   7.534  1.00  0.00     0.209 HD
ENDBRANCH  14  15
ENDBRANCH   1  14
TORSDOF 3
ENDMDL
