MODEL 1
REMARK VINA RESULT:      -5.4      0.000      0.000
REMARK  3 active torsions:
REMARK  status: ('A' for Active; 'I' for Inactive)
REMARK    1  A    between atoms: C_1  and  C_8 
REMARK    2  A    between atoms: C_4  and  C_7 
REMARK    3  A    between atoms: C_8  and  N_9 
ROOT
HETATM    1  C   UNL     1      64.790   7.559   5.297  1.00  0.00     0.028 A 
HETATM    2  N   UNL     1      62.785   8.034   6.281  1.00  0.00    -0.260 N 
ATOM      3  HN  UNL     1      61.848   8.396   6.460  1.00  0.00     0.195 HD
HETATM    4  C   UNL     1      63.502   8.183   5.154  1.00  0.00     0.075 A 
HETATM    5  O   UNL     1      63.558   7.297   7.146  1.00  0.00    -0.242 OA
HETATM    6  C   UNL     1      64.744   7.003   6.561  1.00  0.00     0.083 A 
HETATM    7  C   UNL     1      65.666   6.189   7.376  1.00  0.00     0.079 C 
ENDROOT
BRANCH   4   8
HETATM    8  C   UNL     1      62.933   8.920   4.019  1.00  0.00    -0.007 A 
HETATM    9  C   UNL     1      62.455  10.229   4.196  1.00  0.00     0.014 A 
HETATM   10  C   UNL     1      61.913  10.943   3.122  1.00  0.00     0.001 A 
HETATM   11  C   UNL     1      61.848  10.361   1.857  1.00  0.00     0.000 A 
HETATM   12  C   UNL     1      62.310   9.064   1.668  1.00  0.00     0.001 A 
HETATM   13  C   UNL     1      62.836   8.344   2.745  1.00  0.00     0.014 A 
ENDBRANCH   4   8
BRANCH   1  14
HETATM   14  C   UNL     1      65.927   7.491   4.336  1.00  0.00     0.275 C 
BRANCH  14  15
HETATM   15  N   UNL     1      65.863   6.229   3.605  1.00  0.00    -0.075 N 
HETATM   16  C   UNL     1      67.004   5.381   3.921  1.00  0.00     0.267 C 
HETATM   17  H   UNL     1      65.860   6.423   2.604  1.00  0.00     0.277 HD
HETATM   18  H   UNL     1      65.011   5.739   3.879  1.00  0.00     0.277 HD
ENDBRANCH  14  15
ENDBRANCH   1  14
TORSDOF 3
ENDMDL
MODEL 2
REMARK VINA RESULT:      -5.2      2.703      3.991
REMARK  3 active torsions:
REMARK  status: ('A' for Active; 'I' for Inactive)
REMARK    1  A    between atoms: C_1  and  C_8 
REMARK    2  A    between atoms: C_4  and  C_7 
REMARK    3  A    between atoms: C_8  and  N_9 
ROOT
HETATM    1  C   UNL     1      62.837   9.733   4.607  1.00  0.00     0.028 A 
HETATM    2  N   UNL     1      61.541  11.144   3.364  1.00  0.00    -0.260 N 
ATOM      3  HN  UNL     1      60.947  11.529   2.629  1.00  0.00     0.195 HD
HETATM    4  C   UNL     1      62.001   9.884   3.447  1.00  0.00     0.075 A 
HETATM    5  O   UNL     1      62.028  11.813   4.460  1.00  0.00    -0.242 OA
HETATM    6  C   UNL     1      62.787  10.976   5.207  1.00  0.00     0.083 A 
HETATM    7  C   UNL     1      63.354  11.564   6.437  1.00  0.00     0.079 C 
ENDROOT
BRANCH   4   8
HETATM    8  C   UNL     1      61.636   8.904   2.415  1.00  0.00    -0.007 A 
HETATM    9  C   UNL     1      62.323   8.879   1.191  1.00  0.00     0.014 A 
HETATM   10  C   UNL     1      61.987   7.950   0.201  1.00  0.00     0.001 A 
HETATM   11  C   UNL     1      60.963   7.030   0.425  1.00  0.00     0.000 A 
HETATM   12  C   UNL     1      60.269   7.047   1.628  1.00  0.00     0.001 A 
HETATM   13  C   UNL     1      60.594   7.988   2.611  1.00  0.00     0.014 A 
ENDBRANCH   4   8
BRANCH   1  14
HETATM   14  C   UNL     1      63.585   8.540   5.093  1.00  0.00     0.275 C 
BRANCH  14  15
HETATM   15  N   UNL     1      62.919   8.002   6.274  1.00  0.00    -0.075 N 
HETATM   16  C   UNL     1      62.170   6.796   5.952  1.00  0.00     0.267 C 
HETATM   17  H   UNL     1      62.276   8.704   6.644  1.00  0.00     0.277 HD
HETATM   18  H   UNL     1      63.629   7.766   6.968  1.00  0.00     0.277 HD
ENDBRANCH  14  15
ENDBRANCH   1  14
TORSDOF 3
ENDMDL
MODEL 3
REMARK VINA RESULT:      -5.2      2.585      5.277
REMARK  3 active torsions:
REMARK  status: ('A' for Active; 'I' for Inactive)
REMARK    1  A    between atoms: C_1  and  C_8 
REMARK    2  A    between atoms: C_4  and  C_7 
REMARK    3  A    between atoms: C_8  and  N_9 
ROOT
HETATM    1  C   UNL     1      62.223   9.924   3.062  1.00  0.00     0.028 A 
HETATM    2  N   UNL     1      62.625  10.930   5.073  1.00  0.00    -0.260 N 
ATOM      3  HN  UNL     1      62.876  11.094   6.048  1.00  0.00     0.195 HD
HETATM    4  C   UNL     1      62.701   9.763   4.409  1.00  0.00     0.075 A 
HETATM    5  O   UNL     1      62.141  11.858   4.184  1.00  0.00    -0.242 OA
HETATM    6  C   UNL     1      61.914  11.268   2.986  1.00  0.00     0.083 A 
HETATM    7  C   UNL     1      61.413  12.164   1.924  1.00  0.00     0.079 C 
ENDROOT
BRANCH   4   8
HETATM    8  C   UNL     1      63.205   8.565   5.094  1.00  0.00    -0.007 A 
HETATM    9  C   UNL     1      62.308   7.599   5.577  1.00  0.00     0.014 A 
HETATM   10  C   UNL     1      62.775   6.453   6.228  1.00  0.00     0.001 A 
HETATM   11  C   UNL     1      64.145   6.255   6.399  1.00  0.00     0.000 A 
HETATM   12  C   UNL     1      65.044   7.206   5.932  1.00  0.00     0.001 A 
HETATM   13  C   UNL     1      64.576   8.360   5.297  1.00  0.00     0.014 A 
ENDBRANCH   4   8
BRANCH   1  14
HETATM   14  C   UNL     1      62.091   8.917   1.973  1.00  0.00     0.275 C 
BRANCH  14  15
HETATM   15  N   UNL     1      60.676   8.649   1.734  1.00  0.00    -0.075 N 
HETATM   16  C   UNL     1      60.244   7.446   2.432  1.00  0.00     0.267 C 
HETATM   17  H   UNL     1      60.524   8.525   0.733  1.00  0.00     0.277 HD
HETATM   18  H   UNL     1      60.134   9.439   2.085  1.00  0.00     0.277 HD
ENDBRANCH  14  15
ENDBRANCH   1  14
TORSDOF 3
ENDMDL
MODEL 4
REMARK VINA RESULT:      -5.1      1.759      2.599
REMARK  3 active torsions:
REMARK  status: ('A' for Active; 'I' for Inactive)
REMARK    1  A    between atoms: C_1  and  C_8 
REMARK    2  A    between atoms: C_4  and  C_7 
REMARK    3  A    between atoms: C_8  and  N_9 
ROOT
HETATM    1  C   UNL     1      64.189   6.834   6.132  1.00  0.00     0.028 A 
HETATM    2  N   UNL     1      65.489   8.704   5.960  1.00  0.00    -0.260 N 
ATOM      3  HN  UNL     1      65.857   9.612   5.680  1.00  0.00     0.195 HD
HETATM    4  C   UNL     1      64.347   8.134   5.539  1.00  0.00     0.075 A 
HETATM    5  O   UNL     1      66.066   7.823   6.843  1.00  0.00    -0.242 OA
HETATM    6  C   UNL     1      65.291   6.717   6.957  1.00  0.00     0.083 A 
HETATM    7  C   UNL     1      65.784   5.694   7.900  1.00  0.00     0.079 C 
ENDROOT
BRANCH   4   8
HETATM    8  C   UNL     1      63.484   8.846   4.588  1.00  0.00    -0.007 A 
HETATM    9  C   UNL     1      62.893  10.068   4.950  1.00  0.00     0.014 A 
HETATM   10  C   UNL     1      62.070  10.757   4.053  1.00  0.00     0.001 A 
HETATM   11  C   UNL     1      61.835  10.239   2.780  1.00  0.00     0.000 A 
HETATM   12  C   UNL     1      62.407   9.028   2.410  1.00  0.00     0.001 A 
HETATM   13  C   UNL     1      63.215   8.330   3.313  1.00  0.00     0.014 A 
ENDBRANCH   4   8
BRANCH   1  14
HETATM   14  C   UNL     1      63.108   5.826   5.945  1.00  0.00     0.275 C 
BRANCH  14  15
HETATM   15  N   UNL     1      61.851   6.371   6.449  1.00  0.00    -0.075 N 
HETATM   16  C   UNL     1      60.810   6.318   5.432  1.00  0.00     0.267 C 
HETATM   17  H   UNL     1      61.995   7.342   6.727  1.00  0.00     0.277 HD
HETATM   18  H   UNL     1      61.552   5.810   7.247  1.00  0.00     0.277 HD
ENDBRANCH  14  15
ENDBRANCH   1  14
TORSDOF 3
ENDMDL
MODEL 5
REMARK VINA RESULT:      -4.9      2.301      5.186
REMARK  3 active torsions:
REMARK  status: ('A' for Active; 'I' for Inactive)
REMARK    1  A    between atoms: C_1  and  C_8 
REMARK    2  A    between atoms: C_4  and  C_7 
REMARK    3  A    between atoms: C_8  and  N_9 
ROOT
HETATM    1  C   UNL     1      62.555   9.561   3.395  1.00  0.00     0.028 A 
HETATM    2  N   UNL     1      62.867  10.502   5.453  1.00  0.00    -0.260 N 
ATOM      3  HN  UNL     1      63.105  10.642   6.434  1.00  0.00     0.195 HD
HETATM    4  C   UNL     1      63.051   9.381   4.733  1.00  0.00     0.075 A 
HETATM    5  O   UNL     1      62.295  11.422   4.608  1.00  0.00    -0.242 OA
HETATM    6  C   UNL     1      62.119  10.871   3.383  1.00  0.00     0.083 A 
HETATM    7  C   UNL     1      61.533  11.766   2.365  1.00  0.00     0.079 C 
ENDROOT
BRANCH   4   8
HETATM    8  C   UNL     1      63.668   8.205   5.360  1.00  0.00    -0.007 A 
HETATM    9  C   UNL     1      65.055   8.166   5.572  1.00  0.00     0.014 A 
HETATM   10  C   UNL     1      65.656   7.052   6.169  1.00  0.00     0.001 A 
HETATM   11  C   UNL     1      64.876   5.968   6.569  1.00  0.00     0.000 A 
HETATM   12  C   UNL     1      63.502   5.990   6.359  1.00  0.00     0.001 A 
HETATM   13  C   UNL     1      62.905   7.095   5.746  1.00  0.00     0.014 A 
ENDBRANCH   4   8
BRANCH   1  14
HETATM   14  C   UNL     1      62.514   8.599   2.259  1.00  0.00     0.275 C 
BRANCH  14  15
HETATM   15  N   UNL     1      61.189   7.991   2.190  1.00  0.00    -0.075 N 
HETATM   16  C   UNL     1      60.525   8.315   0.936  1.00  0.00     0.267 C 
HETATM   17  H   UNL     1      60.622   8.336   2.966  1.00  0.00     0.277 HD
HETATM   18  H   UNL     1      61.295   6.977   2.247  1.00  0.00     0.277 HD
ENDBRANCH  14  15
ENDBRANCH   1  14
TORSDOF 3
ENDMDL
MODEL 6
REMARK VINA RESULT:      -4.7      2.009      2.808
REMARK  3 active torsions:
REMARK  status: ('A' for Active; 'I' for Inactive)
REMARK    1  A    between atoms: C_1  and  C_8 
REMARK    2  A    between atoms: C_4  and  C_7 
REMARK    3  A    between atoms: C_8  and  N_9 
ROOT
HETATM    1  C   UNL     1      62.661   6.725   5.025  1.00  0.00     0.028 A 
HETATM    2  N   UNL     1      60.460   6.849   4.428  1.00  0.00    -0.260 N 
ATOM      3  HN  UNL     1      59.574   7.160   4.030  1.00  0.00     0.195 HD
HETATM    4  C   UNL     1      61.658   7.441   4.283  1.00  0.00     0.075 A 
HETATM    5  O   UNL     1      60.660   5.743   5.218  1.00  0.00    -0.242 OA
HETATM    6  C   UNL     1      61.967   5.659   5.564  1.00  0.00     0.083 A 
HETATM    7  C   UNL     1      62.328   4.494   6.397  1.00  0.00     0.079 C 
ENDROOT
BRANCH   4   8
HETATM    8  C   UNL     1      61.778   8.656   3.467  1.00  0.00    -0.007 A 
HETATM    9  C   UNL     1      61.868   8.560   2.069  1.00  0.00     0.014 A 
HETATM   10  C   UNL     1      61.980   9.709   1.280  1.00  0.00     0.001 A 
HETATM   11  C   UNL     1      61.996  10.969   1.878  1.00  0.00     0.000 A 
HETATM   12  C   UNL     1      61.914  11.079   3.261  1.00  0.00     0.001 A 
HETATM   13  C   UNL     1      61.820   9.929   4.050  1.00  0.00     0.014 A 
ENDBRANCH   4   8
BRANCH   1  14
HETATM   14  C   UNL     1      64.113   7.017   5.189  1.00  0.00     0.275 C 
BRANCH  14  15
HETATM   15  N   UNL     1      64.363   7.457   6.558  1.00  0.00    -0.075 N 
HETATM   16  C   UNL     1      65.466   6.716   7.155  1.00  0.00     0.267 C 
HETATM   17  H   UNL     1      63.522   7.308   7.116  1.00  0.00     0.277 HD
HETATM   18  H   UNL     1      64.611   8.446   6.539  1.00  0.00     0.277 HD
ENDBRANCH  14  15
ENDBRANCH   1  14
TORSDOF 3
ENDMDL
MODEL 7
REMARK VINA RESULT:      -4.6      2.189      5.913
REMARK  3 active torsions:
REMARK  status: ('A' for Active; 'I' for Inactive)
REMARK    1  A    between atoms: C_1  and  C_8 
REMARK    2  A    between atoms: C_4  and  C_7 
REMARK    3  A    between atoms: C_8  and  N_9 
ROOT
HETATM    1  C   UNL     1      64.517   7.102   5.336  1.00  0.00     0.028 A 
HETATM    2  N   UNL     1      65.818   8.761   6.214  1.00  0.00    -0.260 N 
ATOM      3  HN  UNL     1      66.515   9.267   6.761  1.00  0.00     0.195 HD
HETATM    4  C   UNL     1      65.612   7.433   6.208  1.00  0.00     0.075 A 
HETATM    5  O   UNL     1      64.908   9.305   5.342  1.00  0.00    -0.242 OA
HETATM    6  C   UNL     1      64.142   8.323   4.809  1.00  0.00     0.083 A 
HETATM    7  C   UNL     1      63.132   8.770   3.829  1.00  0.00     0.079 C 
ENDROOT
BRANCH   4   8
HETATM    8  C   UNL     1      66.451   6.559   7.038  1.00  0.00    -0.007 A 
HETATM    9  C   UNL     1      67.093   5.448   6.469  1.00  0.00     0.014 A 
HETATM   10  C   UNL     1      67.896   4.609   7.248  1.00  0.00     0.001 A 
HETATM   11  C   UNL     1      68.075   4.876   8.605  1.00  0.00     0.000 A 
HETATM   12  C   UNL     1      67.441   5.968   9.184  1.00  0.00     0.001 A 
HETATM   13  C   UNL     1      66.623   6.796   8.409  1.00  0.00     0.014 A 
ENDBRANCH   4   8
BRANCH   1  14
HETATM   14  C   UNL     1      63.908   5.777   5.032  1.00  0.00     0.275 C 
BRANCH  14  15
HETATM   15  N   UNL     1      63.157   5.314   6.194  1.00  0.00    -0.075 N 
HETATM   16  C   UNL     1      63.580   3.980   6.595  1.00  0.00     0.267 C 
HETATM   17  H   UNL     1      62.164   5.293   5.963  1.00  0.00     0.277 HD
HETATM   18  H   UNL     1      63.332   5.955   6.969  1.00  0.00     0.277 HD
ENDBRANCH  14  15
ENDBRANCH   1  14
TORSDOF 3
ENDMDL
MODEL 8
REMARK VINA RESULT:      -4.6      1.973      2.264
REMARK  3 active torsions:
REMARK  status: ('A' for Active; 'I' for Inactive)
REMARK    1  A    between atoms: C_1  and  C_8 
REMARK    2  A    between atoms: C_4  and  C_7 
REMARK    3  A    between atoms: C_8  and  N_9 
ROOT
HETATM    1  C   UNL     1      64.640   7.711   4.450  1.00  0.00     0.028 A 
HETATM    2  N   UNL     1      63.574   9.647   5.028  1.00  0.00    -0.260 N 
ATOM      3  HN  UNL     1      62.914  10.423   5.061  1.00  0.00     0.195 HD
HETATM    4  C   UNL     1      63.505   8.567   4.230  1.00  0.00     0.075 A 
HETATM    5  O   UNL     1      64.708   9.501   5.790  1.00  0.00    -0.242 OA
HETATM    6  C   UNL     1      65.336   8.347   5.458  1.00  0.00     0.083 A 
HETATM    7  C   UNL     1      66.564   8.053   6.225  1.00  0.00     0.079 C 
ENDROOT
BRANCH   4   8
HETATM    8  C   UNL     1      62.380   8.420   3.297  1.00  0.00    -0.007 A 
HETATM    9  C   UNL     1      61.204   7.772   3.707  1.00  0.00     0.014 A 
HETATM   10  C   UNL     1      60.125   7.626   2.829  1.00  0.00     0.001 A 
HETATM   11  C   UNL     1      60.205   8.135   1.533  1.00  0.00     0.000 A 
HETATM   12  C   UNL     1      61.365   8.773   1.111  1.00  0.00     0.001 A 
HETATM   13  C   UNL     1      62.450   8.902   1.983  1.00  0.00     0.014 A 
ENDBRANCH   4   8
BRANCH   1  14
HETATM   14  C   UNL     1      65.008   6.430   3.785  1.00  0.00     0.275 C 
BRANCH  14  15
HETATM   15  N   UNL     1      64.232   5.342   4.372  1.00  0.00    -0.075 N 
HETATM   16  C   UNL     1      63.401   4.689   3.371  1.00  0.00     0.267 C 
HETATM   17  H   UNL     1      63.633   5.719   5.108  1.00  0.00     0.277 HD
HETATM   18  H   UNL     1      64.880   4.653   4.755  1.00  0.00     0.277 HD
ENDBRANCH  14  15
ENDBRANCH   1  14
TORSDOF 3
ENDMDL
MODEL 9
REMARK VINA RESULT:      -4.5      2.687      3.525
REMARK  3 active torsions:
REMARK  status: ('A' for Active; 'I' for Inactive)
REMARK    1  A    between atoms: C_1  and  C_8 
REMARK    2  A    between atoms: C_4  and  C_7 
REMARK    3  A    between atoms: C_8  and  N_9 
ROOT
HETATM    1  C   UNL     1      61.107   6.866   4.964  1.00  0.00     0.028 A 
HETATM    2  N   UNL     1      62.978   7.950   5.699  1.00  0.00    -0.260 N 
ATOM      3  HN  UNL     1      63.758   8.603   5.780  1.00  0.00     0.195 HD
HETATM    4  C   UNL     1      62.006   7.973   4.771  1.00  0.00     0.075 A 
HETATM    5  O   UNL     1      62.718   6.877   6.516  1.00  0.00    -0.242 OA
HETATM    6  C   UNL     1      61.602   6.238   6.090  1.00  0.00     0.083 A 
HETATM    7  C   UNL     1      61.192   5.074   6.900  1.00  0.00     0.079 C 
ENDROOT
BRANCH   4   8
HETATM    8  C   UNL     1      61.996   9.028   3.749  1.00  0.00    -0.007 A 
HETATM    9  C   UNL     1      62.095   8.693   2.389  1.00  0.00     0.014 A 
HETATM   10  C   UNL     1      62.085   9.688   1.406  1.00  0.00     0.001 A 
HETATM   11  C   UNL     1      61.968  11.029   1.769  1.00  0.00     0.000 A 
HETATM   12  C   UNL     1      61.876  11.375   3.112  1.00  0.00     0.001 A 
HETATM   13  C   UNL     1      61.905  10.382   4.095  1.00  0.00     0.014 A 
ENDBRANCH   4   8
BRANCH   1  14
HETATM   14  C   UNL     1      59.910   6.464   4.174  1.00  0.00     0.275 C 
BRANCH  14  15
HETATM   15  N   UNL     1      60.129   5.136   3.610  1.00  0.00    -0.075 N 
HETATM   16  C   UNL     1      60.993   5.198   2.440  1.00  0.00     0.267 C 
HETATM   17  H   UNL     1      59.230   4.735   3.340  1.00  0.00     0.277 HD
HETATM   18  H   UNL     1      60.582   4.555   4.317  1.00  0.00     0.277 HD
ENDBRANCH  14  15
ENDBRANCH   1  14
TORSDOF 3
ENDMDL
