MODEL 1
REMARK VINA RESULT:      -5.3      0.000      0.000
REMARK  3 active torsions:
REMARK  status: ('A' for Active; 'I' for Inactive)
REMARK    1  A    between atoms: C_1  and  C_8 
REMARK    2  A    between atoms: C_4  and  C_7 
REMARK    3  A    between atoms: C_8  and  N_9 
ROOT
HETATM    1  C   UNL     1      65.624   7.673   5.554  1.00  0.00     0.028 A 
HETATM    2  N   UNL     1      63.586   7.535   6.575  1.00  0.00    -0.260 N 
ATOM      3  HN  UNL     1      62.588   7.601   6.772  1.00  0.00     0.195 HD
HETATM    4  C   UNL     1      64.214   7.948   5.457  1.00  0.00     0.075 A 
HETATM    5  O   UNL     1      64.547   7.008   7.399  1.00  0.00    -0.242 OA
HETATM    6  C   UNL     1      65.758   7.086   6.799  1.00  0.00     0.083 A 
HETATM    7  C   UNL     1      66.888   6.549   7.581  1.00  0.00     0.079 C 
ENDROOT
BRANCH   4   8
HETATM    8  C   UNL     1      63.439   8.554   4.365  1.00  0.00    -0.007 A 
HETATM    9  C   UNL     1      63.276   7.915   3.130  1.00  0.00     0.014 A 
HETATM   10  C   UNL     1      62.503   8.485   2.115  1.00  0.00     0.001 A 
HETATM   11  C   UNL     1      61.901   9.723   2.310  1.00  0.00     0.000 A 
HETATM   12  C   UNL     1      62.072  10.391   3.520  1.00  0.00     0.001 A 
HETATM   13  C   UNL     1      62.833   9.811   4.540  1.00  0.00     0.014 A 
ENDBRANCH   4   8
BRANCH   1  14
HETATM   14  C   UNL     1      66.720   7.946   4.591  1.00  0.00     0.273 C 
BRANCH  14  15
HETATM   15  N   UNL     1      67.210   6.695   4.035  1.00  0.00    -0.075 N 
HETATM   16  H   UNL     1      67.524   6.850   3.076  1.00  0.00     0.274 HD
HETATM   17  H   UNL     1      66.461   6.004   4.039  1.00  0.00     0.274 HD
HETATM   18  H   UNL     1      67.990   6.356   4.597  1.00  0.00     0.274 HD
ENDBRANCH  14  15
ENDBRANCH   1  14
TORSDOF 3
ENDMDL
MODEL 2
REMARK VINA RESULT:      -5.3      1.453      2.000
REMARK  3 active torsions:
REMARK  status: ('A' for Active; 'I' for Inactive)
REMARK    1  A    between atoms: C_1  and  C_8 
REMARK    2  A    between atoms: C_4  and  C_7 
REMARK    3  A    between atoms: C_8  and  N_9 
ROOT
HETATM    1  C   UNL     1      64.310   7.263   4.928  1.00  0.00     0.028 A 
HETATM    2  N   UNL     1      62.803   8.353   6.252  1.00  0.00    -0.260 N 
ATOM      3  HN  UNL     1      62.070   8.981   6.582  1.00  0.00     0.195 HD
HETATM    4  C   UNL     1      63.292   8.278   4.999  1.00  0.00     0.075 A 
HETATM    5  O   UNL     1      63.479   7.423   6.998  1.00  0.00    -0.242 OA
HETATM    6  C   UNL     1      64.375   6.773   6.219  1.00  0.00     0.083 A 
HETATM    7  C   UNL     1      65.174   5.737   6.901  1.00  0.00     0.079 C 
ENDROOT
BRANCH   4   8
HETATM    8  C   UNL     1      62.751   9.154   3.949  1.00  0.00    -0.007 A 
HETATM    9  C   UNL     1      62.376  10.478   4.211  1.00  0.00     0.014 A 
HETATM   10  C   UNL     1      61.902  11.311   3.194  1.00  0.00     0.001 A 
HETATM   11  C   UNL     1      61.766  10.822   1.900  1.00  0.00     0.000 A 
HETATM   12  C   UNL     1      62.105   9.501   1.621  1.00  0.00     0.001 A 
HETATM   13  C   UNL     1      62.596   8.673   2.637  1.00  0.00     0.014 A 
ENDBRANCH   4   8
BRANCH   1  14
HETATM   14  C   UNL     1      65.138   6.817   3.778  1.00  0.00     0.273 C 
BRANCH  14  15
HETATM   15  N   UNL     1      64.538   5.645   3.164  1.00  0.00    -0.075 N 
HETATM   16  H   UNL     1      64.210   5.883   2.227  1.00  0.00     0.274 HD
HETATM   17  H   UNL     1      63.751   5.329   3.729  1.00  0.00     0.274 HD
HETATM   18  H   UNL     1      65.233   4.901   3.102  1.00  0.00     0.274 HD
ENDBRANCH  14  15
ENDBRANCH   1  14
TORSDOF 3
ENDMDL
MODEL 3
REMARK VINA RESULT:      -5.2      1.635      2.699
REMARK  3 active torsions:
REMARK  status: ('A' for Active; 'I' for Inactive)
REMARK    1  A    between atoms: C_1  and  C_8 
REMARK    2  A    between atoms: C_4  and  C_7 
REMARK    3  A    between atoms: C_8  and  N_9 
ROOT
HETATM    1  C   UNL     1      63.881   6.943   5.940  1.00  0.00     0.028 A 
HETATM    2  N   UNL     1      65.290   8.739   5.976  1.00  0.00    -0.260 N 
ATOM      3  HN  UNL     1      65.703   9.658   5.817  1.00  0.00     0.195 HD
HETATM    4  C   UNL     1      64.122   8.286   5.481  1.00  0.00     0.075 A 
HETATM    5  O   UNL     1      65.819   7.728   6.736  1.00  0.00    -0.242 OA
HETATM    6  C   UNL     1      64.988   6.659   6.719  1.00  0.00     0.083 A 
HETATM    7  C   UNL     1      65.439   5.493   7.503  1.00  0.00     0.079 C 
ENDROOT
BRANCH   4   8
HETATM    8  C   UNL     1      63.303   9.158   4.626  1.00  0.00    -0.007 A 
HETATM    9  C   UNL     1      62.859  10.413   5.060  1.00  0.00     0.014 A 
HETATM   10  C   UNL     1      62.115  11.248   4.222  1.00  0.00     0.001 A 
HETATM   11  C   UNL     1      61.778  10.826   2.941  1.00  0.00     0.000 A 
HETATM   12  C   UNL     1      62.184   9.570   2.497  1.00  0.00     0.001 A 
HETATM   13  C   UNL     1      62.942   8.743   3.332  1.00  0.00     0.014 A 
ENDBRANCH   4   8
BRANCH   1  14
HETATM   14  C   UNL     1      62.746   6.027   5.663  1.00  0.00     0.273 C 
BRANCH  14  15
HETATM   15  N   UNL     1      61.578   6.447   6.420  1.00  0.00    -0.075 N 
HETATM   16  H   UNL     1      60.825   5.771   6.285  1.00  0.00     0.274 HD
HETATM   17  H   UNL     1      61.273   7.364   6.096  1.00  0.00     0.274 HD
HETATM   18  H   UNL     1      61.815   6.497   7.411  1.00  0.00     0.274 HD
ENDBRANCH  14  15
ENDBRANCH   1  14
TORSDOF 3
ENDMDL
MODEL 4
REMARK VINA RESULT:      -5.1      2.856      5.325
REMARK  3 active torsions:
REMARK  status: ('A' for Active; 'I' for Inactive)
REMARK    1  A    between atoms: C_1  and  C_8 
REMARK    2  A    between atoms: C_4  and  C_7 
REMARK    3  A    between atoms: C_8  and  N_9 
ROOT
HETATM    1  C   UNL     1      62.215   9.888   3.037  1.00  0.00     0.028 A 
HETATM    2  N   UNL     1      62.616  10.876   5.056  1.00  0.00    -0.260 N 
ATOM      3  HN  UNL     1      62.876  11.034   6.029  1.00  0.00     0.195 HD
HETATM    4  C   UNL     1      62.652   9.702   4.396  1.00  0.00     0.075 A 
HETATM    5  O   UNL     1      62.160  11.817   4.169  1.00  0.00    -0.242 OA
HETATM    6  C   UNL     1      61.922  11.238   2.969  1.00  0.00     0.083 A 
HETATM    7  C   UNL     1      61.425  12.145   1.916  1.00  0.00     0.079 C 
ENDROOT
BRANCH   4   8
HETATM    8  C   UNL     1      63.116   8.489   5.085  1.00  0.00    -0.007 A 
HETATM    9  C   UNL     1      62.229   7.487   5.495  1.00  0.00     0.014 A 
HETATM   10  C   UNL     1      62.689   6.320   6.112  1.00  0.00     0.001 A 
HETATM   11  C   UNL     1      64.047   6.151   6.356  1.00  0.00     0.000 A 
HETATM   12  C   UNL     1      64.946   7.147   5.983  1.00  0.00     0.001 A 
HETATM   13  C   UNL     1      64.485   8.307   5.350  1.00  0.00     0.014 A 
ENDBRANCH   4   8
BRANCH   1  14
HETATM   14  C   UNL     1      62.077   8.905   1.932  1.00  0.00     0.273 C 
BRANCH  14  15
HETATM   15  N   UNL     1      60.671   8.620   1.700  1.00  0.00    -0.075 N 
HETATM   16  H   UNL     1      60.534   8.359   0.722  1.00  0.00     0.274 HD
HETATM   17  H   UNL     1      60.116   9.448   1.911  1.00  0.00     0.274 HD
HETATM   18  H   UNL     1      60.376   7.850   2.301  1.00  0.00     0.274 HD
ENDBRANCH  14  15
ENDBRANCH   1  14
TORSDOF 3
ENDMDL
MODEL 5
REMARK VINA RESULT:      -5.0      1.847      2.104
REMARK  3 active torsions:
REMARK  status: ('A' for Active; 'I' for Inactive)
REMARK    1  A    between atoms: C_1  and  C_8 
REMARK    2  A    between atoms: C_4  and  C_7 
REMARK    3  A    between atoms: C_8  and  N_9 
ROOT
HETATM    1  C   UNL     1      63.969   7.369   5.060  1.00  0.00     0.028 A 
HETATM    2  N   UNL     1      61.731   6.972   4.842  1.00  0.00    -0.260 N 
ATOM      3  HN  UNL     1      60.748   7.047   4.579  1.00  0.00     0.195 HD
HETATM    4  C   UNL     1      62.720   7.821   4.503  1.00  0.00     0.075 A 
HETATM    5  O   UNL     1      62.297   5.988   5.610  1.00  0.00    -0.242 OA
HETATM    6  C   UNL     1      63.625   6.217   5.742  1.00  0.00     0.083 A 
HETATM    7  C   UNL     1      64.361   5.225   6.550  1.00  0.00     0.079 C 
ENDROOT
BRANCH   4   8
HETATM    8  C   UNL     1      62.425   8.988   3.659  1.00  0.00    -0.007 A 
HETATM    9  C   UNL     1      62.340   8.889   2.264  1.00  0.00     0.014 A 
HETATM   10  C   UNL     1      62.018   9.999   1.478  1.00  0.00     0.001 A 
HETATM   11  C   UNL     1      61.805  11.237   2.074  1.00  0.00     0.000 A 
HETATM   12  C   UNL     1      61.913  11.366   3.457  1.00  0.00     0.001 A 
HETATM   13  C   UNL     1      62.219  10.249   4.243  1.00  0.00     0.014 A 
ENDBRANCH   4   8
BRANCH   1  14
HETATM   14  C   UNL     1      65.327   7.964   4.972  1.00  0.00     0.273 C 
BRANCH  14  15
HETATM   15  N   UNL     1      65.676   8.584   6.238  1.00  0.00    -0.075 N 
HETATM   16  H   UNL     1      65.603   7.894   6.987  1.00  0.00     0.274 HD
HETATM   17  H   UNL     1      65.039   9.357   6.427  1.00  0.00     0.274 HD
HETATM   18  H   UNL     1      66.633   8.935   6.192  1.00  0.00     0.274 HD
ENDBRANCH  14  15
ENDBRANCH   1  14
TORSDOF 3
ENDMDL
MODEL 6
REMARK VINA RESULT:      -4.9      2.718      3.508
REMARK  3 active torsions:
REMARK  status: ('A' for Active; 'I' for Inactive)
REMARK    1  A    between atoms: C_1  and  C_8 
REMARK    2  A    between atoms: C_4  and  C_7 
REMARK    3  A    between atoms: C_8  and  N_9 
ROOT
HETATM    1  C   UNL     1      61.799   6.941   4.920  1.00  0.00     0.028 A 
HETATM    2  N   UNL     1      63.201   8.453   5.900  1.00  0.00    -0.260 N 
ATOM      3  HN  UNL     1      63.744   9.293   6.098  1.00  0.00     0.195 HD
HETATM    4  C   UNL     1      62.396   8.248   4.839  1.00  0.00     0.075 A 
HETATM    5  O   UNL     1      63.151   7.314   6.662  1.00  0.00    -0.242 OA
HETATM    6  C   UNL     1      62.321   6.414   6.087  1.00  0.00     0.083 A 
HETATM    7  C   UNL     1      62.174   5.135   6.810  1.00  0.00     0.079 C 
ENDROOT
BRANCH   4   8
HETATM    8  C   UNL     1      62.227   9.307   3.833  1.00  0.00    -0.007 A 
HETATM    9  C   UNL     1      62.243   9.032   2.461  1.00  0.00     0.014 A 
HETATM   10  C   UNL     1      62.040  10.042   1.517  1.00  0.00     0.001 A 
HETATM   11  C   UNL     1      61.848  11.355   1.932  1.00  0.00     0.000 A 
HETATM   12  C   UNL     1      61.857  11.658   3.292  1.00  0.00     0.001 A 
HETATM   13  C   UNL     1      62.044  10.642   4.235  1.00  0.00     0.014 A 
ENDBRANCH   4   8
BRANCH   1  14
HETATM   14  C   UNL     1      60.856   6.260   3.996  1.00  0.00     0.273 C 
BRANCH  14  15
HETATM   15  N   UNL     1      59.507   6.322   4.535  1.00  0.00    -0.075 N 
HETATM   16  H   UNL     1      58.850   6.529   3.782  1.00  0.00     0.274 HD
HETATM   17  H   UNL     1      59.456   7.055   5.242  1.00  0.00     0.274 HD
HETATM   18  H   UNL     1      59.268   5.424   4.956  1.00  0.00     0.274 HD
ENDBRANCH  14  15
ENDBRANCH   1  14
TORSDOF 3
ENDMDL
MODEL 7
REMARK VINA RESULT:      -4.9      1.515      2.321
REMARK  3 active torsions:
REMARK  status: ('A' for Active; 'I' for Inactive)
REMARK    1  A    between atoms: C_1  and  C_8 
REMARK    2  A    between atoms: C_4  and  C_7 
REMARK    3  A    between atoms: C_8  and  N_9 
ROOT
HETATM    1  C   UNL     1      64.300   6.647   6.295  1.00  0.00     0.028 A 
HETATM    2  N   UNL     1      65.510   8.582   6.214  1.00  0.00    -0.260 N 
ATOM      3  HN  UNL     1      65.830   9.522   5.984  1.00  0.00     0.195 HD
HETATM    4  C   UNL     1      64.420   7.962   5.721  1.00  0.00     0.075 A 
HETATM    5  O   UNL     1      66.106   7.706   7.084  1.00  0.00    -0.242 OA
HETATM    6  C   UNL     1      65.393   6.557   7.138  1.00  0.00     0.083 A 
HETATM    7  C   UNL     1      65.927   5.522   8.044  1.00  0.00     0.079 C 
ENDROOT
BRANCH   4   8
HETATM    8  C   UNL     1      63.554   8.659   4.759  1.00  0.00    -0.007 A 
HETATM    9  C   UNL     1      62.875   9.837   5.093  1.00  0.00     0.014 A 
HETATM   10  C   UNL     1      62.089  10.511   4.155  1.00  0.00     0.001 A 
HETATM   11  C   UNL     1      61.944   9.999   2.871  1.00  0.00     0.000 A 
HETATM   12  C   UNL     1      62.586   8.813   2.523  1.00  0.00     0.001 A 
HETATM   13  C   UNL     1      63.387   8.148   3.459  1.00  0.00     0.014 A 
ENDBRANCH   4   8
BRANCH   1  14
HETATM   14  C   UNL     1      63.281   5.592   6.065  1.00  0.00     0.273 C 
BRANCH  14  15
HETATM   15  N   UNL     1      63.690   4.744   4.958  1.00  0.00    -0.075 N 
HETATM   16  H   UNL     1      63.210   5.040   4.107  1.00  0.00     0.274 HD
HETATM   17  H   UNL     1      63.449   3.775   5.163  1.00  0.00     0.274 HD
HETATM   18  H   UNL     1      64.698   4.823   4.824  1.00  0.00     0.274 HD
ENDBRANCH  14  15
ENDBRANCH   1  14
TORSDOF 3
ENDMDL
MODEL 8
REMARK VINA RESULT:      -4.6      1.878      5.603
REMARK  3 active torsions:
REMARK  status: ('A' for Active; 'I' for Inactive)
REMARK    1  A    between atoms: C_1  and  C_8 
REMARK    2  A    between atoms: C_4  and  C_7 
REMARK    3  A    between atoms: C_8  and  N_9 
ROOT
HETATM    1  C   UNL     1      64.428   7.231   5.422  1.00  0.00     0.028 A 
HETATM    2  N   UNL     1      65.964   8.637   6.359  1.00  0.00    -0.260 N 
ATOM      3  HN  UNL     1      66.767   9.002   6.870  1.00  0.00     0.195 HD
HETATM    4  C   UNL     1      65.620   7.342   6.222  1.00  0.00     0.075 A 
HETATM    5  O   UNL     1      65.026   9.371   5.679  1.00  0.00    -0.242 OA
HETATM    6  C   UNL     1      64.113   8.543   5.120  1.00  0.00     0.083 A 
HETATM    7  C   UNL     1      63.041   9.208   4.353  1.00  0.00     0.079 C 
ENDROOT
BRANCH   4   8
HETATM    8  C   UNL     1      66.450   6.296   6.836  1.00  0.00    -0.007 A 
HETATM    9  C   UNL     1      67.190   5.391   6.065  1.00  0.00     0.014 A 
HETATM   10  C   UNL     1      68.007   4.428   6.664  1.00  0.00     0.001 A 
HETATM   11  C   UNL     1      68.074   4.335   8.050  1.00  0.00     0.000 A 
HETATM   12  C   UNL     1      67.324   5.205   8.838  1.00  0.00     0.001 A 
HETATM   13  C   UNL     1      66.520   6.179   8.236  1.00  0.00     0.014 A 
ENDBRANCH   4   8
BRANCH   1  14
HETATM   14  C   UNL     1      63.666   6.028   5.002  1.00  0.00     0.273 C 
BRANCH  14  15
HETATM   15  N   UNL     1      62.802   5.589   6.085  1.00  0.00    -0.075 N 
HETATM   16  H   UNL     1      62.087   4.961   5.716  1.00  0.00     0.274 HD
HETATM   17  H   UNL     1      62.354   6.398   6.513  1.00  0.00     0.274 HD
HETATM   18  H   UNL     1      63.358   5.097   6.785  1.00  0.00     0.274 HD
ENDBRANCH  14  15
ENDBRANCH   1  14
TORSDOF 3
ENDMDL
MODEL 9
REMARK VINA RESULT:      -4.6      1.907      5.006
REMARK  3 active torsions:
REMARK  status: ('A' for Active; 'I' for Inactive)
REMARK    1  A    between atoms: C_1  and  C_8 
REMARK    2  A    between atoms: C_4  and  C_7 
REMARK    3  A    between atoms: C_8  and  N_9 
ROOT
HETATM    1  C   UNL     1      63.586   8.341   3.977  1.00  0.00     0.028 A 
HETATM    2  N   UNL     1      64.102   9.714   5.726  1.00  0.00    -0.260 N 
ATOM      3  HN  UNL     1      64.543  10.116   6.553  1.00  0.00     0.195 HD
HETATM    4  C   UNL     1      64.438   8.561   5.116  1.00  0.00     0.075 A 
HETATM    5  O   UNL     1      63.051  10.244   5.023  1.00  0.00    -0.242 OA
HETATM    6  C   UNL     1      62.741   9.435   3.983  1.00  0.00     0.083 A 
HETATM    7  C   UNL     1      61.620   9.891   3.138  1.00  0.00     0.079 C 
ENDROOT
BRANCH   4   8
HETATM    8  C   UNL     1      65.554   7.757   5.635  1.00  0.00    -0.007 A 
HETATM    9  C   UNL     1      65.406   6.918   6.746  1.00  0.00     0.014 A 
HETATM   10  C   UNL     1      66.465   6.128   7.203  1.00  0.00     0.001 A 
HETATM   11  C   UNL     1      67.702   6.189   6.572  1.00  0.00     0.000 A 
HETATM   12  C   UNL     1      67.882   7.038   5.483  1.00  0.00     0.001 A 
HETATM   13  C   UNL     1      66.816   7.816   5.017  1.00  0.00     0.014 A 
ENDBRANCH   4   8
BRANCH   1  14
HETATM   14  C   UNL     1      63.562   7.220   3.003  1.00  0.00     0.273 C 
BRANCH  14  15
HETATM   15  N   UNL     1      62.889   6.073   3.588  1.00  0.00    -0.075 N 
HETATM   16  H   UNL     1      62.175   6.394   4.243  1.00  0.00     0.274 HD
HETATM   17  H   UNL     1      63.568   5.496   4.084  1.00  0.00     0.274 HD
HETATM   18  H   UNL     1      62.450   5.523   2.850  1.00  0.00     0.274 HD
ENDBRANCH  14  15
ENDBRANCH   1  14
TORSDOF 3
ENDMDL
