MODEL 1
REMARK VINA RESULT:      -4.6      0.000      0.000
REMARK  0 active torsions:
REMARK  status: ('A' for Active; 'I' for Inactive)
ROOT
HETATM    1  C   UNL     1      62.453   9.660   3.552  1.00  0.00     0.100 A 
HETATM    2  N   UNL     1      61.567  11.315   2.281  1.00  0.00    -0.264 N 
ATOM      3  HN  UNL     1      61.154  11.830   1.503  1.00  0.00     0.194 HD
HETATM    4  O   UNL     1      61.887  11.811   3.531  1.00  0.00    -0.241 OA
HETATM    5  C   UNL     1      62.418  10.816   4.293  1.00  0.00     0.095 A 
HETATM    6  C   UNL     1      61.908  10.020   2.299  1.00  0.00     0.052 A 
HETATM    7  C   UNL     1      62.938   8.399   3.991  1.00  0.00     0.104 C 
HETATM    8  N   UNL     1      63.336   7.375   4.362  1.00  0.00    -0.191 NA
HETATM    9  C   UNL     1      62.811  11.190   5.664  1.00  0.00     0.081 C 
HETATM   10  C   UNL     1      61.687   9.192   1.091  1.00  0.00     0.072 C 
ENDROOT
TORSDOF 0
ENDMDL
MODEL 2
REMARK VINA RESULT:      -4.2      1.855      2.771
REMARK  0 active torsions:
REMARK  status: ('A' for Active; 'I' for Inactive)
ROOT
HETATM    1  C   UNL     1      62.363   9.785   3.272  1.00  0.00     0.100 A 
HETATM    2  N   UNL     1      62.579  10.897   5.236  1.00  0.00    -0.264 N 
ATOM      3  HN  UNL     1      62.761  11.117   6.215  1.00  0.00     0.194 HD
HETATM    4  O   UNL     1      62.153  11.770   4.252  1.00  0.00    -0.241 OA
HETATM    5  C   UNL     1      62.024  11.101   3.074  1.00  0.00     0.095 A 
HETATM    6  C   UNL     1      62.705   9.704   4.641  1.00  0.00     0.052 A 
HETATM    7  C   UNL     1      62.357   8.762   2.286  1.00  0.00     0.104 C 
HETATM    8  N   UNL     1      62.349   7.936   1.472  1.00  0.00    -0.191 NA
HETATM    9  C   UNL     1      61.575  11.902   1.921  1.00  0.00     0.081 C 
HETATM   10  C   UNL     1      63.155   8.538   5.435  1.00  0.00     0.072 C 
ENDROOT
TORSDOF 0
ENDMDL
MODEL 3
REMARK VINA RESULT:      -4.0      1.991      2.384
REMARK  0 active torsions:
REMARK  status: ('A' for Active; 'I' for Inactive)
ROOT
HETATM    1  C   UNL     1      62.576   9.334   3.746  1.00  0.00     0.100 A 
HETATM    2  N   UNL     1      62.497  11.271   4.921  1.00  0.00    -0.264 N 
ATOM      3  HN  UNL     1      62.359  12.249   5.178  1.00  0.00     0.194 HD
HETATM    4  O   UNL     1      62.955  10.253   5.736  1.00  0.00    -0.241 OA
HETATM    5  C   UNL     1      63.002   9.090   5.029  1.00  0.00     0.095 A 
HETATM    6  C   UNL     1      62.269  10.713   3.725  1.00  0.00     0.052 A 
HETATM    7  C   UNL     1      62.479   8.377   2.700  1.00  0.00     0.104 C 
HETATM    8  N   UNL     1      62.404   7.586   1.855  1.00  0.00    -0.191 NA
HETATM    9  C   UNL     1      63.472   7.903   5.765  1.00  0.00     0.081 C 
HETATM   10  C   UNL     1      61.759  11.552   2.615  1.00  0.00     0.072 C 
ENDROOT
TORSDOF 0
ENDMDL
MODEL 4
REMARK VINA RESULT:      -3.9      2.114      3.081
REMARK  0 active torsions:
REMARK  status: ('A' for Active; 'I' for Inactive)
ROOT
HETATM    1  C   UNL     1      62.625   9.261   3.308  1.00  0.00     0.100 A 
HETATM    2  N   UNL     1      62.943   7.357   2.118  1.00  0.00    -0.264 N 
ATOM      3  HN  UNL     1      62.873   6.633   1.402  1.00  0.00     0.194 HD
HETATM    4  O   UNL     1      63.759   7.349   3.234  1.00  0.00    -0.241 OA
HETATM    5  C   UNL     1      63.567   8.492   3.947  1.00  0.00     0.095 A 
HETATM    6  C   UNL     1      62.263   8.510   2.166  1.00  0.00     0.052 A 
HETATM    7  C   UNL     1      62.148  10.529   3.736  1.00  0.00     0.104 C 
HETATM    8  N   UNL     1      61.768  11.563   4.097  1.00  0.00    -0.191 NA
HETATM    9  C   UNL     1      64.372   8.633   5.174  1.00  0.00     0.081 C 
HETATM   10  C   UNL     1      61.292   8.829   1.094  1.00  0.00     0.072 C 
ENDROOT
TORSDOF 0
ENDMDL
MODEL 5
REMARK VINA RESULT:      -3.9      2.000      3.963
REMARK  0 active torsions:
REMARK  status: ('A' for Active; 'I' for Inactive)
ROOT
HETATM    1  C   UNL     1      62.658   9.226   3.300  1.00  0.00     0.100 A 
HETATM    2  N   UNL     1      63.805   7.273   3.199  1.00  0.00    -0.264 N 
ATOM      3  HN  UNL     1      64.434   6.501   3.420  1.00  0.00     0.194 HD
HETATM    4  O   UNL     1      62.986   7.388   2.090  1.00  0.00    -0.241 OA
HETATM    5  C   UNL     1      62.298   8.561   2.153  1.00  0.00     0.095 A 
HETATM    6  C   UNL     1      63.603   8.381   3.924  1.00  0.00     0.052 A 
HETATM    7  C   UNL     1      62.161  10.487   3.727  1.00  0.00     0.104 C 
HETATM    8  N   UNL     1      61.748  11.517   4.064  1.00  0.00    -0.191 NA
HETATM    9  C   UNL     1      61.375   8.830   1.036  1.00  0.00     0.081 C 
HETATM   10  C   UNL     1      64.342   8.564   5.195  1.00  0.00     0.072 C 
ENDROOT
TORSDOF 0
ENDMDL
MODEL 6
REMARK VINA RESULT:      -3.9      1.793      3.936
REMARK  0 active torsions:
REMARK  status: ('A' for Active; 'I' for Inactive)
ROOT
HETATM    1  C   UNL     1      62.265  10.023   3.821  1.00  0.00     0.100 A 
HETATM    2  N   UNL     1      62.906   8.906   5.688  1.00  0.00    -0.264 N 
ATOM      3  HN  UNL     1      63.254   8.692   6.623  1.00  0.00     0.194 HD
HETATM    4  O   UNL     1      62.464   8.005   4.737  1.00  0.00    -0.241 OA
HETATM    5  C   UNL     1      62.079   8.677   3.617  1.00  0.00     0.095 A 
HETATM    6  C   UNL     1      62.783  10.119   5.133  1.00  0.00     0.052 A 
HETATM    7  C   UNL     1      61.982  11.058   2.890  1.00  0.00     0.104 C 
HETATM    8  N   UNL     1      61.747  11.893   2.120  1.00  0.00    -0.191 NA
HETATM    9  C   UNL     1      61.579   7.849   2.506  1.00  0.00     0.081 C 
HETATM   10  C   UNL     1      63.176  11.318   5.908  1.00  0.00     0.072 C 
ENDROOT
TORSDOF 0
ENDMDL
MODEL 7
REMARK VINA RESULT:      -3.9      1.622      2.968
REMARK  0 active torsions:
REMARK  status: ('A' for Active; 'I' for Inactive)
ROOT
HETATM    1  C   UNL     1      62.268   9.980   3.875  1.00  0.00     0.100 A 
HETATM    2  N   UNL     1      62.474   7.963   4.890  1.00  0.00    -0.264 N 
ATOM      3  HN  UNL     1      62.453   6.960   5.076  1.00  0.00     0.194 HD
HETATM    4  O   UNL     1      62.893   8.960   5.751  1.00  0.00    -0.241 OA
HETATM    5  C   UNL     1      62.769  10.170   5.140  1.00  0.00     0.095 A 
HETATM    6  C   UNL     1      62.100   8.581   3.762  1.00  0.00     0.052 A 
HETATM    7  C   UNL     1      61.996  10.997   2.921  1.00  0.00     0.104 C 
HETATM    8  N   UNL     1      61.778  11.836   2.151  1.00  0.00    -0.191 NA
HETATM    9  C   UNL     1      63.181  11.342   5.935  1.00  0.00     0.081 C 
HETATM   10  C   UNL     1      61.596   7.778   2.624  1.00  0.00     0.072 C 
ENDROOT
TORSDOF 0
ENDMDL
MODEL 8
REMARK VINA RESULT:      -3.9      2.669      3.492
REMARK  0 active torsions:
REMARK  status: ('A' for Active; 'I' for Inactive)
ROOT
HETATM    1  C   UNL     1      64.119   8.246   4.299  1.00  0.00     0.100 A 
HETATM    2  N   UNL     1      63.856  10.076   5.612  1.00  0.00    -0.264 N 
ATOM      3  HN  UNL     1      63.477  10.921   6.039  1.00  0.00     0.194 HD
HETATM    4  O   UNL     1      65.047   9.447   5.924  1.00  0.00    -0.241 OA
HETATM    5  C   UNL     1      65.203   8.349   5.136  1.00  0.00     0.095 A 
HETATM    6  C   UNL     1      63.301   9.348   4.633  1.00  0.00     0.052 A 
HETATM    7  C   UNL     1      63.907   7.234   3.325  1.00  0.00     0.104 C 
HETATM    8  N   UNL     1      63.746   6.402   2.533  1.00  0.00    -0.191 NA
HETATM    9  C   UNL     1      66.434   7.567   5.352  1.00  0.00     0.081 C 
HETATM   10  C   UNL     1      61.994   9.762   4.070  1.00  0.00     0.072 C 
ENDROOT
TORSDOF 0
ENDMDL
MODEL 9
REMARK VINA RESULT:      -3.8      4.216      5.750
REMARK  0 active torsions:
REMARK  status: ('A' for Active; 'I' for Inactive)
ROOT
HETATM    1  C   UNL     1      65.628   6.913   5.899  1.00  0.00     0.100 A 
HETATM    2  N   UNL     1      66.842   8.457   7.032  1.00  0.00    -0.264 N 
ATOM      3  HN  UNL     1      67.528   8.897   7.647  1.00  0.00     0.194 HD
HETATM    4  O   UNL     1      65.891   9.092   6.256  1.00  0.00    -0.241 OA
HETATM    5  C   UNL     1      65.163   8.164   5.576  1.00  0.00     0.095 A 
HETATM    6  C   UNL     1      66.681   7.145   6.814  1.00  0.00     0.052 A 
HETATM    7  C   UNL     1      65.131   5.680   5.398  1.00  0.00     0.104 C 
HETATM    8  N   UNL     1      64.716   4.680   4.982  1.00  0.00    -0.191 NA
HETATM    9  C   UNL     1      64.103   8.689   4.698  1.00  0.00     0.081 C 
HETATM   10  C   UNL     1      67.563   6.178   7.506  1.00  0.00     0.072 C 
ENDROOT
TORSDOF 0
ENDMDL
