MODEL 1
REMARK VINA RESULT:      -5.3      0.000      0.000
REMARK  1 active torsions:
REMARK  status: ('A' for Active; 'I' for Inactive)
REMARK    1  A    between atoms: C_1  and  C_2 
ROOT
HETATM    1  C   UNL     1      63.414   8.662   5.058  1.00  0.00     0.041 A 
HETATM    2  C   UNL     1      62.964   8.618   3.729  1.00  0.00     0.028 A 
HETATM    3  C   UNL     1      62.412   9.766   3.189  1.00  0.00    -0.022 A 
HETATM    4  C   UNL     1      62.296  10.922   3.947  1.00  0.00     0.075 A 
HETATM    5  O   UNL     1      61.732  11.970   3.267  1.00  0.00    -0.350 OA
HETATM    6  C   UNL     1      63.300   9.847   5.816  1.00  0.00     0.021 A 
HETATM    7  C   UNL     1      62.719  10.988   5.258  1.00  0.00     0.038 A 
HETATM    8  C   UNL     1      61.768  11.534   1.887  1.00  0.00     0.180 C 
HETATM    9  C   UNL     1      61.832  10.006   1.847  1.00  0.00     0.068 C 
ENDROOT
BRANCH   1  10
HETATM   10  C   UNL     1      64.062   7.450   5.619  1.00  0.00     0.209 C 
HETATM   11  O   UNL     1      64.689   6.661   4.939  1.00  0.00    -0.644 OA
HETATM   12  O   UNL     1      63.865   7.295   6.946  1.00  0.00    -0.644 OA
ENDBRANCH   1  10
TORSDOF 1
ENDMDL
MODEL 2
REMARK VINA RESULT:      -5.1      1.982      3.710
REMARK  1 active torsions:
REMARK  status: ('A' for Active; 'I' for Inactive)
REMARK    1  A    between atoms: C_1  and  C_2 
ROOT
HETATM    1  C   UNL     1      62.764   9.926   4.159  1.00  0.00     0.041 A 
HETATM    2  C   UNL     1      62.118   9.984   2.913  1.00  0.00     0.028 A 
HETATM    3  C   UNL     1      62.217   8.887   2.077  1.00  0.00    -0.022 A 
HETATM    4  C   UNL     1      62.946   7.769   2.455  1.00  0.00     0.075 A 
HETATM    5  O   UNL     1      62.944   6.769   1.517  1.00  0.00    -0.350 OA
HETATM    6  C   UNL     1      63.493   8.779   4.538  1.00  0.00     0.021 A 
HETATM    7  C   UNL     1      63.600   7.691   3.667  1.00  0.00     0.038 A 
HETATM    8  C   UNL     1      61.890   7.163   0.606  1.00  0.00     0.180 C 
HETATM    9  C   UNL     1      61.678   8.675   0.713  1.00  0.00     0.068 C 
ENDROOT
BRANCH   1  10
HETATM   10  C   UNL     1      62.607  11.077   5.083  1.00  0.00     0.209 C 
HETATM   11  O   UNL     1      63.062  11.086   6.211  1.00  0.00    -0.644 OA
HETATM   12  O   UNL     1      61.888  12.095   4.564  1.00  0.00    -0.644 OA
ENDBRANCH   1  10
TORSDOF 1
ENDMDL
MODEL 3
REMARK VINA RESULT:      -5.1      2.238      4.111
REMARK  1 active torsions:
REMARK  status: ('A' for Active; 'I' for Inactive)
REMARK    1  A    between atoms: C_1  and  C_2 
ROOT
HETATM    1  C   UNL     1      62.378  10.009   3.579  1.00  0.00     0.041 A 
HETATM    2  C   UNL     1      62.895   8.731   3.847  1.00  0.00     0.028 A 
HETATM    3  C   UNL     1      62.918   7.808   2.817  1.00  0.00    -0.022 A 
HETATM    4  C   UNL     1      62.428   8.135   1.560  1.00  0.00     0.075 A 
HETATM    5  O   UNL     1      62.525   7.113   0.652  1.00  0.00    -0.350 OA
HETATM    6  C   UNL     1      61.893  10.333   2.294  1.00  0.00     0.021 A 
HETATM    7  C   UNL     1      61.904   9.378   1.275  1.00  0.00     0.038 A 
HETATM    8  C   UNL     1      63.413   6.170   1.297  1.00  0.00     0.180 C 
HETATM    9  C   UNL     1      63.367   6.397   2.810  1.00  0.00     0.068 C 
ENDROOT
BRANCH   1  10
HETATM   10  C   UNL     1      62.411  11.020   4.666  1.00  0.00     0.209 C 
HETATM   11  O   UNL     1      61.906  12.121   4.560  1.00  0.00    -0.644 OA
HETATM   12  O   UNL     1      63.079  10.611   5.766  1.00  0.00    -0.644 OA
ENDBRANCH   1  10
TORSDOF 1
ENDMDL
MODEL 4
REMARK VINA RESULT:      -4.9      1.889      4.480
REMARK  1 active torsions:
REMARK  status: ('A' for Active; 'I' for Inactive)
REMARK    1  A    between atoms: C_1  and  C_2 
ROOT
HETATM    1  C   UNL     1      63.152   9.651   4.672  1.00  0.00     0.041 A 
HETATM    2  C   UNL     1      64.258   8.914   5.123  1.00  0.00     0.028 A 
HETATM    3  C   UNL     1      64.574   7.742   4.459  1.00  0.00    -0.022 A 
HETATM    4  C   UNL     1      63.808   7.304   3.389  1.00  0.00     0.075 A 
HETATM    5  O   UNL     1      64.253   6.129   2.840  1.00  0.00    -0.350 OA
HETATM    6  C   UNL     1      62.387   9.202   3.575  1.00  0.00     0.021 A 
HETATM    7  C   UNL     1      62.710   8.003   2.934  1.00  0.00     0.038 A 
HETATM    8  C   UNL     1      65.573   5.967   3.414  1.00  0.00     0.180 C 
HETATM    9  C   UNL     1      65.646   6.755   4.724  1.00  0.00     0.068 C 
ENDROOT
BRANCH   1  10
HETATM   10  C   UNL     1      62.849  10.941   5.343  1.00  0.00     0.209 C 
HETATM   11  O   UNL     1      63.265  11.224   6.450  1.00  0.00    -0.644 OA
HETATM   12  O   UNL     1      62.046  11.752   4.620  1.00  0.00    -0.644 OA
ENDBRANCH   1  10
TORSDOF 1
ENDMDL
MODEL 5
REMARK VINA RESULT:      -4.7      1.662      1.994
REMARK  1 active torsions:
REMARK  status: ('A' for Active; 'I' for Inactive)
REMARK    1  A    between atoms: C_1  and  C_2 
ROOT
HETATM    1  C   UNL     1      63.941   8.587   4.683  1.00  0.00     0.041 A 
HETATM    2  C   UNL     1      63.801   7.763   3.555  1.00  0.00     0.028 A 
HETATM    3  C   UNL     1      62.882   8.132   2.589  1.00  0.00    -0.022 A 
HETATM    4  C   UNL     1      62.111   9.276   2.742  1.00  0.00     0.075 A 
HETATM    5  O   UNL     1      61.252   9.502   1.699  1.00  0.00    -0.350 OA
HETATM    6  C   UNL     1      63.160   9.754   4.823  1.00  0.00     0.021 A 
HETATM    7  C   UNL     1      62.221  10.095   3.846  1.00  0.00     0.038 A 
HETATM    8  C   UNL     1      61.725   8.599   0.670  1.00  0.00     0.180 C 
HETATM    9  C   UNL     1      62.499   7.455   1.329  1.00  0.00     0.068 C 
ENDROOT
BRANCH   1  10
HETATM   10  C   UNL     1      64.971   8.227   5.690  1.00  0.00     0.209 C 
HETATM   11  O   UNL     1      66.127   8.599   5.617  1.00  0.00    -0.644 OA
HETATM   12  O   UNL     1      64.510   7.426   6.675  1.00  0.00    -0.644 OA
ENDBRANCH   1  10
TORSDOF 1
ENDMDL
MODEL 6
REMARK VINA RESULT:      -4.7      1.882      4.623
REMARK  1 active torsions:
REMARK  status: ('A' for Active; 'I' for Inactive)
REMARK    1  A    between atoms: C_1  and  C_2 
ROOT
HETATM    1  C   UNL     1      63.096   9.369   4.332  1.00  0.00     0.041 A 
HETATM    2  C   UNL     1      64.235   8.819   4.942  1.00  0.00     0.028 A 
HETATM    3  C   UNL     1      64.737   7.634   4.434  1.00  0.00    -0.022 A 
HETATM    4  C   UNL     1      64.123   7.003   3.362  1.00  0.00     0.075 A 
HETATM    5  O   UNL     1      64.744   5.844   2.978  1.00  0.00    -0.350 OA
HETATM    6  C   UNL     1      62.486   8.725   3.235  1.00  0.00     0.021 A 
HETATM    7  C   UNL     1      62.997   7.517   2.753  1.00  0.00     0.038 A 
HETATM    8  C   UNL     1      66.017   5.899   3.664  1.00  0.00     0.180 C 
HETATM    9  C   UNL     1      65.887   6.814   4.884  1.00  0.00     0.068 C 
ENDROOT
BRANCH   1  10
HETATM   10  C   UNL     1      62.593  10.672   4.835  1.00  0.00     0.209 C 
HETATM   11  O   UNL     1      61.852  11.389   4.190  1.00  0.00    -0.644 OA
HETATM   12  O   UNL     1      63.058  10.995   6.062  1.00  0.00    -0.644 OA
ENDBRANCH   1  10
TORSDOF 1
ENDMDL
MODEL 7
REMARK VINA RESULT:      -4.6      1.876      4.400
REMARK  1 active torsions:
REMARK  status: ('A' for Active; 'I' for Inactive)
REMARK    1  A    between atoms: C_1  and  C_2 
ROOT
HETATM    1  C   UNL     1      62.132   9.956   3.867  1.00  0.00     0.041 A 
HETATM    2  C   UNL     1      61.335   8.971   3.262  1.00  0.00     0.028 A 
HETATM    3  C   UNL     1      61.450   7.670   3.719  1.00  0.00    -0.022 A 
HETATM    4  C   UNL     1      62.338   7.349   4.735  1.00  0.00     0.075 A 
HETATM    5  O   UNL     1      62.329   6.021   5.073  1.00  0.00    -0.350 OA
HETATM    6  C   UNL     1      63.024   9.620   4.908  1.00  0.00     0.021 A 
HETATM    7  C   UNL     1      63.140   8.295   5.337  1.00  0.00     0.038 A 
HETATM    8  C   UNL     1      61.134   5.517   4.429  1.00  0.00     0.180 C 
HETATM    9  C   UNL     1      60.773   6.435   3.259  1.00  0.00     0.068 C 
ENDROOT
BRANCH   1  10
HETATM   10  C   UNL     1      61.966  11.362   3.422  1.00  0.00     0.209 C 
HETATM   11  O   UNL     1      61.984  11.692   2.251  1.00  0.00    -0.644 OA
HETATM   12  O   UNL     1      61.823  12.239   4.439  1.00  0.00    -0.644 OA
ENDBRANCH   1  10
TORSDOF 1
ENDMDL
MODEL 8
REMARK VINA RESULT:      -4.5      2.212      3.231
REMARK  1 active torsions:
REMARK  status: ('A' for Active; 'I' for Inactive)
REMARK    1  A    between atoms: C_1  and  C_2 
ROOT
HETATM    1  C   UNL     1      65.349   7.904   5.005  1.00  0.00     0.041 A 
HETATM    2  C   UNL     1      64.366   8.907   5.009  1.00  0.00     0.028 A 
HETATM    3  C   UNL     1      63.326   8.803   4.103  1.00  0.00    -0.022 A 
HETATM    4  C   UNL     1      63.267   7.745   3.207  1.00  0.00     0.075 A 
HETATM    5  O   UNL     1      62.175   7.786   2.381  1.00  0.00    -0.350 OA
HETATM    6  C   UNL     1      65.273   6.827   4.097  1.00  0.00     0.021 A 
HETATM    7  C   UNL     1      64.226   6.754   3.175  1.00  0.00     0.038 A 
HETATM    8  C   UNL     1      61.322   8.781   2.997  1.00  0.00     0.180 C 
HETATM    9  C   UNL     1      62.181   9.710   3.856  1.00  0.00     0.068 C 
ENDROOT
BRANCH   1  10
HETATM   10  C   UNL     1      66.432   7.981   6.017  1.00  0.00     0.209 C 
HETATM   11  O   UNL     1      66.548   8.910   6.793  1.00  0.00    -0.644 OA
HETATM   12  O   UNL     1      67.289   6.937   5.974  1.00  0.00    -0.644 OA
ENDBRANCH   1  10
TORSDOF 1
ENDMDL
MODEL 9
REMARK VINA RESULT:      -4.5      3.652      7.112
REMARK  1 active torsions:
REMARK  status: ('A' for Active; 'I' for Inactive)
REMARK    1  A    between atoms: C_1  and  C_2 
ROOT
HETATM    1  C   UNL     1      65.449   7.093   6.353  1.00  0.00     0.041 A 
HETATM    2  C   UNL     1      66.554   7.224   7.209  1.00  0.00     0.028 A 
HETATM    3  C   UNL     1      66.938   6.120   7.949  1.00  0.00    -0.022 A 
HETATM    4  C   UNL     1      66.240   4.925   7.857  1.00  0.00     0.075 A 
HETATM    5  O   UNL     1      66.748   3.930   8.651  1.00  0.00    -0.350 OA
HETATM    6  C   UNL     1      64.753   5.869   6.259  1.00  0.00     0.021 A 
HETATM    7  C   UNL     1      65.144   4.774   7.034  1.00  0.00     0.038 A 
HETATM    8  C   UNL     1      68.041   4.443   9.050  1.00  0.00     0.180 C 
HETATM    9  C   UNL     1      68.026   5.969   8.943  1.00  0.00     0.068 C 
ENDROOT
BRANCH   1  10
HETATM   10  C   UNL     1      65.074   8.257   5.511  1.00  0.00     0.209 C 
HETATM   11  O   UNL     1      65.239   9.409   5.863  1.00  0.00    -0.644 OA
HETATM   12  O   UNL     1      64.508   7.914   4.334  1.00  0.00    -0.644 OA
ENDBRANCH   1  10
TORSDOF 1
ENDMDL
