MODEL 1
REMARK VINA RESULT:      -5.1      0.000      0.000
REMARK  2 active torsions:
REMARK  status: ('A' for Active; 'I' for Inactive)
REMARK    1  A    between atoms: C_5  and  C_9 
REMARK    2  A    between atoms: O_7  and  C_9 
ROOT
HETATM    1  O   UNL     1      64.666   9.481   5.447  1.00  0.00    -0.339 OA
HETATM    2  O   UNL     1      62.833   8.171   3.617  1.00  0.00    -0.346 OA
HETATM    3  C   UNL     1      64.963   8.313   4.791  1.00  0.00     0.102 A 
HETATM    4  C   UNL     1      64.077   7.677   3.916  1.00  0.00     0.102 A 
HETATM    5  C   UNL     1      63.256   9.773   5.396  1.00  0.00     0.176 C 
HETATM    6  C   UNL     1      62.723   9.553   3.983  1.00  0.00     0.210 C 
HETATM    7  C   UNL     1      66.225   7.766   5.025  1.00  0.00     0.039 A 
HETATM    8  C   UNL     1      64.438   6.477   3.305  1.00  0.00     0.039 A 
HETATM    9  C   UNL     1      66.592   6.573   4.401  1.00  0.00     0.003 A 
HETATM   10  C   UNL     1      65.698   5.926   3.545  1.00  0.00     0.003 A 
ENDROOT
BRANCH   5  11
HETATM   11  C   UNL     1      63.065  11.220   5.852  1.00  0.00     0.198 C 
BRANCH  11  12
HETATM   12  O   UNL     1      64.227  11.716   6.513  1.00  0.00    -0.398 OA
HETATM   13  H   UNL     1      64.186  12.684   6.559  1.00  0.00     0.209 HD
ENDBRANCH  11  12
ENDBRANCH   5  11
TORSDOF 2
ENDMDL
MODEL 2
REMARK VINA RESULT:      -5.1      2.261      3.327
REMARK  2 active torsions:
REMARK  status: ('A' for Active; 'I' for Inactive)
REMARK    1  A    between atoms: C_5  and  C_9 
REMARK    2  A    between atoms: O_7  and  C_9 
ROOT
HETATM    1  O   UNL     1      62.396  10.492   3.847  1.00  0.00    -0.339 OA
HETATM    2  O   UNL     1      63.386   7.802   4.303  1.00  0.00    -0.346 OA
HETATM    3  C   UNL     1      62.346   9.501   2.900  1.00  0.00     0.102 A 
HETATM    4  C   UNL     1      62.830   8.207   3.117  1.00  0.00     0.102 A 
HETATM    5  C   UNL     1      63.290  10.150   4.925  1.00  0.00     0.176 C 
HETATM    6  C   UNL     1      63.057   8.707   5.365  1.00  0.00     0.210 C 
HETATM    7  C   UNL     1      61.765   9.832   1.676  1.00  0.00     0.039 A 
HETATM    8  C   UNL     1      62.769   7.258   2.098  1.00  0.00     0.039 A 
HETATM    9  C   UNL     1      61.690   8.877   0.661  1.00  0.00     0.003 A 
HETATM   10  C   UNL     1      62.195   7.591   0.870  1.00  0.00     0.003 A 
ENDROOT
BRANCH   5  11
HETATM   11  C   UNL     1      63.039  11.136   6.067  1.00  0.00     0.198 C 
BRANCH  11  12
HETATM   12  O   UNL     1      64.254  11.725   6.524  1.00  0.00    -0.398 OA
HETATM   13  H   UNL     1      64.147  12.688   6.581  1.00  0.00     0.209 HD
ENDBRANCH  11  12
ENDBRANCH   5  11
TORSDOF 2
ENDMDL
MODEL 3
REMARK VINA RESULT:      -5.0      1.448      3.764
REMARK  2 active torsions:
REMARK  status: ('A' for Active; 'I' for Inactive)
REMARK    1  A    between atoms: C_5  and  C_9 
REMARK    2  A    between atoms: O_7  and  C_9 
ROOT
HETATM    1  O   UNL     1      64.929   9.156   5.864  1.00  0.00    -0.339 OA
HETATM    2  O   UNL     1      64.173   7.372   3.703  1.00  0.00    -0.346 OA
HETATM    3  C   UNL     1      63.901   9.419   4.995  1.00  0.00     0.102 A 
HETATM    4  C   UNL     1      63.541   8.564   3.948  1.00  0.00     0.102 A 
HETATM    5  C   UNL     1      65.782   8.103   5.371  1.00  0.00     0.176 C 
HETATM    6  C   UNL     1      64.940   6.949   4.838  1.00  0.00     0.210 C 
HETATM    7  C   UNL     1      63.193  10.603   5.202  1.00  0.00     0.039 A 
HETATM    8  C   UNL     1      62.501   8.911   3.088  1.00  0.00     0.039 A 
HETATM    9  C   UNL     1      62.141  10.942   4.349  1.00  0.00     0.003 A 
HETATM   10  C   UNL     1      61.798  10.099   3.289  1.00  0.00     0.003 A 
ENDROOT
BRANCH   5  11
HETATM   11  C   UNL     1      66.683   7.659   6.524  1.00  0.00     0.198 C 
BRANCH  11  12
HETATM   12  O   UNL     1      67.027   8.756   7.370  1.00  0.00    -0.398 OA
HETATM   13  H   UNL     1      66.749   9.586   6.952  1.00  0.00     0.209 HD
ENDBRANCH  11  12
ENDBRANCH   5  11
TORSDOF 2
ENDMDL
MODEL 4
REMARK VINA RESULT:      -4.6      1.727      4.075
REMARK  2 active torsions:
REMARK  status: ('A' for Active; 'I' for Inactive)
REMARK    1  A    between atoms: C_5  and  C_9 
REMARK    2  A    between atoms: O_7  and  C_9 
ROOT
HETATM    1  O   UNL     1      63.591   8.885   5.405  1.00  0.00    -0.339 OA
HETATM    2  O   UNL     1      63.149   7.727   2.780  1.00  0.00    -0.346 OA
HETATM    3  C   UNL     1      62.965   9.553   4.383  1.00  0.00     0.102 A 
HETATM    4  C   UNL     1      62.758   8.999   3.116  1.00  0.00     0.102 A 
HETATM    5  C   UNL     1      64.293   7.721   4.924  1.00  0.00     0.176 C 
HETATM    6  C   UNL     1      63.416   6.942   3.949  1.00  0.00     0.210 C 
HETATM    7  C   UNL     1      62.514  10.843   4.661  1.00  0.00     0.039 A 
HETATM    8  C   UNL     1      62.137   9.747   2.118  1.00  0.00     0.039 A 
HETATM    9  C   UNL     1      61.878  11.587   3.665  1.00  0.00     0.003 A 
HETATM   10  C   UNL     1      61.693  11.041   2.393  1.00  0.00     0.003 A 
ENDROOT
BRANCH   5  11
HETATM   11  C   UNL     1      64.675   6.876   6.140  1.00  0.00     0.198 C 
BRANCH  11  12
HETATM   12  O   UNL     1      63.951   7.276   7.302  1.00  0.00    -0.398 OA
HETATM   13  H   UNL     1      63.002   7.291   7.103  1.00  0.00     0.209 HD
ENDBRANCH  11  12
ENDBRANCH   5  11
TORSDOF 2
ENDMDL
MODEL 5
REMARK VINA RESULT:      -4.5      1.143      2.586
REMARK  2 active torsions:
REMARK  status: ('A' for Active; 'I' for Inactive)
REMARK    1  A    between atoms: C_5  and  C_9 
REMARK    2  A    between atoms: O_7  and  C_9 
ROOT
HETATM    1  O   UNL     1      63.524   7.666   3.559  1.00  0.00    -0.339 OA
HETATM    2  O   UNL     1      64.836   9.302   5.567  1.00  0.00    -0.346 OA
HETATM    3  C   UNL     1      64.773   7.391   4.057  1.00  0.00     0.102 A 
HETATM    4  C   UNL     1      65.409   8.182   5.018  1.00  0.00     0.102 A 
HETATM    5  C   UNL     1      63.113   9.011   3.878  1.00  0.00     0.176 C 
HETATM    6  C   UNL     1      63.421   9.324   5.339  1.00  0.00     0.210 C 
HETATM    7  C   UNL     1      65.405   6.249   3.565  1.00  0.00     0.039 A 
HETATM    8  C   UNL     1      66.690   7.854   5.458  1.00  0.00     0.039 A 
HETATM    9  C   UNL     1      66.682   5.912   4.018  1.00  0.00     0.003 A 
HETATM   10  C   UNL     1      67.326   6.716   4.960  1.00  0.00     0.003 A 
ENDROOT
BRANCH   5  11
HETATM   11  C   UNL     1      61.616   9.121   3.581  1.00  0.00     0.198 C 
BRANCH  11  12
HETATM   12  O   UNL     1      61.155  10.463   3.717  1.00  0.00    -0.398 OA
HETATM   13  H   UNL     1      60.235  10.522   3.414  1.00  0.00     0.209 HD
ENDBRANCH  11  12
ENDBRANCH   5  11
TORSDOF 2
ENDMDL
MODEL 6
REMARK VINA RESULT:      -4.5      1.691      4.498
REMARK  2 active torsions:
REMARK  status: ('A' for Active; 'I' for Inactive)
REMARK    1  A    between atoms: C_5  and  C_9 
REMARK    2  A    between atoms: O_7  and  C_9 
ROOT
HETATM    1  O   UNL     1      64.672   7.132   3.869  1.00  0.00    -0.339 OA
HETATM    2  O   UNL     1      65.079   9.084   5.978  1.00  0.00    -0.346 OA
HETATM    3  C   UNL     1      63.883   8.243   4.030  1.00  0.00     0.102 A 
HETATM    4  C   UNL     1      64.073   9.179   5.051  1.00  0.00     0.102 A 
HETATM    5  C   UNL     1      65.470   6.876   5.041  1.00  0.00     0.176 C 
HETATM    6  C   UNL     1      66.097   8.172   5.547  1.00  0.00     0.210 C 
HETATM    7  C   UNL     1      62.855   8.420   3.104  1.00  0.00     0.039 A 
HETATM    8  C   UNL     1      63.213  10.270   5.168  1.00  0.00     0.039 A 
HETATM    9  C   UNL     1      62.004   9.521   3.212  1.00  0.00     0.003 A 
HETATM   10  C   UNL     1      62.180  10.444   4.246  1.00  0.00     0.003 A 
ENDROOT
BRANCH   5  11
HETATM   11  C   UNL     1      66.535   5.845   4.662  1.00  0.00     0.198 C 
BRANCH  11  12
HETATM   12  O   UNL     1      67.388   6.333   3.629  1.00  0.00    -0.398 OA
HETATM   13  H   UNL     1      67.325   5.752   2.854  1.00  0.00     0.209 HD
ENDBRANCH  11  12
ENDBRANCH   5  11
TORSDOF 2
ENDMDL
MODEL 7
REMARK VINA RESULT:      -4.3      2.450      4.225
REMARK  2 active torsions:
REMARK  status: ('A' for Active; 'I' for Inactive)
REMARK    1  A    between atoms: C_5  and  C_9 
REMARK    2  A    between atoms: O_7  and  C_9 
ROOT
HETATM    1  O   UNL     1      65.500   6.131   6.079  1.00  0.00    -0.339 OA
HETATM    2  O   UNL     1      65.606   9.031   6.109  1.00  0.00    -0.346 OA
HETATM    3  C   UNL     1      64.672   6.922   5.325  1.00  0.00     0.102 A 
HETATM    4  C   UNL     1      64.717   8.320   5.345  1.00  0.00     0.102 A 
HETATM    5  C   UNL     1      66.157   6.888   7.115  1.00  0.00     0.176 C 
HETATM    6  C   UNL     1      66.689   8.202   6.550  1.00  0.00     0.210 C 
HETATM    7  C   UNL     1      63.759   6.266   4.499  1.00  0.00     0.039 A 
HETATM    8  C   UNL     1      63.824   9.059   4.570  1.00  0.00     0.039 A 
HETATM    9  C   UNL     1      62.876   7.007   3.711  1.00  0.00     0.003 A 
HETATM   10  C   UNL     1      62.906   8.403   3.750  1.00  0.00     0.003 A 
ENDROOT
BRANCH   5  11
HETATM   11  C   UNL     1      67.283   6.021   7.681  1.00  0.00     0.198 C 
BRANCH  11  12
HETATM   12  O   UNL     1      67.949   6.671   8.762  1.00  0.00    -0.398 OA
HETATM   13  H   UNL     1      67.595   7.569   8.867  1.00  0.00     0.209 HD
ENDBRANCH  11  12
ENDBRANCH   5  11
TORSDOF 2
ENDMDL
MODEL 8
REMARK VINA RESULT:      -4.2      2.210      3.972
REMARK  2 active torsions:
REMARK  status: ('A' for Active; 'I' for Inactive)
REMARK    1  A    between atoms: C_5  and  C_9 
REMARK    2  A    between atoms: O_7  and  C_9 
ROOT
HETATM    1  O   UNL     1      63.654   6.912   3.800  1.00  0.00    -0.339 OA
HETATM    2  O   UNL     1      62.873   9.648   4.372  1.00  0.00    -0.346 OA
HETATM    3  C   UNL     1      63.026   7.722   2.888  1.00  0.00     0.102 A 
HETATM    4  C   UNL     1      62.643   9.038   3.165  1.00  0.00     0.102 A 
HETATM    5  C   UNL     1      63.558   7.445   5.136  1.00  0.00     0.176 C 
HETATM    6  C   UNL     1      63.862   8.940   5.130  1.00  0.00     0.210 C 
HETATM    7  C   UNL     1      62.785   7.176   1.627  1.00  0.00     0.039 A 
HETATM    8  C   UNL     1      61.984   9.793   2.197  1.00  0.00     0.039 A 
HETATM    9  C   UNL     1      62.139   7.939   0.652  1.00  0.00     0.003 A 
HETATM   10  C   UNL     1      61.735   9.245   0.937  1.00  0.00     0.003 A 
ENDROOT
BRANCH   5  11
HETATM   11  C   UNL     1      64.542   6.672   6.016  1.00  0.00     0.198 C 
BRANCH  11  12
HETATM   12  O   UNL     1      64.561   7.181   7.348  1.00  0.00    -0.398 OA
HETATM   13  H   UNL     1      63.691   7.550   7.566  1.00  0.00     0.209 HD
ENDBRANCH  11  12
ENDBRANCH   5  11
TORSDOF 2
ENDMDL
MODEL 9
REMARK VINA RESULT:      -4.0      2.072      2.513
REMARK  2 active torsions:
REMARK  status: ('A' for Active; 'I' for Inactive)
REMARK    1  A    between atoms: C_5  and  C_9 
REMARK    2  A    between atoms: O_7  and  C_9 
ROOT
HETATM    1  O   UNL     1      63.735   9.157   4.272  1.00  0.00    -0.339 OA
HETATM    2  O   UNL     1      62.062   7.002   5.262  1.00  0.00    -0.346 OA
HETATM    3  C   UNL     1      64.182   8.196   5.143  1.00  0.00     0.102 A 
HETATM    4  C   UNL     1      63.375   7.162   5.627  1.00  0.00     0.102 A 
HETATM    5  C   UNL     1      62.296   9.172   4.194  1.00  0.00     0.176 C 
HETATM    6  C   UNL     1      61.759   7.749   4.077  1.00  0.00     0.210 C 
HETATM    7  C   UNL     1      65.518   8.280   5.536  1.00  0.00     0.039 A 
HETATM    8  C   UNL     1      63.891   6.237   6.532  1.00  0.00     0.039 A 
HETATM    9  C   UNL     1      66.039   7.342   6.430  1.00  0.00     0.003 A 
HETATM   10  C   UNL     1      65.225   6.324   6.932  1.00  0.00     0.003 A 
ENDROOT
BRANCH   5  11
HETATM   11  C   UNL     1      61.906  10.025   2.985  1.00  0.00     0.198 C 
BRANCH  11  12
HETATM   12  O   UNL     1      61.436  11.311   3.384  1.00  0.00    -0.398 OA
HETATM   13  H   UNL     1      61.317  11.870   2.600  1.00  0.00     0.209 HD
ENDBRANCH  11  12
ENDBRANCH   5  11
TORSDOF 2
ENDMDL
