MODEL 1
REMARK VINA RESULT:      -5.3      0.000      0.000
REMARK  2 active torsions:
REMARK  status: ('A' for Active; 'I' for Inactive)
REMARK    1  A    between atoms: C_3  and  C_7 
REMARK    2  A    between atoms: C_7  and  O_8 
ROOT
HETATM    1  C   UNL     1      63.738   9.228   4.937  1.00  0.00     0.113 A 
HETATM    2  O   UNL     1      64.683   8.838   5.837  1.00  0.00    -0.322 OA
HETATM    3  C   UNL     1      62.970  10.378   5.007  1.00  0.00     0.002 A 
HETATM    4  O   UNL     1      64.465   7.275   4.017  1.00  0.00    -0.323 OA
HETATM    5  C   UNL     1      63.616   8.331   3.898  1.00  0.00     0.105 A 
HETATM    6  C   UNL     1      65.178   7.635   5.215  1.00  0.00     0.352 A 
HETATM    7  C   UNL     1      62.057  10.592   3.960  1.00  0.00     0.012 A 
HETATM    8  C   UNL     1      61.933   9.672   2.902  1.00  0.00     0.003 A 
HETATM    9  C   UNL     1      62.720   8.522   2.868  1.00  0.00     0.040 A 
ENDROOT
BRANCH   3  10
HETATM   10  C   UNL     1      63.085  11.347   6.143  1.00  0.00     0.205 C 
BRANCH  10  11
HETATM   11  O   UNL     1      64.454  11.556   6.475  1.00  0.00    -0.396 OA
HETATM   12  H   UNL     1      64.991  11.508   5.669  1.00  0.00     0.209 HD
ENDBRANCH  10  11
ENDBRANCH   3  10
TORSDOF 2
ENDMDL
MODEL 2
REMARK VINA RESULT:      -5.1      1.941      3.038
REMARK  2 active torsions:
REMARK  status: ('A' for Active; 'I' for Inactive)
REMARK    1  A    between atoms: C_3  and  C_7 
REMARK    2  A    between atoms: C_7  and  O_8 
ROOT
HETATM    1  C   UNL     1      62.424  10.567   3.866  1.00  0.00     0.113 A 
HETATM    2  O   UNL     1      62.039  11.807   3.454  1.00  0.00    -0.322 OA
HETATM    3  C   UNL     1      62.881  10.233   5.130  1.00  0.00     0.002 A 
HETATM    4  O   UNL     1      61.835  10.165   1.703  1.00  0.00    -0.323 OA
HETATM    5  C   UNL     1      62.307   9.631   2.862  1.00  0.00     0.105 A 
HETATM    6  C   UNL     1      61.612  11.530   2.105  1.00  0.00     0.352 A 
HETATM    7  C   UNL     1      63.217   8.885   5.344  1.00  0.00     0.012 A 
HETATM    8  C   UNL     1      63.098   7.932   4.314  1.00  0.00     0.003 A 
HETATM    9  C   UNL     1      62.639   8.307   3.052  1.00  0.00     0.040 A 
ENDROOT
BRANCH   3  10
HETATM   10  C   UNL     1      63.029  11.249   6.221  1.00  0.00     0.205 C 
BRANCH  10  11
HETATM   11  O   UNL     1      64.404  11.557   6.422  1.00  0.00    -0.396 OA
HETATM   12  H   UNL     1      64.725  11.096   7.213  1.00  0.00     0.209 HD
ENDBRANCH  10  11
ENDBRANCH   3  10
TORSDOF 2
ENDMDL
MODEL 3
REMARK VINA RESULT:      -4.8      1.364      2.989
REMARK  2 active torsions:
REMARK  status: ('A' for Active; 'I' for Inactive)
REMARK    1  A    between atoms: C_3  and  C_7 
REMARK    2  A    between atoms: C_7  and  O_8 
ROOT
HETATM    1  C   UNL     1      63.406   9.478   4.756  1.00  0.00     0.113 A 
HETATM    2  O   UNL     1      63.566  10.384   5.761  1.00  0.00    -0.322 OA
HETATM    3  C   UNL     1      64.079   8.275   4.627  1.00  0.00     0.002 A 
HETATM    4  O   UNL     1      61.917  11.094   4.156  1.00  0.00    -0.323 OA
HETATM    5  C   UNL     1      62.462   9.888   3.839  1.00  0.00     0.105 A 
HETATM    6  C   UNL     1      62.578  11.371   5.405  1.00  0.00     0.352 A 
HETATM    7  C   UNL     1      63.750   7.484   3.513  1.00  0.00     0.012 A 
HETATM    8  C   UNL     1      62.788   7.908   2.576  1.00  0.00     0.003 A 
HETATM    9  C   UNL     1      62.134   9.129   2.737  1.00  0.00     0.040 A 
ENDROOT
BRANCH   3  10
HETATM   10  C   UNL     1      65.119   7.832   5.610  1.00  0.00     0.205 C 
BRANCH  10  11
HETATM   11  O   UNL     1      65.839   8.956   6.103  1.00  0.00    -0.396 OA
HETATM   12  H   UNL     1      65.231   9.547   6.574  1.00  0.00     0.209 HD
ENDBRANCH  10  11
ENDBRANCH   3  10
TORSDOF 2
ENDMDL
MODEL 4
REMARK VINA RESULT:      -4.7      2.043      3.361
REMARK  2 active torsions:
REMARK  status: ('A' for Active; 'I' for Inactive)
REMARK    1  A    between atoms: C_3  and  C_7 
REMARK    2  A    between atoms: C_7  and  O_8 
ROOT
HETATM    1  C   UNL     1      62.456  10.224   3.902  1.00  0.00     0.113 A 
HETATM    2  O   UNL     1      62.230  11.431   4.492  1.00  0.00    -0.322 OA
HETATM    3  C   UNL     1      62.173   9.892   2.588  1.00  0.00     0.002 A 
HETATM    4  O   UNL     1      63.225   9.850   6.014  1.00  0.00    -0.323 OA
HETATM    5  C   UNL     1      63.024   9.322   4.777  1.00  0.00     0.105 A 
HETATM    6  C   UNL     1      62.775  11.203   5.808  1.00  0.00     0.352 A 
HETATM    7  C   UNL     1      62.498   8.586   2.183  1.00  0.00     0.012 A 
HETATM    8  C   UNL     1      63.075   7.667   3.079  1.00  0.00     0.003 A 
HETATM    9  C   UNL     1      63.341   8.036   4.397  1.00  0.00     0.040 A 
ENDROOT
BRANCH   3  10
HETATM   10  C   UNL     1      61.539  10.861   1.638  1.00  0.00     0.205 C 
BRANCH  10  11
HETATM   11  O   UNL     1      62.081  12.164   1.831  1.00  0.00    -0.396 OA
HETATM   12  H   UNL     1      62.043  12.393   2.772  1.00  0.00     0.209 HD
ENDBRANCH  10  11
ENDBRANCH   3  10
TORSDOF 2
ENDMDL
MODEL 5
REMARK VINA RESULT:      -4.6      1.517      3.426
REMARK  2 active torsions:
REMARK  status: ('A' for Active; 'I' for Inactive)
REMARK    1  A    between atoms: C_3  and  C_7 
REMARK    2  A    between atoms: C_7  and  O_8 
ROOT
HETATM    1  C   UNL     1      62.699   9.631   3.904  1.00  0.00     0.113 A 
HETATM    2  O   UNL     1      63.037   9.861   5.204  1.00  0.00    -0.322 OA
HETATM    3  C   UNL     1      62.859   8.439   3.218  1.00  0.00     0.002 A 
HETATM    4  O   UNL     1      62.079  11.809   4.158  1.00  0.00    -0.323 OA
HETATM    5  C   UNL     1      62.152  10.748   3.309  1.00  0.00     0.105 A 
HETATM    6  C   UNL     1      62.585  11.220   5.371  1.00  0.00     0.352 A 
HETATM    7  C   UNL     1      62.431   8.419   1.879  1.00  0.00     0.012 A 
HETATM    8  C   UNL     1      61.876   9.563   1.274  1.00  0.00     0.003 A 
HETATM    9  C   UNL     1      61.735  10.748   1.996  1.00  0.00     0.040 A 
ENDROOT
BRANCH   3  10
HETATM   10  C   UNL     1      63.469   7.228   3.853  1.00  0.00     0.205 C 
BRANCH  10  11
HETATM   11  O   UNL     1      64.753   7.544   4.381  1.00  0.00    -0.396 OA
HETATM   12  H   UNL     1      64.649   8.107   5.164  1.00  0.00     0.209 HD
ENDBRANCH  10  11
ENDBRANCH   3  10
TORSDOF 2
ENDMDL
MODEL 6
REMARK VINA RESULT:      -4.4      1.367      2.025
REMARK  2 active torsions:
REMARK  status: ('A' for Active; 'I' for Inactive)
REMARK    1  A    between atoms: C_3  and  C_7 
REMARK    2  A    between atoms: C_7  and  O_8 
ROOT
HETATM    1  C   UNL     1      64.652   8.623   5.037  1.00  0.00     0.113 A 
HETATM    2  O   UNL     1      65.346   9.204   6.055  1.00  0.00    -0.322 OA
HETATM    3  C   UNL     1      63.512   9.128   4.436  1.00  0.00     0.002 A 
HETATM    4  O   UNL     1      66.337   7.123   5.354  1.00  0.00    -0.323 OA
HETATM    5  C   UNL     1      65.221   7.433   4.640  1.00  0.00     0.105 A 
HETATM    6  C   UNL     1      66.442   8.279   6.207  1.00  0.00     0.352 A 
HETATM    7  C   UNL     1      62.960   8.367   3.391  1.00  0.00     0.012 A 
HETATM    8  C   UNL     1      63.542   7.149   2.989  1.00  0.00     0.003 A 
HETATM    9  C   UNL     1      64.689   6.670   3.623  1.00  0.00     0.040 A 
ENDROOT
BRANCH   3  10
HETATM   10  C   UNL     1      62.877  10.412   4.875  1.00  0.00     0.205 C 
BRANCH  10  11
HETATM   11  O   UNL     1      62.931  10.525   6.294  1.00  0.00    -0.396 OA
HETATM   12  H   UNL     1      63.780  10.916   6.554  1.00  0.00     0.209 HD
ENDBRANCH  10  11
ENDBRANCH   3  10
TORSDOF 2
ENDMDL
MODEL 7
REMARK VINA RESULT:      -4.3      1.591      2.065
REMARK  2 active torsions:
REMARK  status: ('A' for Active; 'I' for Inactive)
REMARK    1  A    between atoms: C_3  and  C_7 
REMARK    2  A    between atoms: C_7  and  O_8 
ROOT
HETATM    1  C   UNL     1      62.846   8.813   3.387  1.00  0.00     0.113 A 
HETATM    2  O   UNL     1      63.397   7.648   3.827  1.00  0.00    -0.322 OA
HETATM    3  C   UNL     1      62.653   9.959   4.139  1.00  0.00     0.002 A 
HETATM    4  O   UNL     1      62.766   7.533   1.505  1.00  0.00    -0.323 OA
HETATM    5  C   UNL     1      62.485   8.743   2.059  1.00  0.00     0.105 A 
HETATM    6  C   UNL     1      63.397   6.867   2.615  1.00  0.00     0.352 A 
HETATM    7  C   UNL     1      62.073  11.057   3.481  1.00  0.00     0.012 A 
HETATM    8  C   UNL     1      61.703  10.981   2.124  1.00  0.00     0.003 A 
HETATM    9  C   UNL     1      61.908   9.807   1.400  1.00  0.00     0.040 A 
ENDROOT
BRANCH   3  10
HETATM   10  C   UNL     1      63.025  10.036   5.588  1.00  0.00     0.205 C 
BRANCH  10  11
HETATM   11  O   UNL     1      63.398  11.367   5.930  1.00  0.00    -0.396 OA
HETATM   12  H   UNL     1      64.101  11.344   6.597  1.00  0.00     0.209 HD
ENDBRANCH  10  11
ENDBRANCH   3  10
TORSDOF 2
ENDMDL
MODEL 8
REMARK VINA RESULT:      -4.1      1.742      3.211
REMARK  2 active torsions:
REMARK  status: ('A' for Active; 'I' for Inactive)
REMARK    1  A    between atoms: C_3  and  C_7 
REMARK    2  A    between atoms: C_7  and  O_8 
ROOT
HETATM    1  C   UNL     1      62.758   8.879   3.194  1.00  0.00     0.113 A 
HETATM    2  O   UNL     1      62.904   7.788   2.392  1.00  0.00    -0.322 OA
HETATM    3  C   UNL     1      63.207   8.999   4.499  1.00  0.00     0.002 A 
HETATM    4  O   UNL     1      61.746   9.583   1.279  1.00  0.00    -0.323 OA
HETATM    5  C   UNL     1      62.094   9.903   2.554  1.00  0.00     0.105 A 
HETATM    6  C   UNL     1      62.316   8.265   1.166  1.00  0.00     0.352 A 
HETATM    7  C   UNL     1      62.957  10.223   5.143  1.00  0.00     0.012 A 
HETATM    8  C   UNL     1      62.276  11.266   4.487  1.00  0.00     0.003 A 
HETATM    9  C   UNL     1      61.834  11.107   3.174  1.00  0.00     0.040 A 
ENDROOT
BRANCH   3  10
HETATM   10  C   UNL     1      63.912   7.882   5.207  1.00  0.00     0.205 C 
BRANCH  10  11
HETATM   11  O   UNL     1      64.980   8.398   5.995  1.00  0.00    -0.396 OA
HETATM   12  H   UNL     1      65.698   7.747   6.030  1.00  0.00     0.209 HD
ENDBRANCH  10  11
ENDBRANCH   3  10
TORSDOF 2
ENDMDL
MODEL 9
REMARK VINA RESULT:      -4.0     11.877     12.552
REMARK  2 active torsions:
REMARK  status: ('A' for Active; 'I' for Inactive)
REMARK    1  A    between atoms: C_3  and  C_7 
REMARK    2  A    between atoms: C_7  and  O_8 
ROOT
HETATM    1  C   UNL     1      56.967   2.619  12.290  1.00  0.00     0.113 A 
HETATM    2  O   UNL     1      55.796   3.139  11.826  1.00  0.00    -0.322 OA
HETATM    3  C   UNL     1      58.182   2.626  11.627  1.00  0.00     0.002 A 
HETATM    4  O   UNL     1      55.551   2.167  14.017  1.00  0.00    -0.323 OA
HETATM    5  C   UNL     1      56.822   2.063  13.543  1.00  0.00     0.105 A 
HETATM    6  C   UNL     1      54.924   2.902  12.949  1.00  0.00     0.352 A 
HETATM    7  C   UNL     1      59.270   2.040  12.296  1.00  0.00     0.012 A 
HETATM    8  C   UNL     1      59.118   1.470  13.575  1.00  0.00     0.003 A 
HETATM    9  C   UNL     1      57.877   1.477  14.210  1.00  0.00     0.040 A 
ENDROOT
BRANCH   3  10
HETATM   10  C   UNL     1      58.341   3.211  10.257  1.00  0.00     0.205 C 
BRANCH  10  11
HETATM   11  O   UNL     1      58.642   4.600  10.348  1.00  0.00    -0.396 OA
HETATM   12  H   UNL     1      58.594   4.880  11.276  1.00  0.00     0.209 HD
ENDBRANCH  10  11
ENDBRANCH   3  10
TORSDOF 2
ENDMDL
