MODEL 1
REMARK VINA RESULT:      -4.8      0.000      0.000
REMARK  2 active torsions:
REMARK  status: ('A' for Active; 'I' for Inactive)
REMARK    1  A    between atoms: C_8  and  C_11 
REMARK    2  A    between atoms: N_10  and  C_11 
ROOT
HETATM    1  C   UNL     1      64.732   8.656   5.149  1.00  0.00     0.105 A 
HETATM    2  C   UNL     1      65.196   7.471   4.624  1.00  0.00     0.105 A 
HETATM    3  O   UNL     1      65.504   9.100   6.179  1.00  0.00    -0.323 OA
HETATM    4  O   UNL     1      66.319   7.029   5.248  1.00  0.00    -0.323 OA
HETATM    5  C   UNL     1      66.548   8.105   6.182  1.00  0.00     0.352 A 
HETATM    6  C   UNL     1      63.616   9.286   4.649  1.00  0.00     0.048 A 
HETATM    7  C   UNL     1      64.561   6.849   3.573  1.00  0.00     0.040 A 
HETATM    8  C   UNL     1      62.946   8.691   3.567  1.00  0.00    -0.030 A 
HETATM    9  C   UNL     1      63.430   7.469   3.040  1.00  0.00     0.012 A 
ENDROOT
BRANCH   8  10
HETATM   10  C   UNL     1      61.728   9.348   2.959  1.00  0.00     0.270 C 
BRANCH  10  11
HETATM   11  N   UNL     1      61.698  10.779   3.262  1.00  0.00    -0.075 N 
HETATM   12  C   UNL     1      61.771  11.571   2.045  1.00  0.00     0.267 C 
HETATM   13  H   UNL     1      62.492  11.010   3.857  1.00  0.00     0.277 HD
HETATM   14  H   UNL     1      60.821  10.992   3.735  1.00  0.00     0.277 HD
ENDBRANCH  10  11
ENDBRANCH   8  10
TORSDOF 2
ENDMDL
MODEL 2
REMARK VINA RESULT:      -4.8      2.534      3.486
REMARK  2 active torsions:
REMARK  status: ('A' for Active; 'I' for Inactive)
REMARK    1  A    between atoms: C_8  and  C_11 
REMARK    2  A    between atoms: N_10  and  C_11 
ROOT
HETATM    1  C   UNL     1      62.295  10.500   3.842  1.00  0.00     0.105 A 
HETATM    2  C   UNL     1      62.976   9.556   4.577  1.00  0.00     0.105 A 
HETATM    3  O   UNL     1      62.081  11.645   4.547  1.00  0.00    -0.323 OA
HETATM    4  O   UNL     1      63.283   9.991   5.827  1.00  0.00    -0.323 OA
HETATM    5  C   UNL     1      62.778  11.342   5.773  1.00  0.00     0.352 A 
HETATM    6  C   UNL     1      61.905  10.268   2.543  1.00  0.00     0.048 A 
HETATM    7  C   UNL     1      63.296   8.325   4.052  1.00  0.00     0.040 A 
HETATM    8  C   UNL     1      62.224   9.029   1.965  1.00  0.00    -0.030 A 
HETATM    9  C   UNL     1      62.920   8.064   2.733  1.00  0.00     0.012 A 
ENDROOT
BRANCH   8  10
HETATM   10  C   UNL     1      61.844   8.725   0.534  1.00  0.00     0.270 C 
BRANCH  10  11
HETATM   11  N   UNL     1      60.951   7.568   0.463  1.00  0.00    -0.075 N 
HETATM   12  C   UNL     1      59.558   7.982   0.490  1.00  0.00     0.267 C 
HETATM   13  H   UNL     1      61.133   6.958   1.259  1.00  0.00     0.277 HD
HETATM   14  H   UNL     1      61.126   7.076  -0.413  1.00  0.00     0.277 HD
ENDBRANCH  10  11
ENDBRANCH   8  10
TORSDOF 2
ENDMDL
MODEL 3
REMARK VINA RESULT:      -4.6      3.035      4.613
REMARK  2 active torsions:
REMARK  status: ('A' for Active; 'I' for Inactive)
REMARK    1  A    between atoms: C_8  and  C_11 
REMARK    2  A    between atoms: N_10  and  C_11 
ROOT
HETATM    1  C   UNL     1      62.292  10.261   3.720  1.00  0.00     0.105 A 
HETATM    2  C   UNL     1      62.242   9.656   2.484  1.00  0.00     0.105 A 
HETATM    3  O   UNL     1      62.030  11.595   3.651  1.00  0.00    -0.323 OA
HETATM    4  O   UNL     1      61.934  10.528   1.489  1.00  0.00    -0.323 OA
HETATM    5  C   UNL     1      61.728  11.738   2.247  1.00  0.00     0.352 A 
HETATM    6  C   UNL     1      62.569   9.552   4.866  1.00  0.00     0.048 A 
HETATM    7  C   UNL     1      62.476   8.308   2.330  1.00  0.00     0.040 A 
HETATM    8  C   UNL     1      62.801   8.172   4.754  1.00  0.00    -0.030 A 
HETATM    9  C   UNL     1      62.752   7.562   3.477  1.00  0.00     0.012 A 
ENDROOT
BRANCH   8  10
HETATM   10  C   UNL     1      63.087   7.336   5.981  1.00  0.00     0.270 C 
BRANCH  10  11
HETATM   11  N   UNL     1      64.375   7.697   6.573  1.00  0.00    -0.075 N 
HETATM   12  C   UNL     1      65.460   6.951   5.957  1.00  0.00     0.267 C 
HETATM   13  H   UNL     1      64.353   7.490   7.571  1.00  0.00     0.277 HD
HETATM   14  H   UNL     1      64.536   8.692   6.417  1.00  0.00     0.277 HD
ENDBRANCH  10  11
ENDBRANCH   8  10
TORSDOF 2
ENDMDL
MODEL 4
REMARK VINA RESULT:      -4.5      2.792      4.244
REMARK  2 active torsions:
REMARK  status: ('A' for Active; 'I' for Inactive)
REMARK    1  A    between atoms: C_8  and  C_11 
REMARK    2  A    between atoms: N_10  and  C_11 
ROOT
HETATM    1  C   UNL     1      62.802   9.657   4.173  1.00  0.00     0.105 A 
HETATM    2  C   UNL     1      62.203  10.786   3.660  1.00  0.00     0.105 A 
HETATM    3  O   UNL     1      63.203   9.828   5.462  1.00  0.00    -0.323 OA
HETATM    4  O   UNL     1      62.144  11.799   4.563  1.00  0.00    -0.323 OA
HETATM    5  C   UNL     1      62.712  11.159   5.724  1.00  0.00     0.352 A 
HETATM    6  C   UNL     1      62.946   8.508   3.429  1.00  0.00     0.048 A 
HETATM    7  C   UNL     1      61.723  10.826   2.371  1.00  0.00     0.040 A 
HETATM    8  C   UNL     1      62.457   8.503   2.113  1.00  0.00    -0.030 A 
HETATM    9  C   UNL     1      61.848   9.673   1.595  1.00  0.00     0.012 A 
ENDROOT
BRANCH   8  10
HETATM   10  C   UNL     1      62.565   7.263   1.254  1.00  0.00     0.270 C 
BRANCH  10  11
HETATM   11  N   UNL     1      63.480   6.291   1.851  1.00  0.00    -0.075 N 
HETATM   12  C   UNL     1      63.863   5.274   0.886  1.00  0.00     0.267 C 
HETATM   13  H   UNL     1      63.020   5.842   2.642  1.00  0.00     0.277 HD
HETATM   14  H   UNL     1      64.321   6.781   2.157  1.00  0.00     0.277 HD
ENDBRANCH  10  11
ENDBRANCH   8  10
TORSDOF 2
ENDMDL
MODEL 5
REMARK VINA RESULT:      -4.3      3.004      4.889
REMARK  2 active torsions:
REMARK  status: ('A' for Active; 'I' for Inactive)
REMARK    1  A    between atoms: C_8  and  C_11 
REMARK    2  A    between atoms: N_10  and  C_11 
ROOT
HETATM    1  C   UNL     1      64.714   8.811   5.173  1.00  0.00     0.105 A 
HETATM    2  C   UNL     1      63.858   8.283   4.233  1.00  0.00     0.105 A 
HETATM    3  O   UNL     1      64.233   9.963   5.717  1.00  0.00    -0.323 OA
HETATM    4  O   UNL     1      62.732   9.028   4.076  1.00  0.00    -0.323 OA
HETATM    5  C   UNL     1      62.945  10.048   5.073  1.00  0.00     0.352 A 
HETATM    6  C   UNL     1      65.903   8.201   5.497  1.00  0.00     0.048 A 
HETATM    7  C   UNL     1      64.152   7.118   3.561  1.00  0.00     0.040 A 
HETATM    8  C   UNL     1      66.236   7.003   4.844  1.00  0.00    -0.030 A 
HETATM    9  C   UNL     1      65.349   6.473   3.876  1.00  0.00     0.012 A 
ENDROOT
BRANCH   8  10
HETATM   10  C   UNL     1      67.518   6.273   5.176  1.00  0.00     0.270 C 
BRANCH  10  11
HETATM   11  N   UNL     1      68.066   6.731   6.453  1.00  0.00    -0.075 N 
HETATM   12  C   UNL     1      67.965   5.693   7.465  1.00  0.00     0.267 C 
HETATM   13  H   UNL     1      67.545   7.550   6.764  1.00  0.00     0.277 HD
HETATM   14  H   UNL     1      69.050   6.960   6.321  1.00  0.00     0.277 HD
ENDBRANCH  10  11
ENDBRANCH   8  10
TORSDOF 2
ENDMDL
MODEL 6
REMARK VINA RESULT:      -4.3      1.054      1.474
REMARK  2 active torsions:
REMARK  status: ('A' for Active; 'I' for Inactive)
REMARK    1  A    between atoms: C_8  and  C_11 
REMARK    2  A    between atoms: N_10  and  C_11 
ROOT
HETATM    1  C   UNL     1      64.730   8.532   5.055  1.00  0.00     0.105 A 
HETATM    2  C   UNL     1      65.295   7.339   4.662  1.00  0.00     0.105 A 
HETATM    3  O   UNL     1      65.401   9.101   6.094  1.00  0.00    -0.323 OA
HETATM    4  O   UNL     1      66.392   7.016   5.395  1.00  0.00    -0.323 OA
HETATM    5  C   UNL     1      66.495   8.174   6.249  1.00  0.00     0.352 A 
HETATM    6  C   UNL     1      63.620   9.052   4.430  1.00  0.00     0.048 A 
HETATM    7  C   UNL     1      64.772   6.600   3.626  1.00  0.00     0.040 A 
HETATM    8  C   UNL     1      63.063   8.335   3.359  1.00  0.00    -0.030 A 
HETATM    9  C   UNL     1      63.650   7.107   2.968  1.00  0.00     0.012 A 
ENDROOT
BRANCH   8  10
HETATM   10  C   UNL     1      61.858   8.868   2.618  1.00  0.00     0.270 C 
BRANCH  10  11
HETATM   11  N   UNL     1      60.679   8.894   3.484  1.00  0.00    -0.075 N 
HETATM   12  C   UNL     1      59.905   7.672   3.349  1.00  0.00     0.267 C 
HETATM   13  H   UNL     1      60.095   9.689   3.226  1.00  0.00     0.277 HD
HETATM   14  H   UNL     1      60.990   8.976   4.452  1.00  0.00     0.277 HD
ENDBRANCH  10  11
ENDBRANCH   8  10
TORSDOF 2
ENDMDL
MODEL 7
REMARK VINA RESULT:      -4.2      1.587      2.674
REMARK  2 active torsions:
REMARK  status: ('A' for Active; 'I' for Inactive)
REMARK    1  A    between atoms: C_8  and  C_11 
REMARK    2  A    between atoms: N_10  and  C_11 
ROOT
HETATM    1  C   UNL     1      64.273   8.011   4.269  1.00  0.00     0.105 A 
HETATM    2  C   UNL     1      64.214   9.108   5.100  1.00  0.00     0.105 A 
HETATM    3  O   UNL     1      65.398   7.273   4.471  1.00  0.00    -0.323 OA
HETATM    4  O   UNL     1      65.285   9.190   5.931  1.00  0.00    -0.323 OA
HETATM    5  C   UNL     1      65.993   7.983   5.577  1.00  0.00     0.352 A 
HETATM    6  C   UNL     1      63.277   7.732   3.362  1.00  0.00     0.048 A 
HETATM    7  C   UNL     1      63.157   9.988   5.060  1.00  0.00     0.040 A 
HETATM    8  C   UNL     1      62.173   8.598   3.298  1.00  0.00    -0.030 A 
HETATM    9  C   UNL     1      62.127   9.726   4.155  1.00  0.00     0.012 A 
ENDROOT
BRANCH   8  10
HETATM   10  C   UNL     1      61.037   8.330   2.339  1.00  0.00     0.270 C 
BRANCH  10  11
HETATM   11  N   UNL     1      59.756   8.280   3.045  1.00  0.00    -0.075 N 
HETATM   12  C   UNL     1      59.575   6.998   3.705  1.00  0.00     0.267 C 
HETATM   13  H   UNL     1      59.001   8.418   2.374  1.00  0.00     0.277 HD
HETATM   14  H   UNL     1      59.746   9.014   3.753  1.00  0.00     0.277 HD
ENDBRANCH  10  11
ENDBRANCH   8  10
TORSDOF 2
ENDMDL
MODEL 8
REMARK VINA RESULT:      -4.2      3.021      5.002
REMARK  2 active torsions:
REMARK  status: ('A' for Active; 'I' for Inactive)
REMARK    1  A    between atoms: C_8  and  C_11 
REMARK    2  A    between atoms: N_10  and  C_11 
ROOT
HETATM    1  C   UNL     1      62.828   8.298   2.582  1.00  0.00     0.105 A 
HETATM    2  C   UNL     1      62.222   9.507   2.841  1.00  0.00     0.105 A 
HETATM    3  O   UNL     1      62.605   7.874   1.308  1.00  0.00    -0.323 OA
HETATM    4  O   UNL     1      61.553   9.996   1.764  1.00  0.00    -0.323 OA
HETATM    5  C   UNL     1      61.865   8.991   0.776  1.00  0.00     0.352 A 
HETATM    6  C   UNL     1      63.572   7.640   3.533  1.00  0.00     0.048 A 
HETATM    7  C   UNL     1      62.322  10.117   4.071  1.00  0.00     0.040 A 
HETATM    8  C   UNL     1      63.711   8.234   4.798  1.00  0.00    -0.030 A 
HETATM    9  C   UNL     1      63.077   9.475   5.053  1.00  0.00     0.012 A 
ENDROOT
BRANCH   8  10
HETATM   10  C   UNL     1      64.536   7.569   5.876  1.00  0.00     0.270 C 
BRANCH  10  11
HETATM   11  N   UNL     1      65.692   8.392   6.232  1.00  0.00    -0.075 N 
HETATM   12  C   UNL     1      66.664   7.623   6.993  1.00  0.00     0.267 C 
HETATM   13  H   UNL     1      65.378   9.181   6.795  1.00  0.00     0.277 HD
HETATM   14  H   UNL     1      66.137   8.717   5.374  1.00  0.00     0.277 HD
ENDBRANCH  10  11
ENDBRANCH   8  10
TORSDOF 2
ENDMDL
MODEL 9
REMARK VINA RESULT:      -4.2      3.193      4.856
REMARK  2 active torsions:
REMARK  status: ('A' for Active; 'I' for Inactive)
REMARK    1  A    between atoms: C_8  and  C_11 
REMARK    2  A    between atoms: N_10  and  C_11 
ROOT
HETATM    1  C   UNL     1      62.343   9.737   2.670  1.00  0.00     0.105 A 
HETATM    2  C   UNL     1      62.359  10.516   3.805  1.00  0.00     0.105 A 
HETATM    3  O   UNL     1      61.872  10.414   1.587  1.00  0.00    -0.323 OA
HETATM    4  O   UNL     1      61.911  11.778   3.576  1.00  0.00    -0.323 OA
HETATM    5  C   UNL     1      61.675  11.726   2.154  1.00  0.00     0.352 A 
HETATM    6  C   UNL     1      62.774   8.430   2.679  1.00  0.00     0.048 A 
HETATM    7  C   UNL     1      62.800  10.025   5.012  1.00  0.00     0.040 A 
HETATM    8  C   UNL     1      63.246   7.894   3.888  1.00  0.00    -0.030 A 
HETATM    9  C   UNL     1      63.252   8.705   5.050  1.00  0.00     0.012 A 
ENDROOT
BRANCH   8  10
HETATM   10  C   UNL     1      63.755   6.473   3.955  1.00  0.00     0.270 C 
BRANCH  10  11
HETATM   11  N   UNL     1      63.352   5.715   2.771  1.00  0.00    -0.075 N 
HETATM   12  C   UNL     1      64.504   5.118   2.116  1.00  0.00     0.267 C 
HETATM   13  H   UNL     1      62.886   6.343   2.117  1.00  0.00     0.277 HD
HETATM   14  H   UNL     1      62.721   4.968   3.062  1.00  0.00     0.277 HD
ENDBRANCH  10  11
ENDBRANCH   8  10
TORSDOF 2
ENDMDL
