MODEL 1
REMARK VINA RESULT:      -4.5      0.000      0.000
REMARK  1 active torsions:
REMARK  status: ('A' for Active; 'I' for Inactive)
REMARK    1  A    between atoms: C_1  and  C_5 
ROOT
HETATM    1  C   UNL     1      62.152   9.823   2.482  1.00  0.00     0.072 A 
HETATM    2  C   UNL     1      62.848   8.814   3.129  1.00  0.00     0.066 A 
HETATM    3  O   UNL     1      62.898   7.697   2.348  1.00  0.00    -0.319 OA
HETATM    4  C   UNL     1      61.757   9.265   1.228  1.00  0.00     0.053 A 
HETATM    5  C   UNL     1      62.234   7.976   1.196  1.00  0.00     0.050 A 
HETATM    6  C   UNL     1      63.524   8.688   4.439  1.00  0.00     0.078 C 
HETATM    7  C   UNL     1      62.169   6.889   0.200  1.00  0.00     0.076 C 
ENDROOT
BRANCH   1   8
HETATM    8  C   UNL     1      61.891  11.152   2.987  1.00  0.00     0.211 C 
HETATM    9  O   UNL     1      61.674  11.457   4.150  1.00  0.00    -0.644 OA
HETATM   10  O   UNL     1      61.903  12.111   2.032  1.00  0.00    -0.644 OA
ENDBRANCH   1   8
TORSDOF 1
ENDMDL
MODEL 2
REMARK VINA RESULT:      -4.5      2.076      3.026
REMARK  1 active torsions:
REMARK  status: ('A' for Active; 'I' for Inactive)
REMARK    1  A    between atoms: C_1  and  C_5 
ROOT
HETATM    1  C   UNL     1      63.027   8.985   4.056  1.00  0.00     0.072 A 
HETATM    2  C   UNL     1      62.377  10.126   3.614  1.00  0.00     0.066 A 
HETATM    3  O   UNL     1      61.985   9.975   2.316  1.00  0.00    -0.319 OA
HETATM    4  C   UNL     1      63.026   8.093   2.940  1.00  0.00     0.053 A 
HETATM    5  C   UNL     1      62.382   8.740   1.911  1.00  0.00     0.050 A 
HETATM    6  C   UNL     1      62.027  11.429   4.222  1.00  0.00     0.078 C 
HETATM    7  C   UNL     1      62.054   8.371   0.522  1.00  0.00     0.076 C 
ENDROOT
BRANCH   1   8
HETATM    8  C   UNL     1      63.584   8.764   5.371  1.00  0.00     0.211 C 
HETATM    9  O   UNL     1      63.078   8.114   6.274  1.00  0.00    -0.644 OA
HETATM   10  O   UNL     1      64.785   9.357   5.562  1.00  0.00    -0.644 OA
ENDBRANCH   1   8
TORSDOF 1
ENDMDL
MODEL 3
REMARK VINA RESULT:      -4.4      1.012      2.675
REMARK  1 active torsions:
REMARK  status: ('A' for Active; 'I' for Inactive)
REMARK    1  A    between atoms: C_1  and  C_5 
ROOT
HETATM    1  C   UNL     1      62.255  10.016   3.300  1.00  0.00     0.072 A 
HETATM    2  C   UNL     1      62.291   9.043   2.313  1.00  0.00     0.066 A 
HETATM    3  O   UNL     1      62.608   7.831   2.853  1.00  0.00    -0.319 OA
HETATM    4  C   UNL     1      62.578   9.335   4.513  1.00  0.00     0.053 A 
HETATM    5  C   UNL     1      62.782   8.014   4.188  1.00  0.00     0.050 A 
HETATM    6  C   UNL     1      62.068   9.033   0.850  1.00  0.00     0.078 C 
HETATM    7  C   UNL     1      63.135   6.815   4.971  1.00  0.00     0.076 C 
ENDROOT
BRANCH   1   8
HETATM    8  C   UNL     1      61.955  11.417   3.119  1.00  0.00     0.211 C 
HETATM    9  O   UNL     1      61.846  12.005   2.053  1.00  0.00    -0.644 OA
HETATM   10  O   UNL     1      61.785  12.094   4.278  1.00  0.00    -0.644 OA
ENDBRANCH   1   8
TORSDOF 1
ENDMDL
MODEL 4
REMARK VINA RESULT:      -4.3      1.669      2.867
REMARK  1 active torsions:
REMARK  status: ('A' for Active; 'I' for Inactive)
REMARK    1  A    between atoms: C_1  and  C_5 
ROOT
HETATM    1  C   UNL     1      62.922   9.715   4.232  1.00  0.00     0.072 A 
HETATM    2  C   UNL     1      62.558   9.332   2.951  1.00  0.00     0.066 A 
HETATM    3  O   UNL     1      63.066   8.099   2.662  1.00  0.00    -0.319 OA
HETATM    4  C   UNL     1      63.707   8.635   4.740  1.00  0.00     0.053 A 
HETATM    5  C   UNL     1      63.763   7.681   3.752  1.00  0.00     0.050 A 
HETATM    6  C   UNL     1      61.765   9.947   1.863  1.00  0.00     0.078 C 
HETATM    7  C   UNL     1      64.402   6.356   3.650  1.00  0.00     0.076 C 
ENDROOT
BRANCH   1   8
HETATM    8  C   UNL     1      62.574  10.951   4.894  1.00  0.00     0.211 C 
HETATM    9  O   UNL     1      61.908  11.863   4.426  1.00  0.00    -0.644 OA
HETATM   10  O   UNL     1      63.058  11.051   6.153  1.00  0.00    -0.644 OA
ENDBRANCH   1   8
TORSDOF 1
ENDMDL
MODEL 5
REMARK VINA RESULT:      -4.3      2.224      3.727
REMARK  1 active torsions:
REMARK  status: ('A' for Active; 'I' for Inactive)
REMARK    1  A    between atoms: C_1  and  C_5 
ROOT
HETATM    1  C   UNL     1      62.964   8.798   4.601  1.00  0.00     0.072 A 
HETATM    2  C   UNL     1      63.023   8.233   3.337  1.00  0.00     0.066 A 
HETATM    3  O   UNL     1      62.571   9.117   2.401  1.00  0.00    -0.319 OA
HETATM    4  C   UNL     1      62.435  10.110   4.404  1.00  0.00     0.053 A 
HETATM    5  C   UNL     1      62.214  10.254   3.055  1.00  0.00     0.050 A 
HETATM    6  C   UNL     1      63.455   6.924   2.798  1.00  0.00     0.078 C 
HETATM    7  C   UNL     1      61.692  11.351   2.219  1.00  0.00     0.076 C 
ENDROOT
BRANCH   1   8
HETATM    8  C   UNL     1      63.357   8.174   5.844  1.00  0.00     0.211 C 
HETATM    9  O   UNL     1      62.610   7.761   6.718  1.00  0.00    -0.644 OA
HETATM   10  O   UNL     1      64.697   8.062   5.998  1.00  0.00    -0.644 OA
ENDBRANCH   1   8
TORSDOF 1
ENDMDL
MODEL 6
REMARK VINA RESULT:      -4.1      2.302      3.988
REMARK  1 active torsions:
REMARK  status: ('A' for Active; 'I' for Inactive)
REMARK    1  A    between atoms: C_1  and  C_5 
ROOT
HETATM    1  C   UNL     1      63.274   8.780   4.157  1.00  0.00     0.072 A 
HETATM    2  C   UNL     1      63.512   9.803   5.062  1.00  0.00     0.066 A 
HETATM    3  O   UNL     1      64.663   9.564   5.755  1.00  0.00    -0.319 OA
HETATM    4  C   UNL     1      64.358   7.866   4.327  1.00  0.00     0.053 A 
HETATM    5  C   UNL     1      65.172   8.387   5.306  1.00  0.00     0.050 A 
HETATM    6  C   UNL     1      62.814  11.055   5.429  1.00  0.00     0.078 C 
HETATM    7  C   UNL     1      66.429   7.938   5.931  1.00  0.00     0.076 C 
ENDROOT
BRANCH   1   8
HETATM    8  C   UNL     1      62.158   8.678   3.245  1.00  0.00     0.211 C 
HETATM    9  O   UNL     1      60.981   8.554   3.549  1.00  0.00    -0.644 OA
HETATM   10  O   UNL     1      62.513   8.735   1.940  1.00  0.00    -0.644 OA
ENDBRANCH   1   8
TORSDOF 1
ENDMDL
MODEL 7
REMARK VINA RESULT:      -3.7      3.352      5.119
REMARK  1 active torsions:
REMARK  status: ('A' for Active; 'I' for Inactive)
REMARK    1  A    between atoms: C_1  and  C_5 
ROOT
HETATM    1  C   UNL     1      64.526   7.673   4.488  1.00  0.00     0.072 A 
HETATM    2  C   UNL     1      65.309   8.325   5.427  1.00  0.00     0.066 A 
HETATM    3  O   UNL     1      64.744   9.520   5.768  1.00  0.00    -0.319 OA
HETATM    4  C   UNL     1      63.419   8.542   4.250  1.00  0.00     0.053 A 
HETATM    5  C   UNL     1      63.598   9.646   5.050  1.00  0.00     0.050 A 
HETATM    6  C   UNL     1      66.582   8.021   6.118  1.00  0.00     0.078 C 
HETATM    7  C   UNL     1      62.823  10.882   5.269  1.00  0.00     0.076 C 
ENDROOT
BRANCH   1   8
HETATM    8  C   UNL     1      64.793   6.386   3.888  1.00  0.00     0.211 C 
HETATM    9  O   UNL     1      65.738   6.103   3.166  1.00  0.00    -0.644 OA
HETATM   10  O   UNL     1      63.874   5.440   4.192  1.00  0.00    -0.644 OA
ENDBRANCH   1   8
TORSDOF 1
ENDMDL
MODEL 8
REMARK VINA RESULT:      -3.6      1.889      3.617
REMARK  1 active torsions:
REMARK  status: ('A' for Active; 'I' for Inactive)
REMARK    1  A    between atoms: C_1  and  C_5 
ROOT
HETATM    1  C   UNL     1      62.959   8.724   4.087  1.00  0.00     0.072 A 
HETATM    2  C   UNL     1      63.573   7.672   3.427  1.00  0.00     0.066 A 
HETATM    3  O   UNL     1      64.777   7.388   4.004  1.00  0.00    -0.319 OA
HETATM    4  C   UNL     1      63.862   9.096   5.128  1.00  0.00     0.053 A 
HETATM    5  C   UNL     1      64.947   8.256   5.036  1.00  0.00     0.050 A 
HETATM    6  C   UNL     1      63.222   6.817   2.271  1.00  0.00     0.078 C 
HETATM    7  C   UNL     1      66.200   8.121   5.803  1.00  0.00     0.076 C 
ENDROOT
BRANCH   1   8
HETATM    8  C   UNL     1      61.675   9.308   3.771  1.00  0.00     0.211 C 
HETATM    9  O   UNL     1      60.670   8.707   3.421  1.00  0.00    -0.644 OA
HETATM   10  O   UNL     1      61.643  10.655   3.894  1.00  0.00    -0.644 OA
ENDBRANCH   1   8
TORSDOF 1
ENDMDL
MODEL 9
REMARK VINA RESULT:      -3.6      5.048      7.070
REMARK  1 active torsions:
REMARK  status: ('A' for Active; 'I' for Inactive)
REMARK    1  A    between atoms: C_1  and  C_5 
ROOT
HETATM    1  C   UNL     1      65.516   6.671   6.667  1.00  0.00     0.072 A 
HETATM    2  C   UNL     1      66.725   6.562   5.998  1.00  0.00     0.066 A 
HETATM    3  O   UNL     1      67.720   6.226   6.868  1.00  0.00    -0.319 OA
HETATM    4  C   UNL     1      65.814   6.383   8.034  1.00  0.00     0.053 A 
HETATM    5  C   UNL     1      67.162   6.119   8.103  1.00  0.00     0.050 A 
HETATM    6  C   UNL     1      67.158   6.727   4.592  1.00  0.00     0.078 C 
HETATM    7  C   UNL     1      68.075   5.758   9.203  1.00  0.00     0.076 C 
ENDROOT
BRANCH   1   8
HETATM    8  C   UNL     1      64.237   7.009   6.087  1.00  0.00     0.211 C 
HETATM    9  O   UNL     1      63.882   6.796   4.937  1.00  0.00    -0.644 OA
HETATM   10  O   UNL     1      63.389   7.616   6.949  1.00  0.00    -0.644 OA
ENDBRANCH   1   8
TORSDOF 1
ENDMDL
