MODEL 1
REMARK VINA RESULT:      -4.6      0.000      0.000
REMARK  2 active torsions:
REMARK  status: ('A' for Active; 'I' for Inactive)
REMARK    1  A    between atoms: C_7  and  C_12 
REMARK    2  A    between atoms: N_9  and  C_12 
ROOT
HETATM    1  C   UNL     1      64.804   8.545   5.191  1.00  0.00     0.102 A 
HETATM    2  C   UNL     1      64.887   7.398   4.394  1.00  0.00     0.102 A 
HETATM    3  O   UNL     1      65.696   8.831   6.192  1.00  0.00    -0.346 OA
HETATM    4  C   UNL     1      63.772   9.463   4.992  1.00  0.00     0.048 A 
HETATM    5  O   UNL     1      65.867   6.451   4.540  1.00  0.00    -0.346 OA
HETATM    6  C   UNL     1      63.954   7.184   3.385  1.00  0.00     0.040 A 
HETATM    7  C   UNL     1      62.825   9.256   3.979  1.00  0.00    -0.030 A 
HETATM    8  C   UNL     1      62.925   8.105   3.181  1.00  0.00     0.012 A 
HETATM    9  C   UNL     1      66.881   8.036   6.083  1.00  0.00     0.202 C 
HETATM   10  C   UNL     1      66.542   6.582   5.794  1.00  0.00     0.202 C 
ENDROOT
BRANCH   7  11
HETATM   11  C   UNL     1      61.715  10.251   3.746  1.00  0.00     0.268 C 
BRANCH  11  12
HETATM   12  N   UNL     1      61.708  10.721   2.365  1.00  0.00    -0.075 N 
HETATM   13  H   UNL     1      60.817  10.482   1.929  1.00  0.00     0.274 HD
HETATM   14  H   UNL     1      62.468  10.278   1.850  1.00  0.00     0.274 HD
HETATM   15  H   UNL     1      61.830  11.733   2.350  1.00  0.00     0.274 HD
ENDBRANCH  11  12
ENDBRANCH   7  11
TORSDOF 2
ENDMDL
MODEL 2
REMARK VINA RESULT:      -4.4      2.859      4.350
REMARK  2 active torsions:
REMARK  status: ('A' for Active; 'I' for Inactive)
REMARK    1  A    between atoms: C_7  and  C_12 
REMARK    2  A    between atoms: N_9  and  C_12 
ROOT
HETATM    1  C   UNL     1      64.513   8.917   4.980  1.00  0.00     0.102 A 
HETATM    2  C   UNL     1      63.638   8.336   4.056  1.00  0.00     0.102 A 
HETATM    3  O   UNL     1      64.257  10.105   5.614  1.00  0.00    -0.346 OA
HETATM    4  C   UNL     1      65.721   8.290   5.291  1.00  0.00     0.048 A 
HETATM    5  O   UNL     1      62.442   8.899   3.696  1.00  0.00    -0.346 OA
HETATM    6  C   UNL     1      63.960   7.118   3.465  1.00  0.00     0.040 A 
HETATM    7  C   UNL     1      66.056   7.064   4.700  1.00  0.00    -0.030 A 
HETATM    8  C   UNL     1      65.164   6.487   3.781  1.00  0.00     0.012 A 
HETATM    9  C   UNL     1      62.879  10.475   5.499  1.00  0.00     0.202 C 
HETATM   10  C   UNL     1      62.375  10.276   4.078  1.00  0.00     0.202 C 
ENDROOT
BRANCH   7  11
HETATM   11  C   UNL     1      67.351   6.371   5.042  1.00  0.00     0.268 C 
BRANCH  11  12
HETATM   12  N   UNL     1      68.016   7.016   6.169  1.00  0.00    -0.075 N 
HETATM   13  H   UNL     1      67.337   7.186   6.912  1.00  0.00     0.274 HD
HETATM   14  H   UNL     1      68.417   7.903   5.865  1.00  0.00     0.274 HD
HETATM   15  H   UNL     1      68.756   6.409   6.520  1.00  0.00     0.274 HD
ENDBRANCH  11  12
ENDBRANCH   7  11
TORSDOF 2
ENDMDL
MODEL 3
REMARK VINA RESULT:      -4.3      3.538      5.436
REMARK  2 active torsions:
REMARK  status: ('A' for Active; 'I' for Inactive)
REMARK    1  A    between atoms: C_7  and  C_12 
REMARK    2  A    between atoms: N_9  and  C_12 
ROOT
HETATM    1  C   UNL     1      65.020   7.124   6.647  1.00  0.00     0.102 A 
HETATM    2  C   UNL     1      65.752   7.752   5.633  1.00  0.00     0.102 A 
HETATM    3  O   UNL     1      63.679   7.327   6.842  1.00  0.00    -0.346 OA
HETATM    4  C   UNL     1      65.655   6.249   7.529  1.00  0.00     0.048 A 
HETATM    5  O   UNL     1      65.197   8.631   4.739  1.00  0.00    -0.346 OA
HETATM    6  C   UNL     1      67.109   7.485   5.487  1.00  0.00     0.040 A 
HETATM    7  C   UNL     1      67.023   5.973   7.392  1.00  0.00    -0.030 A 
HETATM    8  C   UNL     1      67.743   6.603   6.365  1.00  0.00     0.012 A 
HETATM    9  C   UNL     1      63.070   7.944   5.703  1.00  0.00     0.202 C 
HETATM   10  C   UNL     1      63.918   9.094   5.184  1.00  0.00     0.202 C 
ENDROOT
BRANCH   7  11
HETATM   11  C   UNL     1      67.714   5.015   8.330  1.00  0.00     0.268 C 
BRANCH  11  12
HETATM   12  N   UNL     1      66.851   3.889   8.668  1.00  0.00    -0.075 N 
HETATM   13  H   UNL     1      66.554   3.968   9.641  1.00  0.00     0.274 HD
HETATM   14  H   UNL     1      67.364   3.017   8.540  1.00  0.00     0.274 HD
HETATM   15  H   UNL     1      66.031   3.894   8.062  1.00  0.00     0.274 HD
ENDBRANCH  11  12
ENDBRANCH   7  11
TORSDOF 2
ENDMDL
MODEL 4
REMARK VINA RESULT:      -4.3      2.231      2.993
REMARK  2 active torsions:
REMARK  status: ('A' for Active; 'I' for Inactive)
REMARK    1  A    between atoms: C_7  and  C_12 
REMARK    2  A    between atoms: N_9  and  C_12 
ROOT
HETATM    1  C   UNL     1      63.749   7.980   3.948  1.00  0.00     0.102 A 
HETATM    2  C   UNL     1      63.035   7.971   2.745  1.00  0.00     0.102 A 
HETATM    3  O   UNL     1      64.598   6.972   4.326  1.00  0.00    -0.346 OA
HETATM    4  C   UNL     1      63.609   9.046   4.837  1.00  0.00     0.048 A 
HETATM    5  O   UNL     1      63.115   6.953   1.831  1.00  0.00    -0.346 OA
HETATM    6  C   UNL     1      62.203   9.039   2.422  1.00  0.00     0.040 A 
HETATM    7  C   UNL     1      62.773  10.127   4.523  1.00  0.00    -0.030 A 
HETATM    8  C   UNL     1      62.069  10.109   3.308  1.00  0.00     0.012 A 
HETATM    9  C   UNL     1      64.933   6.126   3.221  1.00  0.00     0.202 C 
HETATM   10  C   UNL     1      63.700   5.779   2.402  1.00  0.00     0.202 C 
ENDROOT
BRANCH   7  11
HETATM   11  C   UNL     1      62.628  11.291   5.470  1.00  0.00     0.268 C 
BRANCH  11  12
HETATM   12  N   UNL     1      63.816  11.448   6.302  1.00  0.00    -0.075 N 
HETATM   13  H   UNL     1      64.247  10.536   6.455  1.00  0.00     0.274 HD
HETATM   14  H   UNL     1      63.551  11.854   7.199  1.00  0.00     0.274 HD
HETATM   15  H   UNL     1      64.481  12.063   5.833  1.00  0.00     0.274 HD
ENDBRANCH  11  12
ENDBRANCH   7  11
TORSDOF 2
ENDMDL
MODEL 5
REMARK VINA RESULT:      -4.3      1.342      1.422
REMARK  2 active torsions:
REMARK  status: ('A' for Active; 'I' for Inactive)
REMARK    1  A    between atoms: C_7  and  C_12 
REMARK    2  A    between atoms: N_9  and  C_12 
ROOT
HETATM    1  C   UNL     1      63.635   8.022   5.316  1.00  0.00     0.102 A 
HETATM    2  C   UNL     1      63.744   7.129   4.244  1.00  0.00     0.102 A 
HETATM    3  O   UNL     1      64.089   7.740   6.578  1.00  0.00    -0.346 OA
HETATM    4  C   UNL     1      63.031   9.266   5.133  1.00  0.00     0.048 A 
HETATM    5  O   UNL     1      64.315   5.888   4.354  1.00  0.00    -0.346 OA
HETATM    6  C   UNL     1      63.273   7.493   2.986  1.00  0.00     0.040 A 
HETATM    7  C   UNL     1      62.551   9.642   3.870  1.00  0.00    -0.030 A 
HETATM    8  C   UNL     1      62.675   8.740   2.800  1.00  0.00     0.012 A 
HETATM    9  C   UNL     1      64.982   6.621   6.577  1.00  0.00     0.202 C 
HETATM   10  C   UNL     1      64.439   5.487   5.722  1.00  0.00     0.202 C 
ENDROOT
BRANCH   7  11
HETATM   11  C   UNL     1      61.912  10.991   3.657  1.00  0.00     0.268 C 
BRANCH  11  12
HETATM   12  N   UNL     1      61.627  11.226   2.246  1.00  0.00    -0.075 N 
HETATM   13  H   UNL     1      60.622  11.353   2.119  1.00  0.00     0.274 HD
HETATM   14  H   UNL     1      61.940  10.425   1.698  1.00  0.00     0.274 HD
HETATM   15  H   UNL     1      62.116  12.065   1.935  1.00  0.00     0.274 HD
ENDBRANCH  11  12
ENDBRANCH   7  11
TORSDOF 2
ENDMDL
MODEL 6
REMARK VINA RESULT:      -4.3      0.720      2.154
REMARK  2 active torsions:
REMARK  status: ('A' for Active; 'I' for Inactive)
REMARK    1  A    between atoms: C_7  and  C_12 
REMARK    2  A    between atoms: N_9  and  C_12 
ROOT
HETATM    1  C   UNL     1      64.670   7.522   4.324  1.00  0.00     0.102 A 
HETATM    2  C   UNL     1      64.622   8.647   5.154  1.00  0.00     0.102 A 
HETATM    3  O   UNL     1      65.626   6.546   4.436  1.00  0.00    -0.346 OA
HETATM    4  C   UNL     1      63.722   7.355   3.315  1.00  0.00     0.048 A 
HETATM    5  O   UNL     1      65.525   8.881   6.157  1.00  0.00    -0.346 OA
HETATM    6  C   UNL     1      63.610   9.589   4.990  1.00  0.00     0.040 A 
HETATM    7  C   UNL     1      62.699   8.298   3.139  1.00  0.00    -0.030 A 
HETATM    8  C   UNL     1      62.657   9.418   3.984  1.00  0.00     0.012 A 
HETATM    9  C   UNL     1      66.316   6.628   5.688  1.00  0.00     0.202 C 
HETATM   10  C   UNL     1      66.691   8.065   6.015  1.00  0.00     0.202 C 
ENDROOT
BRANCH   7  11
HETATM   11  C   UNL     1      61.660   8.118   2.061  1.00  0.00     0.268 C 
BRANCH  11  12
HETATM   12  N   UNL     1      60.938   9.360   1.808  1.00  0.00    -0.075 N 
HETATM   13  H   UNL     1      59.998   9.145   1.474  1.00  0.00     0.274 HD
HETATM   14  H   UNL     1      61.434   9.903   1.102  1.00  0.00     0.274 HD
HETATM   15  H   UNL     1      60.876   9.899   2.671  1.00  0.00     0.274 HD
ENDBRANCH  11  12
ENDBRANCH   7  11
TORSDOF 2
ENDMDL
MODEL 7
REMARK VINA RESULT:      -4.1      2.319      4.088
REMARK  2 active torsions:
REMARK  status: ('A' for Active; 'I' for Inactive)
REMARK    1  A    between atoms: C_7  and  C_12 
REMARK    2  A    between atoms: N_9  and  C_12 
ROOT
HETATM    1  C   UNL     1      63.162   8.859   3.932  1.00  0.00     0.102 A 
HETATM    2  C   UNL     1      64.154   9.114   4.885  1.00  0.00     0.102 A 
HETATM    3  O   UNL     1      62.107   9.704   3.702  1.00  0.00    -0.346 OA
HETATM    4  C   UNL     1      63.208   7.694   3.166  1.00  0.00     0.048 A 
HETATM    5  O   UNL     1      64.167  10.231   5.678  1.00  0.00    -0.346 OA
HETATM    6  C   UNL     1      65.204   8.216   5.052  1.00  0.00     0.040 A 
HETATM    7  C   UNL     1      64.260   6.782   3.327  1.00  0.00    -0.030 A 
HETATM    8  C   UNL     1      65.255   7.053   4.281  1.00  0.00     0.012 A 
HETATM    9  C   UNL     1      62.338  10.999   4.268  1.00  0.00     0.202 C 
HETATM   10  C   UNL     1      62.896  10.889   5.677  1.00  0.00     0.202 C 
ENDROOT
BRANCH   7  11
HETATM   11  C   UNL     1      64.328   5.527   2.493  1.00  0.00     0.268 C 
BRANCH  11  12
HETATM   12  N   UNL     1      63.708   5.725   1.187  1.00  0.00    -0.075 N 
HETATM   13  H   UNL     1      64.411   6.051   0.523  1.00  0.00     0.274 HD
HETATM   14  H   UNL     1      62.966   6.420   1.265  1.00  0.00     0.274 HD
HETATM   15  H   UNL     1      63.316   4.843   0.860  1.00  0.00     0.274 HD
ENDBRANCH  11  12
ENDBRANCH   7  11
TORSDOF 2
ENDMDL
MODEL 8
REMARK VINA RESULT:      -4.1      2.765      4.358
REMARK  2 active torsions:
REMARK  status: ('A' for Active; 'I' for Inactive)
REMARK    1  A    between atoms: C_7  and  C_12 
REMARK    2  A    between atoms: N_9  and  C_12 
ROOT
HETATM    1  C   UNL     1      63.527   8.930   4.369  1.00  0.00     0.102 A 
HETATM    2  C   UNL     1      63.397   8.039   3.299  1.00  0.00     0.102 A 
HETATM    3  O   UNL     1      62.776  10.071   4.492  1.00  0.00    -0.346 OA
HETATM    4  C   UNL     1      64.461   8.685   5.376  1.00  0.00     0.048 A 
HETATM    5  O   UNL     1      62.509   8.221   2.271  1.00  0.00    -0.346 OA
HETATM    6  C   UNL     1      64.184   6.892   3.251  1.00  0.00     0.040 A 
HETATM    7  C   UNL     1      65.260   7.534   5.337  1.00  0.00    -0.030 A 
HETATM    8  C   UNL     1      65.114   6.643   4.261  1.00  0.00     0.012 A 
HETATM    9  C   UNL     1      61.638  10.047   3.624  1.00  0.00     0.202 C 
HETATM   10  C   UNL     1      62.019   9.565   2.234  1.00  0.00     0.202 C 
ENDROOT
BRANCH   7  11
HETATM   11  C   UNL     1      66.261   7.251   6.429  1.00  0.00     0.268 C 
BRANCH  11  12
HETATM   12  N   UNL     1      66.864   8.483   6.926  1.00  0.00    -0.075 N 
HETATM   13  H   UNL     1      67.834   8.306   7.186  1.00  0.00     0.274 HD
HETATM   14  H   UNL     1      66.347   8.809   7.742  1.00  0.00     0.274 HD
HETATM   15  H   UNL     1      66.834   9.195   6.197  1.00  0.00     0.274 HD
ENDBRANCH  11  12
ENDBRANCH   7  11
TORSDOF 2
ENDMDL
MODEL 9
REMARK VINA RESULT:      -4.1      1.599      2.330
REMARK  2 active torsions:
REMARK  status: ('A' for Active; 'I' for Inactive)
REMARK    1  A    between atoms: C_7  and  C_12 
REMARK    2  A    between atoms: N_9  and  C_12 
ROOT
HETATM    1  C   UNL     1      63.800   7.384   5.428  1.00  0.00     0.102 A 
HETATM    2  C   UNL     1      64.258   8.703   5.344  1.00  0.00     0.102 A 
HETATM    3  O   UNL     1      64.496   6.385   6.058  1.00  0.00    -0.346 OA
HETATM    4  C   UNL     1      62.584   7.026   4.845  1.00  0.00     0.048 A 
HETATM    5  O   UNL     1      65.446   9.122   5.883  1.00  0.00    -0.346 OA
HETATM    6  C   UNL     1      63.488   9.667   4.700  1.00  0.00     0.040 A 
HETATM    7  C   UNL     1      61.800   7.989   4.192  1.00  0.00    -0.030 A 
HETATM    8  C   UNL     1      62.267   9.311   4.123  1.00  0.00     0.012 A 
HETATM    9  C   UNL     1      65.523   6.914   6.903  1.00  0.00     0.202 C 
HETATM   10  C   UNL     1      66.298   8.017   6.199  1.00  0.00     0.202 C 
ENDROOT
BRANCH   7  11
HETATM   11  C   UNL     1      60.476   7.616   3.573  1.00  0.00     0.268 C 
BRANCH  11  12
HETATM   12  N   UNL     1      60.217   8.395   2.368  1.00  0.00    -0.075 N 
HETATM   13  H   UNL     1      60.844   8.088   1.623  1.00  0.00     0.274 HD
HETATM   14  H   UNL     1      60.377   9.383   2.560  1.00  0.00     0.274 HD
HETATM   15  H   UNL     1      59.250   8.257   2.075  1.00  0.00     0.274 HD
ENDBRANCH  11  12
ENDBRANCH   7  11
TORSDOF 2
ENDMDL
