MODEL 1
REMARK VINA RESULT:      -4.8      0.000      0.000
REMARK  2 active torsions:
REMARK  status: ('A' for Active; 'I' for Inactive)
REMARK    1  A    between atoms: C_1  and  C_3 
REMARK    2  A    between atoms: C_3  and  N_8 
ROOT
HETATM    1  C   UNL     1      64.938   7.836   4.628  1.00  0.00     0.038 A 
HETATM    2  C   UNL     1      64.006   8.893   4.647  1.00  0.00     0.115 A 
HETATM    3  C   UNL     1      62.919   8.880   3.755  1.00  0.00     0.103 A 
HETATM    4  O   UNL     1      64.186   9.927   5.538  1.00  0.00    -0.345 OA
HETATM    5  O   UNL     1      61.970   9.870   3.692  1.00  0.00    -0.346 OA
HETATM    6  C   UNL     1      64.742   6.781   3.716  1.00  0.00     0.017 A 
HETATM    7  C   UNL     1      63.648   6.771   2.847  1.00  0.00     0.004 A 
HETATM    8  C   UNL     1      62.735   7.819   2.869  1.00  0.00     0.040 A 
HETATM    9  C   UNL     1      62.998  10.705   5.717  1.00  0.00     0.202 C 
HETATM   10  C   UNL     1      62.390  11.054   4.373  1.00  0.00     0.202 C 
ENDROOT
BRANCH   1  11
HETATM   11  C   UNL     1      66.122   7.793   5.547  1.00  0.00     0.107 C 
HETATM   12  S   UNL     1      67.728   7.769   5.070  1.00  0.00    -0.060 SA
BRANCH  11  13
HETATM   13  N   UNL     1      65.870   7.783   6.894  1.00  0.00    -0.389 N 
HETATM   14  H   UNL     1      66.137   8.551   7.450  1.00  0.00     0.157 HD
HETATM   15  H   UNL     1      65.422   7.009   7.305  1.00  0.00     0.157 HD
ENDBRANCH  11  13
ENDBRANCH   1  11
TORSDOF 2
ENDMDL
MODEL 2
REMARK VINA RESULT:      -4.6      2.981      4.422
REMARK  2 active torsions:
REMARK  status: ('A' for Active; 'I' for Inactive)
REMARK    1  A    between atoms: C_1  and  C_3 
REMARK    2  A    between atoms: C_3  and  N_8 
ROOT
HETATM    1  C   UNL     1      62.555   8.809   3.209  1.00  0.00     0.038 A 
HETATM    2  C   UNL     1      63.639   8.469   4.044  1.00  0.00     0.115 A 
HETATM    3  C   UNL     1      64.024   9.342   5.077  1.00  0.00     0.103 A 
HETATM    4  O   UNL     1      64.306   7.284   3.824  1.00  0.00    -0.345 OA
HETATM    5  O   UNL     1      65.073   9.101   5.930  1.00  0.00    -0.346 OA
HETATM    6  C   UNL     1      61.877  10.020   3.446  1.00  0.00     0.017 A 
HETATM    7  C   UNL     1      62.259  10.871   4.487  1.00  0.00     0.004 A 
HETATM    8  C   UNL     1      63.330  10.529   5.304  1.00  0.00     0.040 A 
HETATM    9  C   UNL     1      65.101   6.890   4.947  1.00  0.00     0.202 C 
HETATM   10  C   UNL     1      65.925   8.061   5.447  1.00  0.00     0.202 C 
ENDROOT
BRANCH   1  11
HETATM   11  C   UNL     1      62.098   7.927   2.087  1.00  0.00     0.107 C 
HETATM   12  S   UNL     1      62.087   8.339   0.463  1.00  0.00    -0.060 SA
BRANCH  11  13
HETATM   13  N   UNL     1      61.662   6.670   2.416  1.00  0.00    -0.389 N 
HETATM   14  H   UNL     1      60.832   6.317   2.019  1.00  0.00     0.157 HD
HETATM   15  H   UNL     1      62.177   6.121   3.050  1.00  0.00     0.157 HD
ENDBRANCH  11  13
ENDBRANCH   1  11
TORSDOF 2
ENDMDL
MODEL 3
REMARK VINA RESULT:      -4.6      3.355      4.840
REMARK  2 active torsions:
REMARK  status: ('A' for Active; 'I' for Inactive)
REMARK    1  A    between atoms: C_1  and  C_3 
REMARK    2  A    between atoms: C_3  and  N_8 
ROOT
HETATM    1  C   UNL     1      62.211   9.423   2.751  1.00  0.00     0.038 A 
HETATM    2  C   UNL     1      63.082   8.706   3.597  1.00  0.00     0.115 A 
HETATM    3  C   UNL     1      63.497   9.275   4.814  1.00  0.00     0.103 A 
HETATM    4  O   UNL     1      63.518   7.459   3.206  1.00  0.00    -0.345 OA
HETATM    5  O   UNL     1      64.352   8.660   5.694  1.00  0.00    -0.346 OA
HETATM    6  C   UNL     1      61.768  10.694   3.162  1.00  0.00     0.017 A 
HETATM    7  C   UNL     1      62.173  11.241   4.382  1.00  0.00     0.004 A 
HETATM    8  C   UNL     1      63.034  10.530   5.209  1.00  0.00     0.040 A 
HETATM    9  C   UNL     1      64.060   6.706   4.296  1.00  0.00     0.202 C 
HETATM   10  C   UNL     1      65.031   7.556   5.092  1.00  0.00     0.202 C 
ENDROOT
BRANCH   1  11
HETATM   11  C   UNL     1      61.737   8.876   1.438  1.00  0.00     0.107 C 
HETATM   12  S   UNL     1      60.216   8.243   1.135  1.00  0.00    -0.060 SA
BRANCH  11  13
HETATM   13  N   UNL     1      62.622   8.907   0.391  1.00  0.00    -0.389 N 
HETATM   14  H   UNL     1      62.566   9.628  -0.279  1.00  0.00     0.157 HD
HETATM   15  H   UNL     1      63.311   8.210   0.308  1.00  0.00     0.157 HD
ENDBRANCH  11  13
ENDBRANCH   1  11
TORSDOF 2
ENDMDL
MODEL 4
REMARK VINA RESULT:      -4.5      2.196      3.668
REMARK  2 active torsions:
REMARK  status: ('A' for Active; 'I' for Inactive)
REMARK    1  A    between atoms: C_1  and  C_3 
REMARK    2  A    between atoms: C_3  and  N_8 
ROOT
HETATM    1  C   UNL     1      62.933   9.228   4.280  1.00  0.00     0.038 A 
HETATM    2  C   UNL     1      62.641   8.702   3.005  1.00  0.00     0.115 A 
HETATM    3  C   UNL     1      62.000   9.510   2.049  1.00  0.00     0.103 A 
HETATM    4  O   UNL     1      62.983   7.398   2.725  1.00  0.00    -0.345 OA
HETATM    5  O   UNL     1      61.664   9.082   0.788  1.00  0.00    -0.346 OA
HETATM    6  C   UNL     1      62.583  10.563   4.555  1.00  0.00     0.017 A 
HETATM    7  C   UNL     1      61.963  11.361   3.590  1.00  0.00     0.004 A 
HETATM    8  C   UNL     1      61.675  10.835   2.336  1.00  0.00     0.040 A 
HETATM    9  C   UNL     1      62.987   7.126   1.320  1.00  0.00     0.202 C 
HETATM   10  C   UNL     1      61.721   7.659   0.677  1.00  0.00     0.202 C 
ENDROOT
BRANCH   1  11
HETATM   11  C   UNL     1      63.607   8.418   5.347  1.00  0.00     0.107 C 
HETATM   12  S   UNL     1      65.246   8.075   5.425  1.00  0.00    -0.060 SA
BRANCH  11  13
HETATM   13  N   UNL     1      62.817   7.924   6.352  1.00  0.00    -0.389 N 
HETATM   14  H   UNL     1      62.121   7.256   6.148  1.00  0.00     0.157 HD
HETATM   15  H   UNL     1      62.943   8.237   7.276  1.00  0.00     0.157 HD
ENDBRANCH  11  13
ENDBRANCH   1  11
TORSDOF 2
ENDMDL
MODEL 5
REMARK VINA RESULT:      -4.5      2.985      4.217
REMARK  2 active torsions:
REMARK  status: ('A' for Active; 'I' for Inactive)
REMARK    1  A    between atoms: C_1  and  C_3 
REMARK    2  A    between atoms: C_3  and  N_8 
ROOT
HETATM    1  C   UNL     1      63.156   8.430   5.412  1.00  0.00     0.038 A 
HETATM    2  C   UNL     1      64.402   7.979   5.895  1.00  0.00     0.115 A 
HETATM    3  C   UNL     1      64.553   6.637   6.287  1.00  0.00     0.103 A 
HETATM    4  O   UNL     1      65.448   8.870   5.981  1.00  0.00    -0.345 OA
HETATM    5  O   UNL     1      65.721   6.112   6.780  1.00  0.00    -0.346 OA
HETATM    6  C   UNL     1      62.095   7.510   5.324  1.00  0.00     0.017 A 
HETATM    7  C   UNL     1      62.262   6.175   5.700  1.00  0.00     0.004 A 
HETATM    8  C   UNL     1      63.492   5.739   6.178  1.00  0.00     0.040 A 
HETATM    9  C   UNL     1      66.713   8.213   6.107  1.00  0.00     0.202 C 
HETATM   10  C   UNL     1      66.642   7.133   7.169  1.00  0.00     0.202 C 
ENDROOT
BRANCH   1  11
HETATM   11  C   UNL     1      62.927   9.849   4.985  1.00  0.00     0.107 C 
HETATM   12  S   UNL     1      62.061  10.335   3.635  1.00  0.00    -0.060 SA
BRANCH  11  13
HETATM   13  N   UNL     1      63.463  10.835   5.773  1.00  0.00    -0.389 N 
HETATM   14  H   UNL     1      63.810  10.614   6.669  1.00  0.00     0.157 HD
HETATM   15  H   UNL     1      63.500  11.761   5.445  1.00  0.00     0.157 HD
ENDBRANCH  11  13
ENDBRANCH   1  11
TORSDOF 2
ENDMDL
MODEL 6
REMARK VINA RESULT:      -4.3      2.854      3.682
REMARK  2 active torsions:
REMARK  status: ('A' for Active; 'I' for Inactive)
REMARK    1  A    between atoms: C_1  and  C_3 
REMARK    2  A    between atoms: C_3  and  N_8 
ROOT
HETATM    1  C   UNL     1      63.217   7.711   3.217  1.00  0.00     0.038 A 
HETATM    2  C   UNL     1      63.149   8.895   3.978  1.00  0.00     0.115 A 
HETATM    3  C   UNL     1      64.140   9.165   4.939  1.00  0.00     0.103 A 
HETATM    4  O   UNL     1      62.102   9.765   3.770  1.00  0.00    -0.345 OA
HETATM    5  O   UNL     1      64.150  10.283   5.735  1.00  0.00    -0.346 OA
HETATM    6  C   UNL     1      64.293   6.831   3.435  1.00  0.00     0.017 A 
HETATM    7  C   UNL     1      65.282   7.118   4.380  1.00  0.00     0.004 A 
HETATM    8  C   UNL     1      65.207   8.286   5.129  1.00  0.00     0.040 A 
HETATM    9  C   UNL     1      62.360  11.066   4.308  1.00  0.00     0.202 C 
HETATM   10  C   UNL     1      62.890  10.955   5.724  1.00  0.00     0.202 C 
ENDROOT
BRANCH   1  11
HETATM   11  C   UNL     1      62.188   7.361   2.183  1.00  0.00     0.107 C 
HETATM   12  S   UNL     1      61.182   6.022   2.220  1.00  0.00    -0.060 SA
BRANCH  11  13
HETATM   13  N   UNL     1      62.052   8.217   1.121  1.00  0.00    -0.389 N 
HETATM   14  H   UNL     1      61.737   9.139   1.270  1.00  0.00     0.157 HD
HETATM   15  H   UNL     1      62.268   7.911   0.211  1.00  0.00     0.157 HD
ENDBRANCH  11  13
ENDBRANCH   1  11
TORSDOF 2
ENDMDL
MODEL 7
REMARK VINA RESULT:      -4.2      3.159      4.880
REMARK  2 active torsions:
REMARK  status: ('A' for Active; 'I' for Inactive)
REMARK    1  A    between atoms: C_1  and  C_3 
REMARK    2  A    between atoms: C_3  and  N_8 
ROOT
HETATM    1  C   UNL     1      65.016   7.113   5.348  1.00  0.00     0.038 A 
HETATM    2  C   UNL     1      65.793   6.625   6.417  1.00  0.00     0.115 A 
HETATM    3  C   UNL     1      66.949   5.869   6.152  1.00  0.00     0.103 A 
HETATM    4  O   UNL     1      65.396   6.892   7.709  1.00  0.00    -0.345 OA
HETATM    5  O   UNL     1      67.759   5.342   7.127  1.00  0.00    -0.346 OA
HETATM    6  C   UNL     1      65.433   6.838   4.032  1.00  0.00     0.017 A 
HETATM    7  C   UNL     1      66.593   6.101   3.780  1.00  0.00     0.004 A 
HETATM    8  C   UNL     1      67.352   5.620   4.841  1.00  0.00     0.040 A 
HETATM    9  C   UNL     1      66.449   6.684   8.656  1.00  0.00     0.202 C 
HETATM   10  C   UNL     1      67.125   5.349   8.407  1.00  0.00     0.202 C 
ENDROOT
BRANCH   1  11
HETATM   11  C   UNL     1      63.769   7.918   5.563  1.00  0.00     0.107 C 
HETATM   12  S   UNL     1      63.320   9.275   4.688  1.00  0.00    -0.060 SA
BRANCH  11  13
HETATM   13  N   UNL     1      62.919   7.502   6.554  1.00  0.00    -0.389 N 
HETATM   14  H   UNL     1      62.732   8.091   7.322  1.00  0.00     0.157 HD
HETATM   15  H   UNL     1      62.495   6.616   6.498  1.00  0.00     0.157 HD
ENDBRANCH  11  13
ENDBRANCH   1  11
TORSDOF 2
ENDMDL
MODEL 8
REMARK VINA RESULT:      -3.9      2.701      3.980
REMARK  2 active torsions:
REMARK  status: ('A' for Active; 'I' for Inactive)
REMARK    1  A    between atoms: C_1  and  C_3 
REMARK    2  A    between atoms: C_3  and  N_8 
ROOT
HETATM    1  C   UNL     1      63.814   6.944   3.702  1.00  0.00     0.038 A 
HETATM    2  C   UNL     1      64.793   7.278   4.660  1.00  0.00     0.115 A 
HETATM    3  C   UNL     1      64.768   8.544   5.271  1.00  0.00     0.103 A 
HETATM    4  O   UNL     1      65.764   6.353   4.973  1.00  0.00    -0.345 OA
HETATM    5  O   UNL     1      65.685   8.962   6.203  1.00  0.00    -0.346 OA
HETATM    6  C   UNL     1      62.823   7.895   3.392  1.00  0.00     0.017 A 
HETATM    7  C   UNL     1      62.799   9.143   4.019  1.00  0.00     0.004 A 
HETATM    8  C   UNL     1      63.769   9.466   4.960  1.00  0.00     0.040 A 
HETATM    9  C   UNL     1      66.433   6.661   6.201  1.00  0.00     0.202 C 
HETATM   10  C   UNL     1      66.840   8.121   6.227  1.00  0.00     0.202 C 
ENDROOT
BRANCH   1  11
HETATM   11  C   UNL     1      63.789   5.614   3.009  1.00  0.00     0.107 C 
HETATM   12  S   UNL     1      63.835   5.376   1.351  1.00  0.00    -0.060 SA
BRANCH  11  13
HETATM   13  N   UNL     1      63.735   4.497   3.801  1.00  0.00    -0.389 N 
HETATM   14  H   UNL     1      63.098   3.775   3.590  1.00  0.00     0.157 HD
HETATM   15  H   UNL     1      64.331   4.416   4.580  1.00  0.00     0.157 HD
ENDBRANCH  11  13
ENDBRANCH   1  11
TORSDOF 2
ENDMDL
MODEL 9
REMARK VINA RESULT:      -3.9      4.408      5.983
REMARK  2 active torsions:
REMARK  status: ('A' for Active; 'I' for Inactive)
REMARK    1  A    between atoms: C_1  and  C_3 
REMARK    2  A    between atoms: C_3  and  N_8 
ROOT
HETATM    1  C   UNL     1      67.062   4.124   7.943  1.00  0.00     0.038 A 
HETATM    2  C   UNL     1      66.109   4.980   7.354  1.00  0.00     0.115 A 
HETATM    3  C   UNL     1      66.058   6.333   7.733  1.00  0.00     0.103 A 
HETATM    4  O   UNL     1      65.236   4.466   6.419  1.00  0.00    -0.345 OA
HETATM    5  O   UNL     1      65.157   7.236   7.225  1.00  0.00    -0.346 OA
HETATM    6  C   UNL     1      67.951   4.660   8.893  1.00  0.00     0.017 A 
HETATM    7  C   UNL     1      67.902   6.010   9.249  1.00  0.00     0.004 A 
HETATM    8  C   UNL     1      66.957   6.846   8.666  1.00  0.00     0.040 A 
HETATM    9  C   UNL     1      64.608   5.490   5.641  1.00  0.00     0.202 C 
HETATM   10  C   UNL     1      64.081   6.589   6.544  1.00  0.00     0.202 C 
ENDROOT
BRANCH   1  11
HETATM   11  C   UNL     1      67.164   2.671   7.588  1.00  0.00     0.107 C 
HETATM   12  S   UNL     1      68.028   2.038   6.300  1.00  0.00    -0.060 SA
BRANCH  11  13
HETATM   13  N   UNL     1      66.501   1.782   8.394  1.00  0.00    -0.389 N 
HETATM   14  H   UNL     1      65.768   1.235   8.026  1.00  0.00     0.157 HD
HETATM   15  H   UNL     1      66.757   1.690   9.340  1.00  0.00     0.157 HD
ENDBRANCH  11  13
ENDBRANCH   1  11
TORSDOF 2
ENDMDL
