MODEL 1
REMARK VINA RESULT:      -5.0      0.000      0.000
REMARK  2 active torsions:
REMARK  status: ('A' for Active; 'I' for Inactive)
REMARK    1  A    between atoms: C_5  and  C_8 
REMARK    2  A    between atoms: N_7  and  C_8 
ROOT
HETATM    1  O   UNL     1      64.870   9.131   5.871  1.00  0.00    -0.339 OA
HETATM    2  O   UNL     1      64.084   7.447   3.637  1.00  0.00    -0.346 OA
HETATM    3  C   UNL     1      63.859   9.453   5.002  1.00  0.00     0.102 A 
HETATM    4  C   UNL     1      63.484   8.648   3.923  1.00  0.00     0.102 A 
HETATM    5  C   UNL     1      65.684   8.056   5.364  1.00  0.00     0.178 C 
HETATM    6  C   UNL     1      64.812   6.952   4.769  1.00  0.00     0.210 C 
HETATM    7  C   UNL     1      63.185  10.650   5.244  1.00  0.00     0.039 A 
HETATM    8  C   UNL     1      62.462   9.055   3.068  1.00  0.00     0.039 A 
HETATM    9  C   UNL     1      62.152  11.051   4.396  1.00  0.00     0.003 A 
HETATM   10  C   UNL     1      61.792  10.256   3.306  1.00  0.00     0.003 A 
ENDROOT
BRANCH   5  11
HETATM   11  C   UNL     1      66.575   7.539   6.509  1.00  0.00     0.264 C 
BRANCH  11  12
HETATM   12  N   UNL     1      67.077   8.604   7.384  1.00  0.00    -0.077 N 
HETATM   13  H   UNL     1      67.273   9.437   6.828  1.00  0.00     0.274 HD
HETATM   14  H   UNL     1      67.934   8.292   7.841  1.00  0.00     0.274 HD
HETATM   15  H   UNL     1      66.375   8.823   8.090  1.00  0.00     0.274 HD
ENDBRANCH  11  12
ENDBRANCH   5  11
TORSDOF 2
ENDMDL
MODEL 2
REMARK VINA RESULT:      -4.8      1.686      4.156
REMARK  2 active torsions:
REMARK  status: ('A' for Active; 'I' for Inactive)
REMARK    1  A    between atoms: C_5  and  C_8 
REMARK    2  A    between atoms: N_7  and  C_8 
ROOT
HETATM    1  O   UNL     1      64.945   9.249   5.634  1.00  0.00    -0.339 OA
HETATM    2  O   UNL     1      63.905   7.327   3.719  1.00  0.00    -0.346 OA
HETATM    3  C   UNL     1      65.630   8.128   5.241  1.00  0.00     0.102 A 
HETATM    4  C   UNL     1      65.129   7.199   4.325  1.00  0.00     0.102 A 
HETATM    5  C   UNL     1      63.558   9.187   5.247  1.00  0.00     0.178 C 
HETATM    6  C   UNL     1      63.420   8.673   3.815  1.00  0.00     0.210 C 
HETATM    7  C   UNL     1      66.896   7.942   5.798  1.00  0.00     0.039 A 
HETATM    8  C   UNL     1      65.875   6.069   3.994  1.00  0.00     0.039 A 
HETATM    9  C   UNL     1      67.649   6.819   5.455  1.00  0.00     0.003 A 
HETATM   10  C   UNL     1      67.139   5.881   4.555  1.00  0.00     0.003 A 
ENDROOT
BRANCH   5  11
HETATM   11  C   UNL     1      62.941  10.586   5.425  1.00  0.00     0.264 C 
BRANCH  11  12
HETATM   12  N   UNL     1      63.742  11.474   6.274  1.00  0.00    -0.077 N 
HETATM   13  H   UNL     1      63.564  12.445   6.014  1.00  0.00     0.274 HD
HETATM   14  H   UNL     1      64.731  11.264   6.148  1.00  0.00     0.274 HD
HETATM   15  H   UNL     1      63.485  11.332   7.251  1.00  0.00     0.274 HD
ENDBRANCH  11  12
ENDBRANCH   5  11
TORSDOF 2
ENDMDL
MODEL 3
REMARK VINA RESULT:      -4.5      1.273      2.398
REMARK  2 active torsions:
REMARK  status: ('A' for Active; 'I' for Inactive)
REMARK    1  A    between atoms: C_5  and  C_8 
REMARK    2  A    between atoms: N_7  and  C_8 
ROOT
HETATM    1  O   UNL     1      64.370   7.269   3.669  1.00  0.00    -0.339 OA
HETATM    2  O   UNL     1      65.006   9.044   5.880  1.00  0.00    -0.346 OA
HETATM    3  C   UNL     1      63.681   8.425   3.931  1.00  0.00     0.102 A 
HETATM    4  C   UNL     1      63.981   9.276   4.998  1.00  0.00     0.102 A 
HETATM    5  C   UNL     1      65.206   6.885   4.778  1.00  0.00     0.178 C 
HETATM    6  C   UNL     1      65.942   8.098   5.345  1.00  0.00     0.210 C 
HETATM    7  C   UNL     1      62.638   8.742   3.060  1.00  0.00     0.039 A 
HETATM    8  C   UNL     1      63.218  10.423   5.215  1.00  0.00     0.039 A 
HETATM    9  C   UNL     1      61.883   9.897   3.269  1.00  0.00     0.003 A 
HETATM   10  C   UNL     1      62.171  10.736   4.347  1.00  0.00     0.003 A 
ENDROOT
BRANCH   5  11
HETATM   11  C   UNL     1      66.175   5.788   4.300  1.00  0.00     0.264 C 
BRANCH  11  12
HETATM   12  N   UNL     1      67.586   6.174   4.394  1.00  0.00    -0.077 N 
HETATM   13  H   UNL     1      68.167   5.336   4.425  1.00  0.00     0.274 HD
HETATM   14  H   UNL     1      67.734   6.721   5.242  1.00  0.00     0.274 HD
HETATM   15  H   UNL     1      67.841   6.733   3.580  1.00  0.00     0.274 HD
ENDBRANCH  11  12
ENDBRANCH   5  11
TORSDOF 2
ENDMDL
MODEL 4
REMARK VINA RESULT:      -4.5      2.218      4.690
REMARK  2 active torsions:
REMARK  status: ('A' for Active; 'I' for Inactive)
REMARK    1  A    between atoms: C_5  and  C_8 
REMARK    2  A    between atoms: N_7  and  C_8 
ROOT
HETATM    1  O   UNL     1      64.801   8.934   4.787  1.00  0.00    -0.339 OA
HETATM    2  O   UNL     1      63.732   7.201   6.860  1.00  0.00    -0.346 OA
HETATM    3  C   UNL     1      65.545   7.978   5.430  1.00  0.00     0.102 A 
HETATM    4  C   UNL     1      65.035   7.149   6.432  1.00  0.00     0.102 A 
HETATM    5  C   UNL     1      63.559   9.189   5.471  1.00  0.00     0.178 C 
HETATM    6  C   UNL     1      62.903   7.880   5.908  1.00  0.00     0.210 C 
HETATM    7  C   UNL     1      66.876   7.849   5.030  1.00  0.00     0.039 A 
HETATM    8  C   UNL     1      65.861   6.217   7.058  1.00  0.00     0.039 A 
HETATM    9  C   UNL     1      67.699   6.906   5.647  1.00  0.00     0.003 A 
HETATM   10  C   UNL     1      67.194   6.092   6.662  1.00  0.00     0.003 A 
ENDROOT
BRANCH   5  11
HETATM   11  C   UNL     1      62.650  10.011   4.538  1.00  0.00     0.264 C 
BRANCH  11  12
HETATM   12  N   UNL     1      62.536  11.420   4.927  1.00  0.00    -0.077 N 
HETATM   13  H   UNL     1      63.193  11.978   4.381  1.00  0.00     0.274 HD
HETATM   14  H   UNL     1      62.750  11.518   5.919  1.00  0.00     0.274 HD
HETATM   15  H   UNL     1      61.586  11.745   4.750  1.00  0.00     0.274 HD
ENDBRANCH  11  12
ENDBRANCH   5  11
TORSDOF 2
ENDMDL
MODEL 5
REMARK VINA RESULT:      -4.2      2.420      4.881
REMARK  2 active torsions:
REMARK  status: ('A' for Active; 'I' for Inactive)
REMARK    1  A    between atoms: C_5  and  C_8 
REMARK    2  A    between atoms: N_7  and  C_8 
ROOT
HETATM    1  O   UNL     1      63.689   7.623   3.618  1.00  0.00    -0.339 OA
HETATM    2  O   UNL     1      64.908   9.312   5.644  1.00  0.00    -0.346 OA
HETATM    3  C   UNL     1      64.927   7.382   4.157  1.00  0.00     0.102 A 
HETATM    4  C   UNL     1      65.518   8.198   5.125  1.00  0.00     0.102 A 
HETATM    5  C   UNL     1      63.224   8.951   3.927  1.00  0.00     0.178 C 
HETATM    6  C   UNL     1      63.497   9.292   5.391  1.00  0.00     0.210 C 
HETATM    7  C   UNL     1      65.600   6.250   3.696  1.00  0.00     0.039 A 
HETATM    8  C   UNL     1      66.793   7.902   5.607  1.00  0.00     0.039 A 
HETATM    9  C   UNL     1      66.870   5.946   4.188  1.00  0.00     0.003 A 
HETATM   10  C   UNL     1      67.467   6.773   5.142  1.00  0.00     0.003 A 
ENDROOT
BRANCH   5  11
HETATM   11  C   UNL     1      61.726   9.034   3.580  1.00  0.00     0.264 C 
BRANCH  11  12
HETATM   12  N   UNL     1      61.364  10.247   2.841  1.00  0.00    -0.077 N 
HETATM   13  H   UNL     1      61.218  11.015   3.497  1.00  0.00     0.274 HD
HETATM   14  H   UNL     1      60.506  10.082   2.315  1.00  0.00     0.274 HD
HETATM   15  H   UNL     1      62.117  10.490   2.197  1.00  0.00     0.274 HD
ENDBRANCH  11  12
ENDBRANCH   5  11
TORSDOF 2
ENDMDL
MODEL 6
REMARK VINA RESULT:      -4.2      1.658      2.573
REMARK  2 active torsions:
REMARK  status: ('A' for Active; 'I' for Inactive)
REMARK    1  A    between atoms: C_5  and  C_8 
REMARK    2  A    between atoms: N_7  and  C_8 
ROOT
HETATM    1  O   UNL     1      64.658   6.300   6.294  1.00  0.00    -0.339 OA
HETATM    2  O   UNL     1      65.451   9.063   5.868  1.00  0.00    -0.346 OA
HETATM    3  C   UNL     1      63.898   7.205   5.598  1.00  0.00     0.102 A 
HETATM    4  C   UNL     1      64.275   8.536   5.398  1.00  0.00     0.102 A 
HETATM    5  C   UNL     1      65.703   6.950   7.045  1.00  0.00     0.178 C 
HETATM    6  C   UNL     1      66.384   8.026   6.202  1.00  0.00     0.210 C 
HETATM    7  C   UNL     1      62.697   6.734   5.067  1.00  0.00     0.039 A 
HETATM    8  C   UNL     1      63.436   9.403   4.699  1.00  0.00     0.039 A 
HETATM    9  C   UNL     1      61.865   7.599   4.355  1.00  0.00     0.003 A 
HETATM   10  C   UNL     1      62.232   8.934   4.174  1.00  0.00     0.003 A 
ENDROOT
BRANCH   5  11
HETATM   11  C   UNL     1      66.695   5.875   7.527  1.00  0.00     0.264 C 
BRANCH  11  12
HETATM   12  N   UNL     1      68.045   6.393   7.768  1.00  0.00    -0.077 N 
HETATM   13  H   UNL     1      68.439   5.943   8.596  1.00  0.00     0.274 HD
HETATM   14  H   UNL     1      68.001   7.401   7.918  1.00  0.00     0.274 HD
HETATM   15  H   UNL     1      68.635   6.194   6.961  1.00  0.00     0.274 HD
ENDBRANCH  11  12
ENDBRANCH   5  11
TORSDOF 2
ENDMDL
MODEL 7
REMARK VINA RESULT:      -4.1      2.539      3.346
REMARK  2 active torsions:
REMARK  status: ('A' for Active; 'I' for Inactive)
REMARK    1  A    between atoms: C_5  and  C_8 
REMARK    2  A    between atoms: N_7  and  C_8 
ROOT
HETATM    1  O   UNL     1      62.557   7.227   3.558  1.00  0.00    -0.339 OA
HETATM    2  O   UNL     1      62.810   9.203   5.673  1.00  0.00    -0.346 OA
HETATM    3  C   UNL     1      62.354   8.569   3.364  1.00  0.00     0.102 A 
HETATM    4  C   UNL     1      62.468   9.520   4.382  1.00  0.00     0.102 A 
HETATM    5  C   UNL     1      62.586   6.889   4.958  1.00  0.00     0.178 C 
HETATM    6  C   UNL     1      63.416   7.905   5.741  1.00  0.00     0.210 C 
HETATM    7  C   UNL     1      62.026   8.972   2.069  1.00  0.00     0.039 A 
HETATM    8  C   UNL     1      62.221  10.866   4.114  1.00  0.00     0.039 A 
HETATM    9  C   UNL     1      61.792  10.320   1.798  1.00  0.00     0.003 A 
HETATM   10  C   UNL     1      61.887  11.267   2.820  1.00  0.00     0.003 A 
ENDROOT
BRANCH   5  11
HETATM   11  C   UNL     1      63.134   5.458   5.102  1.00  0.00     0.264 C 
BRANCH  11  12
HETATM   12  N   UNL     1      63.165   4.715   3.838  1.00  0.00    -0.077 N 
HETATM   13  H   UNL     1      62.431   5.063   3.220  1.00  0.00     0.274 HD
HETATM   14  H   UNL     1      63.011   3.723   4.022  1.00  0.00     0.274 HD
HETATM   15  H   UNL     1      64.073   4.841   3.392  1.00  0.00     0.274 HD
ENDBRANCH  11  12
ENDBRANCH   5  11
TORSDOF 2
ENDMDL
MODEL 8
REMARK VINA RESULT:      -4.0      2.547      5.294
REMARK  2 active torsions:
REMARK  status: ('A' for Active; 'I' for Inactive)
REMARK    1  A    between atoms: C_5  and  C_8 
REMARK    2  A    between atoms: N_7  and  C_8 
ROOT
HETATM    1  O   UNL     1      64.340   7.270   7.039  1.00  0.00    -0.339 OA
HETATM    2  O   UNL     1      66.455   7.286   5.047  1.00  0.00    -0.346 OA
HETATM    3  C   UNL     1      65.588   6.747   7.259  1.00  0.00     0.102 A 
HETATM    4  C   UNL     1      66.604   6.747   6.299  1.00  0.00     0.102 A 
HETATM    5  C   UNL     1      64.108   7.522   5.640  1.00  0.00     0.178 C 
HETATM    6  C   UNL     1      65.331   8.176   4.999  1.00  0.00     0.210 C 
HETATM    7  C   UNL     1      65.824   6.201   8.521  1.00  0.00     0.039 A 
HETATM    8  C   UNL     1      67.841   6.172   6.589  1.00  0.00     0.039 A 
HETATM    9  C   UNL     1      67.066   5.639   8.816  1.00  0.00     0.003 A 
HETATM   10  C   UNL     1      68.074   5.622   7.850  1.00  0.00     0.003 A 
ENDROOT
BRANCH   5  11
HETATM   11  C   UNL     1      62.846   8.395   5.505  1.00  0.00     0.264 C 
BRANCH  11  12
HETATM   12  N   UNL     1      62.887   9.308   4.359  1.00  0.00    -0.077 N 
HETATM   13  H   UNL     1      63.087  10.254   4.685  1.00  0.00     0.274 HD
HETATM   14  H   UNL     1      61.985   9.297   3.883  1.00  0.00     0.274 HD
HETATM   15  H   UNL     1      63.617   9.010   3.713  1.00  0.00     0.274 HD
ENDBRANCH  11  12
ENDBRANCH   5  11
TORSDOF 2
ENDMDL
MODEL 9
REMARK VINA RESULT:      -3.8     13.325     14.110
REMARK  2 active torsions:
REMARK  status: ('A' for Active; 'I' for Inactive)
REMARK    1  A    between atoms: C_5  and  C_8 
REMARK    2  A    between atoms: N_7  and  C_8 
ROOT
HETATM    1  O   UNL     1      56.604   2.846  13.082  1.00  0.00    -0.339 OA
HETATM    2  O   UNL     1      55.958   0.315  14.355  1.00  0.00    -0.346 OA
HETATM    3  C   UNL     1      57.497   1.812  13.202  1.00  0.00     0.102 A 
HETATM    4  C   UNL     1      57.190   0.597  13.821  1.00  0.00     0.102 A 
HETATM    5  C   UNL     1      55.452   2.655  13.927  1.00  0.00     0.178 C 
HETATM    6  C   UNL     1      54.959   1.211  13.849  1.00  0.00     0.210 C 
HETATM    7  C   UNL     1      58.765   2.016  12.659  1.00  0.00     0.039 A 
HETATM    8  C   UNL     1      58.159  -0.399  13.927  1.00  0.00     0.039 A 
HETATM    9  C   UNL     1      59.731   1.013  12.753  1.00  0.00     0.003 A 
HETATM   10  C   UNL     1      59.430  -0.193  13.388  1.00  0.00     0.003 A 
ENDROOT
BRANCH   5  11
HETATM   11  C   UNL     1      54.367   3.663  13.504  1.00  0.00     0.264 C 
BRANCH  11  12
HETATM   12  N   UNL     1      54.247   4.807  14.414  1.00  0.00    -0.077 N 
HETATM   13  H   UNL     1      54.907   4.700  15.184  1.00  0.00     0.274 HD
HETATM   14  H   UNL     1      53.297   4.849  14.783  1.00  0.00     0.274 HD
HETATM   15  H   UNL     1      54.453   5.667  13.907  1.00  0.00     0.274 HD
ENDBRANCH  11  12
ENDBRANCH   5  11
TORSDOF 2
ENDMDL
