MODEL 1
REMARK VINA RESULT:      -5.2      0.000      0.000
REMARK  2 active torsions:
REMARK  status: ('A' for Active; 'I' for Inactive)
REMARK    1  A    between atoms: C_7  and  C_12 
REMARK    2  A    between atoms: O_9  and  C_12 
ROOT
HETATM    1  C   UNL     1      62.127   9.578   2.818  1.00  0.00     0.102 A 
HETATM    2  C   UNL     1      62.892   8.411   2.912  1.00  0.00     0.102 A 
HETATM    3  O   UNL     1      61.308   9.858   1.753  1.00  0.00    -0.346 OA
HETATM    4  C   UNL     1      62.178  10.533   3.834  1.00  0.00     0.049 A 
HETATM    5  O   UNL     1      62.911   7.445   1.939  1.00  0.00    -0.346 OA
HETATM    6  C   UNL     1      63.680   8.185   4.038  1.00  0.00     0.040 A 
HETATM    7  C   UNL     1      62.975  10.322   4.966  1.00  0.00    -0.032 A 
HETATM    8  C   UNL     1      63.721   9.134   5.062  1.00  0.00     0.012 A 
HETATM    9  C   UNL     1      61.068   8.691   0.960  1.00  0.00     0.202 C 
HETATM   10  C   UNL     1      62.358   7.930   0.710  1.00  0.00     0.202 C 
ENDROOT
BRANCH   7  11
HETATM   11  C   UNL     1      63.043  11.352   6.064  1.00  0.00     0.203 C 
BRANCH  11  12
HETATM   12  O   UNL     1      64.389  11.562   6.469  1.00  0.00    -0.396 OA
HETATM   13  H   UNL     1      64.419  12.262   7.139  1.00  0.00     0.209 HD
ENDBRANCH  11  12
ENDBRANCH   7  11
TORSDOF 2
ENDMDL
MODEL 2
REMARK VINA RESULT:      -5.0      0.930      2.097
REMARK  2 active torsions:
REMARK  status: ('A' for Active; 'I' for Inactive)
REMARK    1  A    between atoms: C_7  and  C_12 
REMARK    2  A    between atoms: O_9  and  C_12 
ROOT
HETATM    1  C   UNL     1      62.599   8.785   3.094  1.00  0.00     0.102 A 
HETATM    2  C   UNL     1      62.025   9.581   2.096  1.00  0.00     0.102 A 
HETATM    3  O   UNL     1      62.916   7.462   2.911  1.00  0.00    -0.346 OA
HETATM    4  C   UNL     1      62.868   9.324   4.352  1.00  0.00     0.049 A 
HETATM    5  O   UNL     1      61.709   9.109   0.848  1.00  0.00    -0.346 OA
HETATM    6  C   UNL     1      61.755  10.924   2.348  1.00  0.00     0.040 A 
HETATM    7  C   UNL     1      62.591  10.670   4.620  1.00  0.00    -0.032 A 
HETATM    8  C   UNL     1      62.038  11.468   3.603  1.00  0.00     0.012 A 
HETATM    9  C   UNL     1      62.923   7.114   1.523  1.00  0.00     0.202 C 
HETATM   10  C   UNL     1      61.702   7.677   0.817  1.00  0.00     0.202 C 
ENDROOT
BRANCH   7  11
HETATM   11  C   UNL     1      62.871  11.259   5.978  1.00  0.00     0.203 C 
BRANCH  11  12
HETATM   12  O   UNL     1      64.270  11.405   6.182  1.00  0.00    -0.396 OA
HETATM   13  H   UNL     1      64.747  11.048   5.418  1.00  0.00     0.209 HD
ENDBRANCH  11  12
ENDBRANCH   7  11
TORSDOF 2
ENDMDL
MODEL 3
REMARK VINA RESULT:      -4.8      2.346      4.217
REMARK  2 active torsions:
REMARK  status: ('A' for Active; 'I' for Inactive)
REMARK    1  A    between atoms: C_7  and  C_12 
REMARK    2  A    between atoms: O_9  and  C_12 
ROOT
HETATM    1  C   UNL     1      64.732   8.619   5.189  1.00  0.00     0.102 A 
HETATM    2  C   UNL     1      64.784   7.434   4.447  1.00  0.00     0.102 A 
HETATM    3  O   UNL     1      65.608   8.910   6.206  1.00  0.00    -0.346 OA
HETATM    4  C   UNL     1      63.750   9.572   4.919  1.00  0.00     0.049 A 
HETATM    5  O   UNL     1      65.703   6.443   4.679  1.00  0.00    -0.346 OA
HETATM    6  C   UNL     1      63.876   7.221   3.413  1.00  0.00     0.040 A 
HETATM    7  C   UNL     1      62.825   9.365   3.888  1.00  0.00    -0.032 A 
HETATM    8  C   UNL     1      62.902   8.182   3.132  1.00  0.00     0.012 A 
HETATM    9  C   UNL     1      66.752   8.052   6.169  1.00  0.00     0.202 C 
HETATM   10  C   UNL     1      66.339   6.606   5.951  1.00  0.00     0.202 C 
ENDROOT
BRANCH   7  11
HETATM   11  C   UNL     1      61.757  10.385   3.595  1.00  0.00     0.203 C 
BRANCH  11  12
HETATM   12  O   UNL     1      62.118  11.655   4.122  1.00  0.00    -0.396 OA
HETATM   13  H   UNL     1      62.382  12.242   3.397  1.00  0.00     0.209 HD
ENDBRANCH  11  12
ENDBRANCH   7  11
TORSDOF 2
ENDMDL
MODEL 4
REMARK VINA RESULT:      -4.5      2.316      4.259
REMARK  2 active torsions:
REMARK  status: ('A' for Active; 'I' for Inactive)
REMARK    1  A    between atoms: C_7  and  C_12 
REMARK    2  A    between atoms: O_9  and  C_12 
ROOT
HETATM    1  C   UNL     1      64.237   9.128   4.942  1.00  0.00     0.102 A 
HETATM    2  C   UNL     1      63.246   8.796   4.012  1.00  0.00     0.102 A 
HETATM    3  O   UNL     1      64.207  10.274   5.696  1.00  0.00    -0.346 OA
HETATM    4  C   UNL     1      65.330   8.283   5.133  1.00  0.00     0.049 A 
HETATM    5  O   UNL     1      62.161   9.593   3.753  1.00  0.00    -0.346 OA
HETATM    6  C   UNL     1      63.333   7.601   3.300  1.00  0.00     0.040 A 
HETATM    7  C   UNL     1      65.434   7.084   4.417  1.00  0.00    -0.032 A 
HETATM    8  C   UNL     1      64.420   6.747   3.502  1.00  0.00     0.012 A 
HETATM    9  C   UNL     1      62.909  10.877   5.677  1.00  0.00     0.202 C 
HETATM   10  C   UNL     1      62.351  10.917   4.264  1.00  0.00     0.202 C 
ENDROOT
BRANCH   7  11
HETATM   11  C   UNL     1      66.615   6.169   4.610  1.00  0.00     0.203 C 
BRANCH  11  12
HETATM   12  O   UNL     1      67.832   6.893   4.493  1.00  0.00    -0.396 OA
HETATM   13  H   UNL     1      67.929   7.489   5.252  1.00  0.00     0.209 HD
ENDBRANCH  11  12
ENDBRANCH   7  11
TORSDOF 2
ENDMDL
MODEL 5
REMARK VINA RESULT:      -4.3      1.978      4.643
REMARK  2 active torsions:
REMARK  status: ('A' for Active; 'I' for Inactive)
REMARK    1  A    between atoms: C_7  and  C_12 
REMARK    2  A    between atoms: O_9  and  C_12 
ROOT
HETATM    1  C   UNL     1      64.457   7.662   4.244  1.00  0.00     0.102 A 
HETATM    2  C   UNL     1      64.501   8.751   5.121  1.00  0.00     0.102 A 
HETATM    3  O   UNL     1      65.374   6.641   4.267  1.00  0.00    -0.346 OA
HETATM    4  C   UNL     1      63.454   7.579   3.279  1.00  0.00     0.049 A 
HETATM    5  O   UNL     1      65.475   8.911   6.073  1.00  0.00    -0.346 OA
HETATM    6  C   UNL     1      63.519   9.737   5.054  1.00  0.00     0.040 A 
HETATM    7  C   UNL     1      62.467   8.569   3.195  1.00  0.00    -0.032 A 
HETATM    8  C   UNL     1      62.505   9.647   4.098  1.00  0.00     0.012 A 
HETATM    9  C   UNL     1      66.130   6.646   5.482  1.00  0.00     0.202 C 
HETATM   10  C   UNL     1      66.593   8.051   5.827  1.00  0.00     0.202 C 
ENDROOT
BRANCH   7  11
HETATM   11  C   UNL     1      61.384   8.492   2.151  1.00  0.00     0.203 C 
BRANCH  11  12
HETATM   12  O   UNL     1      61.006   9.794   1.726  1.00  0.00    -0.396 OA
HETATM   13  H   UNL     1      60.225  10.083   2.222  1.00  0.00     0.209 HD
ENDBRANCH  11  12
ENDBRANCH   7  11
TORSDOF 2
ENDMDL
MODEL 6
REMARK VINA RESULT:      -4.3      4.790      6.087
REMARK  2 active torsions:
REMARK  status: ('A' for Active; 'I' for Inactive)
REMARK    1  A    between atoms: C_7  and  C_12 
REMARK    2  A    between atoms: O_9  and  C_12 
ROOT
HETATM    1  C   UNL     1      65.217   6.943   6.800  1.00  0.00     0.102 A 
HETATM    2  C   UNL     1      65.993   7.380   5.721  1.00  0.00     0.102 A 
HETATM    3  O   UNL     1      63.891   7.263   6.953  1.00  0.00    -0.346 OA
HETATM    4  C   UNL     1      65.786   6.149   7.796  1.00  0.00     0.049 A 
HETATM    5  O   UNL     1      65.506   8.185   4.724  1.00  0.00    -0.346 OA
HETATM    6  C   UNL     1      67.327   6.993   5.622  1.00  0.00     0.040 A 
HETATM    7  C   UNL     1      67.129   5.761   7.713  1.00  0.00    -0.032 A 
HETATM    8  C   UNL     1      67.894   6.186   6.612  1.00  0.00     0.012 A 
HETATM    9  C   UNL     1      63.335   7.772   5.736  1.00  0.00     0.202 C 
HETATM   10  C   UNL     1      64.264   8.791   5.100  1.00  0.00     0.202 C 
ENDROOT
BRANCH   7  11
HETATM   11  C   UNL     1      67.755   4.911   8.788  1.00  0.00     0.203 C 
BRANCH  11  12
HETATM   12  O   UNL     1      67.073   3.670   8.904  1.00  0.00    -0.396 OA
HETATM   13  H   UNL     1      67.017   3.418   9.838  1.00  0.00     0.209 HD
ENDBRANCH  11  12
ENDBRANCH   7  11
TORSDOF 2
ENDMDL
MODEL 7
REMARK VINA RESULT:      -4.0      2.023      3.007
REMARK  2 active torsions:
REMARK  status: ('A' for Active; 'I' for Inactive)
REMARK    1  A    between atoms: C_7  and  C_12 
REMARK    2  A    between atoms: O_9  and  C_12 
ROOT
HETATM    1  C   UNL     1      63.169   9.343   4.150  1.00  0.00     0.102 A 
HETATM    2  C   UNL     1      62.899   8.585   3.005  1.00  0.00     0.102 A 
HETATM    3  O   UNL     1      62.690  10.615   4.341  1.00  0.00    -0.346 OA
HETATM    4  C   UNL     1      63.968   8.818   5.166  1.00  0.00     0.049 A 
HETATM    5  O   UNL     1      62.146   9.050   1.958  1.00  0.00    -0.346 OA
HETATM    6  C   UNL     1      63.399   7.290   2.895  1.00  0.00     0.040 A 
HETATM    7  C   UNL     1      64.485   7.520   5.062  1.00  0.00    -0.032 A 
HETATM    8  C   UNL     1      64.187   6.758   3.918  1.00  0.00     0.012 A 
HETATM    9  C   UNL     1      61.629  10.915   3.428  1.00  0.00     0.202 C 
HETATM   10  C   UNL     1      61.984  10.471   2.019  1.00  0.00     0.202 C 
ENDROOT
BRANCH   7  11
HETATM   11  C   UNL     1      65.355   6.948   6.150  1.00  0.00     0.203 C 
BRANCH  11  12
HETATM   12  O   UNL     1      64.710   7.049   7.412  1.00  0.00    -0.396 OA
HETATM   13  H   UNL     1      64.091   6.310   7.519  1.00  0.00     0.209 HD
ENDBRANCH  11  12
ENDBRANCH   7  11
TORSDOF 2
ENDMDL
MODEL 8
REMARK VINA RESULT:      -4.0      4.738      6.618
REMARK  2 active torsions:
REMARK  status: ('A' for Active; 'I' for Inactive)
REMARK    1  A    between atoms: C_7  and  C_12 
REMARK    2  A    between atoms: O_9  and  C_12 
ROOT
HETATM    1  C   UNL     1      66.338   6.491   7.248  1.00  0.00     0.102 A 
HETATM    2  C   UNL     1      67.168   5.770   6.383  1.00  0.00     0.102 A 
HETATM    3  O   UNL     1      66.366   6.345   8.613  1.00  0.00    -0.346 OA
HETATM    4  C   UNL     1      65.415   7.404   6.737  1.00  0.00     0.049 A 
HETATM    5  O   UNL     1      68.075   4.837   6.815  1.00  0.00    -0.346 OA
HETATM    6  C   UNL     1      67.098   5.991   5.009  1.00  0.00     0.040 A 
HETATM    7  C   UNL     1      65.329   7.627   5.357  1.00  0.00    -0.032 A 
HETATM    8  C   UNL     1      66.185   6.916   4.497  1.00  0.00     0.012 A 
HETATM    9  C   UNL     1      67.550   5.664   9.040  1.00  0.00     0.202 C 
HETATM   10  C   UNL     1      67.821   4.449   8.169  1.00  0.00     0.202 C 
ENDROOT
BRANCH   7  11
HETATM   11  C   UNL     1      64.331   8.605   4.795  1.00  0.00     0.203 C 
BRANCH  11  12
HETATM   12  O   UNL     1      64.342   9.816   5.540  1.00  0.00    -0.396 OA
HETATM   13  H   UNL     1      64.624  10.545   4.967  1.00  0.00     0.209 HD
ENDBRANCH  11  12
ENDBRANCH   7  11
TORSDOF 2
ENDMDL
MODEL 9
REMARK VINA RESULT:      -3.9      2.685      3.432
REMARK  2 active torsions:
REMARK  status: ('A' for Active; 'I' for Inactive)
REMARK    1  A    between atoms: C_7  and  C_12 
REMARK    2  A    between atoms: O_9  and  C_12 
ROOT
HETATM    1  C   UNL     1      63.481   8.393   4.620  1.00  0.00     0.102 A 
HETATM    2  C   UNL     1      62.724   7.401   5.255  1.00  0.00     0.102 A 
HETATM    3  O   UNL     1      62.974   9.221   3.650  1.00  0.00    -0.346 OA
HETATM    4  C   UNL     1      64.823   8.572   4.956  1.00  0.00     0.049 A 
HETATM    5  O   UNL     1      61.410   7.151   4.954  1.00  0.00    -0.346 OA
HETATM    6  C   UNL     1      63.302   6.616   6.250  1.00  0.00     0.040 A 
HETATM    7  C   UNL     1      65.418   7.782   5.948  1.00  0.00    -0.032 A 
HETATM    8  C   UNL     1      64.642   6.805   6.597  1.00  0.00     0.012 A 
HETATM    9  C   UNL     1      61.543   9.187   3.631  1.00  0.00     0.202 C 
HETATM   10  C   UNL     1      61.033   7.758   3.713  1.00  0.00     0.202 C 
ENDROOT
BRANCH   7  11
HETATM   11  C   UNL     1      66.868   7.964   6.311  1.00  0.00     0.203 C 
BRANCH  11  12
HETATM   12  O   UNL     1      67.081   7.666   7.684  1.00  0.00    -0.396 OA
HETATM   13  H   UNL     1      66.239   7.726   8.162  1.00  0.00     0.209 HD
ENDBRANCH  11  12
ENDBRANCH   7  11
TORSDOF 2
ENDMDL
