MODEL 1
REMARK VINA RESULT:      -5.4      0.000      0.000
REMARK  2 active torsions:
REMARK  status: ('A' for Active; 'I' for Inactive)
REMARK    1  A    between atoms: C_2  and  C_6 
REMARK    2  A    between atoms: C_6  and  O_7 
ROOT
HETATM    1  C   UNL     1      63.454   9.227   4.753  1.00  0.00     0.110 A 
HETATM    2  C   UNL     1      62.867  10.491   4.915  1.00  0.00     0.001 A 
HETATM    3  C   UNL     1      63.226   8.489   3.582  1.00  0.00     0.102 A 
HETATM    4  O   UNL     1      64.237   8.755   5.778  1.00  0.00    -0.346 OA
HETATM    5  O   UNL     1      63.747   7.238   3.362  1.00  0.00    -0.346 OA
HETATM    6  C   UNL     1      62.071  11.004   3.875  1.00  0.00     0.012 A 
HETATM    7  C   UNL     1      61.865  10.275   2.703  1.00  0.00     0.003 A 
HETATM    8  C   UNL     1      62.446   9.018   2.555  1.00  0.00     0.040 A 
HETATM    9  C   UNL     1      65.046   7.648   5.366  1.00  0.00     0.202 C 
HETATM   10  C   UNL     1      64.225   6.648   4.574  1.00  0.00     0.202 C 
ENDROOT
BRANCH   2  11
HETATM   11  C   UNL     1      63.060  11.311   6.163  1.00  0.00     0.205 C 
BRANCH  11  12
HETATM   12  O   UNL     1      64.449  11.494   6.421  1.00  0.00    -0.396 OA
HETATM   13  H   UNL     1      64.829  10.663   6.746  1.00  0.00     0.209 HD
ENDBRANCH  11  12
ENDBRANCH   2  11
TORSDOF 2
ENDMDL
MODEL 2
REMARK VINA RESULT:      -4.6      1.950      2.550
REMARK  2 active torsions:
REMARK  status: ('A' for Active; 'I' for Inactive)
REMARK    1  A    between atoms: C_2  and  C_6 
REMARK    2  A    between atoms: C_6  and  O_7 
ROOT
HETATM    1  C   UNL     1      62.891   8.978   3.311  1.00  0.00     0.110 A 
HETATM    2  C   UNL     1      62.143   9.826   2.481  1.00  0.00     0.001 A 
HETATM    3  C   UNL     1      63.187   7.670   2.902  1.00  0.00     0.102 A 
HETATM    4  O   UNL     1      63.303   9.479   4.523  1.00  0.00    -0.346 OA
HETATM    5  O   UNL     1      63.893   6.777   3.669  1.00  0.00    -0.346 OA
HETATM    6  C   UNL     1      61.720   9.342   1.230  1.00  0.00     0.012 A 
HETATM    7  C   UNL     1      62.035   8.046   0.817  1.00  0.00     0.003 A 
HETATM    8  C   UNL     1      62.772   7.211   1.653  1.00  0.00     0.040 A 
HETATM    9  C   UNL     1      64.329   8.674   5.114  1.00  0.00     0.202 C 
HETATM   10  C   UNL     1      63.969   7.202   5.033  1.00  0.00     0.202 C 
ENDROOT
BRANCH   2  11
HETATM   11  C   UNL     1      61.778  11.229   2.885  1.00  0.00     0.205 C 
BRANCH  11  12
HETATM   12  O   UNL     1      62.090  12.140   1.835  1.00  0.00    -0.396 OA
HETATM   13  H   UNL     1      62.236  11.647   1.013  1.00  0.00     0.209 HD
ENDBRANCH  11  12
ENDBRANCH   2  11
TORSDOF 2
ENDMDL
MODEL 3
REMARK VINA RESULT:      -4.5      1.507      3.356
REMARK  2 active torsions:
REMARK  status: ('A' for Active; 'I' for Inactive)
REMARK    1  A    between atoms: C_2  and  C_6 
REMARK    2  A    between atoms: C_6  and  O_7 
ROOT
HETATM    1  C   UNL     1      63.688   9.197   4.647  1.00  0.00     0.110 A 
HETATM    2  C   UNL     1      64.539   8.091   4.508  1.00  0.00     0.001 A 
HETATM    3  C   UNL     1      62.504   9.276   3.898  1.00  0.00     0.102 A 
HETATM    4  O   UNL     1      64.065  10.182   5.528  1.00  0.00    -0.346 OA
HETATM    5  O   UNL     1      61.635  10.336   3.964  1.00  0.00    -0.346 OA
HETATM    6  C   UNL     1      64.169   7.063   3.622  1.00  0.00     0.012 A 
HETATM    7  C   UNL     1      62.980   7.136   2.894  1.00  0.00     0.003 A 
HETATM    8  C   UNL     1      62.146   8.242   3.034  1.00  0.00     0.040 A 
HETATM    9  C   UNL     1      62.981  11.061   5.844  1.00  0.00     0.202 C 
HETATM   10  C   UNL     1      62.240  11.473   4.585  1.00  0.00     0.202 C 
ENDROOT
BRANCH   2  11
HETATM   11  C   UNL     1      65.831   7.971   5.271  1.00  0.00     0.205 C 
BRANCH  11  12
HETATM   12  O   UNL     1      65.579   8.001   6.673  1.00  0.00    -0.396 OA
HETATM   13  H   UNL     1      66.225   7.439   7.129  1.00  0.00     0.209 HD
ENDBRANCH  11  12
ENDBRANCH   2  11
TORSDOF 2
ENDMDL
MODEL 4
REMARK VINA RESULT:      -4.5      1.391      3.216
REMARK  2 active torsions:
REMARK  status: ('A' for Active; 'I' for Inactive)
REMARK    1  A    between atoms: C_2  and  C_6 
REMARK    2  A    between atoms: C_6  and  O_7 
ROOT
HETATM    1  C   UNL     1      62.933   8.902   3.621  1.00  0.00     0.110 A 
HETATM    2  C   UNL     1      62.219   9.752   2.765  1.00  0.00     0.001 A 
HETATM    3  C   UNL     1      63.294   9.335   4.906  1.00  0.00     0.102 A 
HETATM    4  O   UNL     1      63.262   7.655   3.148  1.00  0.00    -0.346 OA
HETATM    5  O   UNL     1      64.012   8.569   5.790  1.00  0.00    -0.346 OA
HETATM    6  C   UNL     1      61.859  11.030   3.229  1.00  0.00     0.012 A 
HETATM    7  C   UNL     1      62.202  11.449   4.516  1.00  0.00     0.003 A 
HETATM    8  C   UNL     1      62.917  10.600   5.356  1.00  0.00     0.040 A 
HETATM    9  C   UNL     1      63.665   6.772   4.202  1.00  0.00     0.202 C 
HETATM   10  C   UNL     1      64.640   7.463   5.137  1.00  0.00     0.202 C 
ENDROOT
BRANCH   2  11
HETATM   11  C   UNL     1      61.830   9.344   1.369  1.00  0.00     0.205 C 
BRANCH  11  12
HETATM   12  O   UNL     1      60.451   8.988   1.327  1.00  0.00    -0.396 OA
HETATM   13  H   UNL     1      60.222   8.490   2.128  1.00  0.00     0.209 HD
ENDBRANCH  11  12
ENDBRANCH   2  11
TORSDOF 2
ENDMDL
MODEL 5
REMARK VINA RESULT:      -4.4      1.584      3.168
REMARK  2 active torsions:
REMARK  status: ('A' for Active; 'I' for Inactive)
REMARK    1  A    between atoms: C_2  and  C_6 
REMARK    2  A    between atoms: C_6  and  O_7 
ROOT
HETATM    1  C   UNL     1      62.650   8.784   3.440  1.00  0.00     0.110 A 
HETATM    2  C   UNL     1      63.123   9.020   4.739  1.00  0.00     0.001 A 
HETATM    3  C   UNL     1      62.015   9.808   2.722  1.00  0.00     0.102 A 
HETATM    4  O   UNL     1      62.830   7.525   2.918  1.00  0.00    -0.346 OA
HETATM    5  O   UNL     1      61.507   9.645   1.458  1.00  0.00    -0.346 OA
HETATM    6  C   UNL     1      62.963  10.304   5.291  1.00  0.00     0.012 A 
HETATM    7  C   UNL     1      62.348  11.326   4.566  1.00  0.00     0.003 A 
HETATM    8  C   UNL     1      61.877  11.078   3.280  1.00  0.00     0.040 A 
HETATM    9  C   UNL     1      62.636   7.501   1.500  1.00  0.00     0.202 C 
HETATM   10  C   UNL     1      61.380   8.262   1.117  1.00  0.00     0.202 C 
ENDROOT
BRANCH   2  11
HETATM   11  C   UNL     1      63.789   7.947   5.559  1.00  0.00     0.205 C 
BRANCH  11  12
HETATM   12  O   UNL     1      63.021   7.673   6.726  1.00  0.00    -0.396 OA
HETATM   13  H   UNL     1      62.465   8.441   6.935  1.00  0.00     0.209 HD
ENDBRANCH  11  12
ENDBRANCH   2  11
TORSDOF 2
ENDMDL
MODEL 6
REMARK VINA RESULT:      -4.4      1.850      4.085
REMARK  2 active torsions:
REMARK  status: ('A' for Active; 'I' for Inactive)
REMARK    1  A    between atoms: C_2  and  C_6 
REMARK    2  A    between atoms: C_6  and  O_7 
ROOT
HETATM    1  C   UNL     1      62.522   9.294   3.996  1.00  0.00     0.110 A 
HETATM    2  C   UNL     1      62.204   8.207   3.169  1.00  0.00     0.001 A 
HETATM    3  C   UNL     1      63.698   9.278   4.761  1.00  0.00     0.102 A 
HETATM    4  O   UNL     1      61.640  10.348   4.027  1.00  0.00    -0.346 OA
HETATM    5  O   UNL     1      64.063  10.294   5.610  1.00  0.00    -0.346 OA
HETATM    6  C   UNL     1      63.096   7.121   3.110  1.00  0.00     0.012 A 
HETATM    7  C   UNL     1      64.275   7.119   3.857  1.00  0.00     0.003 A 
HETATM    8  C   UNL     1      64.577   8.200   4.681  1.00  0.00     0.040 A 
HETATM    9  C   UNL     1      62.224  11.517   4.612  1.00  0.00     0.202 C 
HETATM   10  C   UNL     1      62.964  11.166   5.889  1.00  0.00     0.202 C 
ENDROOT
BRANCH   2  11
HETATM   11  C   UNL     1      60.943   8.165   2.348  1.00  0.00     0.205 C 
BRANCH  11  12
HETATM   12  O   UNL     1      60.831   9.345   1.558  1.00  0.00    -0.396 OA
HETATM   13  H   UNL     1      60.465   9.118   0.688  1.00  0.00     0.209 HD
ENDBRANCH  11  12
ENDBRANCH   2  11
TORSDOF 2
ENDMDL
MODEL 7
REMARK VINA RESULT:      -4.2      1.064      3.154
REMARK  2 active torsions:
REMARK  status: ('A' for Active; 'I' for Inactive)
REMARK    1  A    between atoms: C_2  and  C_6 
REMARK    2  A    between atoms: C_6  and  O_7 
ROOT
HETATM    1  C   UNL     1      63.452   8.565   4.043  1.00  0.00     0.110 A 
HETATM    2  C   UNL     1      62.337   8.997   3.309  1.00  0.00     0.001 A 
HETATM    3  C   UNL     1      63.995   9.381   5.047  1.00  0.00     0.102 A 
HETATM    4  O   UNL     1      63.979   7.336   3.731  1.00  0.00    -0.346 OA
HETATM    5  O   UNL     1      65.097   9.036   5.789  1.00  0.00    -0.346 OA
HETATM    6  C   UNL     1      61.770  10.247   3.618  1.00  0.00     0.012 A 
HETATM    7  C   UNL     1      62.301  11.046   4.632  1.00  0.00     0.003 A 
HETATM    8  C   UNL     1      63.412  10.611   5.349  1.00  0.00     0.040 A 
HETATM    9  C   UNL     1      64.865   6.859   4.750  1.00  0.00     0.202 C 
HETATM   10  C   UNL     1      65.817   7.956   5.189  1.00  0.00     0.202 C 
ENDROOT
BRANCH   2  11
HETATM   11  C   UNL     1      61.732   8.170   2.206  1.00  0.00     0.205 C 
BRANCH  11  12
HETATM   12  O   UNL     1      62.705   7.912   1.197  1.00  0.00    -0.396 OA
HETATM   13  H   UNL     1      63.104   8.748   0.911  1.00  0.00     0.209 HD
ENDBRANCH  11  12
ENDBRANCH   2  11
TORSDOF 2
ENDMDL
MODEL 8
REMARK VINA RESULT:      -4.2      2.988      4.899
REMARK  2 active torsions:
REMARK  status: ('A' for Active; 'I' for Inactive)
REMARK    1  A    between atoms: C_2  and  C_6 
REMARK    2  A    between atoms: C_6  and  O_7 
ROOT
HETATM    1  C   UNL     1      66.094   6.628   6.303  1.00  0.00     0.110 A 
HETATM    2  C   UNL     1      65.618   7.245   5.137  1.00  0.00     0.001 A 
HETATM    3  C   UNL     1      66.942   5.513   6.217  1.00  0.00     0.102 A 
HETATM    4  O   UNL     1      65.691   7.152   7.508  1.00  0.00    -0.346 OA
HETATM    5  O   UNL     1      67.428   4.844   7.312  1.00  0.00    -0.346 OA
HETATM    6  C   UNL     1      66.025   6.735   3.891  1.00  0.00     0.012 A 
HETATM    7  C   UNL     1      66.886   5.639   3.810  1.00  0.00     0.003 A 
HETATM    8  C   UNL     1      67.347   5.030   4.974  1.00  0.00     0.040 A 
HETATM    9  C   UNL     1      66.498   6.679   8.593  1.00  0.00     0.202 C 
HETATM   10  C   UNL     1      66.700   5.178   8.497  1.00  0.00     0.202 C 
ENDROOT
BRANCH   2  11
HETATM   11  C   UNL     1      64.687   8.427   5.177  1.00  0.00     0.205 C 
BRANCH  11  12
HETATM   12  O   UNL     1      65.272   9.488   5.925  1.00  0.00    -0.396 OA
HETATM   13  H   UNL     1      64.799  10.314   5.739  1.00  0.00     0.209 HD
ENDBRANCH  11  12
ENDBRANCH   2  11
TORSDOF 2
ENDMDL
MODEL 9
REMARK VINA RESULT:      -4.2      1.962      3.098
REMARK  2 active torsions:
REMARK  status: ('A' for Active; 'I' for Inactive)
REMARK    1  A    between atoms: C_2  and  C_6 
REMARK    2  A    between atoms: C_6  and  O_7 
ROOT
HETATM    1  C   UNL     1      62.747   8.747   2.937  1.00  0.00     0.110 A 
HETATM    2  C   UNL     1      62.265  10.062   3.016  1.00  0.00     0.001 A 
HETATM    3  C   UNL     1      63.311   8.133   4.066  1.00  0.00     0.102 A 
HETATM    4  O   UNL     1      62.650   8.107   1.725  1.00  0.00    -0.346 OA
HETATM    5  O   UNL     1      63.823   6.860   4.059  1.00  0.00    -0.346 OA
HETATM    6  C   UNL     1      62.341  10.736   4.248  1.00  0.00     0.012 A 
HETATM    7  C   UNL     1      62.884  10.113   5.374  1.00  0.00     0.003 A 
HETATM    8  C   UNL     1      63.366   8.810   5.283  1.00  0.00     0.040 A 
HETATM    9  C   UNL     1      62.840   6.694   1.850  1.00  0.00     0.202 C 
HETATM   10  C   UNL     1      64.041   6.389   2.726  1.00  0.00     0.202 C 
ENDROOT
BRANCH   2  11
HETATM   11  C   UNL     1      61.675  10.773   1.827  1.00  0.00     0.205 C 
BRANCH  11  12
HETATM   12  O   UNL     1      62.067  12.143   1.830  1.00  0.00    -0.396 OA
HETATM   13  H   UNL     1      61.999  12.500   0.931  1.00  0.00     0.209 HD
ENDBRANCH  11  12
ENDBRANCH   2  11
TORSDOF 2
ENDMDL
