MODEL 1
REMARK VINA RESULT:      -3.6      0.000      0.000
REMARK  2 active torsions:
REMARK  status: ('A' for Active; 'I' for Inactive)
REMARK    1  A    between atoms: C_1  and  C_7 
REMARK    2  A    between atoms: N_6  and  C_7 
ROOT
HETATM    1  C   UNL     1      61.932  10.126   2.390  1.00  0.00    -0.009 A 
HETATM    2  O   UNL     1      61.965  11.995   3.656  1.00  0.00    -0.334 OA
HETATM    3  C   UNL     1      61.746  11.494   2.413  1.00  0.00     0.150 A 
HETATM    4  C   UNL     1      62.287   9.777   3.727  1.00  0.00     0.035 A 
HETATM    5  C   UNL     1      62.295  10.946   4.451  1.00  0.00     0.142 A 
ENDROOT
BRANCH   1   6
HETATM    6  C   UNL     1      61.772   9.218   1.227  1.00  0.00     0.270 C 
BRANCH   6   7
HETATM    7  N   UNL     1      60.390   8.762   1.180  1.00  0.00    -0.075 N 
HETATM    8  H   UNL     1      60.239   8.059   1.904  1.00  0.00     0.274 HD
HETATM    9  H   UNL     1      60.198   8.354   0.265  1.00  0.00     0.274 HD
HETATM   10  H   UNL     1      59.766   9.553   1.338  1.00  0.00     0.274 HD
ENDBRANCH   6   7
ENDBRANCH   1   6
TORSDOF 2
ENDMDL
MODEL 2
REMARK VINA RESULT:      -3.5      2.124      2.793
REMARK  2 active torsions:
REMARK  status: ('A' for Active; 'I' for Inactive)
REMARK    1  A    between atoms: C_1  and  C_7 
REMARK    2  A    between atoms: N_6  and  C_7 
ROOT
HETATM    1  C   UNL     1      62.307   9.849   3.780  1.00  0.00    -0.009 A 
HETATM    2  O   UNL     1      61.890  12.035   3.403  1.00  0.00    -0.334 OA
HETATM    3  C   UNL     1      62.226  11.110   4.337  1.00  0.00     0.150 A 
HETATM    4  C   UNL     1      61.999  10.033   2.399  1.00  0.00     0.035 A 
HETATM    5  C   UNL     1      61.752  11.374   2.226  1.00  0.00     0.142 A 
ENDROOT
BRANCH   1   6
HETATM    6  C   UNL     1      62.662   8.584   4.469  1.00  0.00     0.270 C 
BRANCH   6   7
HETATM    7  N   UNL     1      63.663   8.874   5.486  1.00  0.00    -0.075 N 
HETATM    8  H   UNL     1      64.079   9.788   5.304  1.00  0.00     0.274 HD
HETATM    9  H   UNL     1      64.390   8.159   5.461  1.00  0.00     0.274 HD
HETATM   10  H   UNL     1      63.222   8.878   6.406  1.00  0.00     0.274 HD
ENDBRANCH   6   7
ENDBRANCH   1   6
TORSDOF 2
ENDMDL
MODEL 3
REMARK VINA RESULT:      -3.3      2.423      2.988
REMARK  2 active torsions:
REMARK  status: ('A' for Active; 'I' for Inactive)
REMARK    1  A    between atoms: C_1  and  C_7 
REMARK    2  A    between atoms: N_6  and  C_7 
ROOT
HETATM    1  C   UNL     1      62.787   9.512   4.306  1.00  0.00    -0.009 A 
HETATM    2  O   UNL     1      64.460   9.846   5.784  1.00  0.00    -0.334 OA
HETATM    3  C   UNL     1      63.302  10.344   5.280  1.00  0.00     0.150 A 
HETATM    4  C   UNL     1      63.708   8.426   4.220  1.00  0.00     0.035 A 
HETATM    5  C   UNL     1      64.703   8.680   5.134  1.00  0.00     0.142 A 
ENDROOT
BRANCH   1   6
HETATM    6  C   UNL     1      61.533   9.701   3.534  1.00  0.00     0.270 C 
BRANCH   6   7
HETATM    7  N   UNL     1      61.587  10.995   2.869  1.00  0.00    -0.075 N 
HETATM    8  H   UNL     1      61.199  11.711   3.485  1.00  0.00     0.274 HD
HETATM    9  H   UNL     1      61.044  10.958   2.007  1.00  0.00     0.274 HD
HETATM   10  H   UNL     1      62.557  11.225   2.651  1.00  0.00     0.274 HD
ENDBRANCH   6   7
ENDBRANCH   1   6
TORSDOF 2
ENDMDL
MODEL 4
REMARK VINA RESULT:      -3.1      1.998      2.126
REMARK  2 active torsions:
REMARK  status: ('A' for Active; 'I' for Inactive)
REMARK    1  A    between atoms: C_1  and  C_7 
REMARK    2  A    between atoms: N_6  and  C_7 
ROOT
HETATM    1  C   UNL     1      62.629   9.502   3.735  1.00  0.00    -0.009 A 
HETATM    2  O   UNL     1      62.076  11.546   4.517  1.00  0.00    -0.334 OA
HETATM    3  C   UNL     1      61.953  10.678   3.480  1.00  0.00     0.150 A 
HETATM    4  C   UNL     1      63.200   9.675   5.031  1.00  0.00     0.035 A 
HETATM    5  C   UNL     1      62.837  10.931   5.457  1.00  0.00     0.142 A 
ENDROOT
BRANCH   1   6
HETATM    6  C   UNL     1      62.718   8.309   2.857  1.00  0.00     0.270 C 
BRANCH   6   7
HETATM    7  N   UNL     1      63.769   7.437   3.362  1.00  0.00    -0.075 N 
HETATM    8  H   UNL     1      63.411   6.893   4.149  1.00  0.00     0.274 HD
HETATM    9  H   UNL     1      64.560   8.001   3.671  1.00  0.00     0.274 HD
HETATM   10  H   UNL     1      64.071   6.804   2.621  1.00  0.00     0.274 HD
ENDBRANCH   6   7
ENDBRANCH   1   6
TORSDOF 2
ENDMDL
MODEL 5
REMARK VINA RESULT:      -3.1      3.693      4.416
REMARK  2 active torsions:
REMARK  status: ('A' for Active; 'I' for Inactive)
REMARK    1  A    between atoms: C_1  and  C_7 
REMARK    2  A    between atoms: N_6  and  C_7 
ROOT
HETATM    1  C   UNL     1      63.357   9.572   4.823  1.00  0.00    -0.009 A 
HETATM    2  O   UNL     1      64.651   7.760   4.451  1.00  0.00    -0.334 OA
HETATM    3  C   UNL     1      64.494   8.883   5.196  1.00  0.00     0.150 A 
HETATM    4  C   UNL     1      62.783   8.797   3.771  1.00  0.00     0.035 A 
HETATM    5  C   UNL     1      63.608   7.714   3.584  1.00  0.00     0.142 A 
ENDROOT
BRANCH   1   6
HETATM    6  C   UNL     1      62.838  10.832   5.409  1.00  0.00     0.270 C 
BRANCH   6   7
HETATM    7  N   UNL     1      63.854  11.388   6.292  1.00  0.00    -0.075 N 
HETATM    8  H   UNL     1      64.042  10.731   7.050  1.00  0.00     0.274 HD
HETATM    9  H   UNL     1      63.520  12.269   6.681  1.00  0.00     0.274 HD
HETATM   10  H   UNL     1      64.710  11.551   5.763  1.00  0.00     0.274 HD
ENDBRANCH   6   7
ENDBRANCH   1   6
TORSDOF 2
ENDMDL
MODEL 6
REMARK VINA RESULT:      -3.0      2.413      3.087
REMARK  2 active torsions:
REMARK  status: ('A' for Active; 'I' for Inactive)
REMARK    1  A    between atoms: C_1  and  C_7 
REMARK    2  A    between atoms: N_6  and  C_7 
ROOT
HETATM    1  C   UNL     1      62.407   9.678   3.861  1.00  0.00    -0.009 A 
HETATM    2  O   UNL     1      61.738  11.170   2.305  1.00  0.00    -0.334 OA
HETATM    3  C   UNL     1      61.994  10.974   3.624  1.00  0.00     0.150 A 
HETATM    4  C   UNL     1      62.403   9.047   2.582  1.00  0.00     0.035 A 
HETATM    5  C   UNL     1      61.987   9.994   1.677  1.00  0.00     0.142 A 
ENDROOT
BRANCH   1   6
HETATM    6  C   UNL     1      62.793   9.084   5.165  1.00  0.00     0.270 C 
BRANCH   6   7
HETATM    7  N   UNL     1      64.210   9.335   5.389  1.00  0.00    -0.075 N 
HETATM    8  H   UNL     1      64.505   8.873   6.250  1.00  0.00     0.274 HD
HETATM    9  H   UNL     1      64.368  10.340   5.471  1.00  0.00     0.274 HD
HETATM   10  H   UNL     1      64.748   8.969   4.604  1.00  0.00     0.274 HD
ENDBRANCH   6   7
ENDBRANCH   1   6
TORSDOF 2
ENDMDL
MODEL 7
REMARK VINA RESULT:      -2.9      2.444      3.247
REMARK  2 active torsions:
REMARK  status: ('A' for Active; 'I' for Inactive)
REMARK    1  A    between atoms: C_1  and  C_7 
REMARK    2  A    between atoms: N_6  and  C_7 
ROOT
HETATM    1  C   UNL     1      62.454   9.556   3.212  1.00  0.00    -0.009 A 
HETATM    2  O   UNL     1      63.559   7.605   3.475  1.00  0.00    -0.334 OA
HETATM    3  C   UNL     1      63.280   8.812   4.031  1.00  0.00     0.150 A 
HETATM    4  C   UNL     1      62.215   8.728   2.075  1.00  0.00     0.035 A 
HETATM    5  C   UNL     1      62.910   7.561   2.284  1.00  0.00     0.142 A 
ENDROOT
BRANCH   1   6
HETATM    6  C   UNL     1      61.916  10.914   3.476  1.00  0.00     0.270 C 
BRANCH   6   7
HETATM    7  N   UNL     1      61.593  11.541   2.202  1.00  0.00    -0.075 N 
HETATM    8  H   UNL     1      60.584  11.678   2.136  1.00  0.00     0.274 HD
HETATM    9  H   UNL     1      61.905  10.941   1.439  1.00  0.00     0.274 HD
HETATM   10  H   UNL     1      62.064  12.444   2.139  1.00  0.00     0.274 HD
ENDBRANCH   6   7
ENDBRANCH   1   6
TORSDOF 2
ENDMDL
MODEL 8
REMARK VINA RESULT:      -2.8      6.606      7.301
REMARK  2 active torsions:
REMARK  status: ('A' for Active; 'I' for Inactive)
REMARK    1  A    between atoms: C_1  and  C_7 
REMARK    2  A    between atoms: N_6  and  C_7 
ROOT
HETATM    1  C   UNL     1      66.549   6.954   6.759  1.00  0.00    -0.009 A 
HETATM    2  O   UNL     1      65.752   8.921   5.989  1.00  0.00    -0.334 OA
HETATM    3  C   UNL     1      66.736   8.321   6.707  1.00  0.00     0.150 A 
HETATM    4  C   UNL     1      65.360   6.713   6.008  1.00  0.00     0.035 A 
HETATM    5  C   UNL     1      64.917   7.938   5.568  1.00  0.00     0.142 A 
ENDROOT
BRANCH   1   6
HETATM    6  C   UNL     1      67.415   5.955   7.432  1.00  0.00     0.270 C 
BRANCH   6   7
HETATM    7  N   UNL     1      67.930   6.539   8.662  1.00  0.00    -0.075 N 
HETATM    8  H   UNL     1      67.314   7.295   8.964  1.00  0.00     0.274 HD
HETATM    9  H   UNL     1      68.866   6.909   8.497  1.00  0.00     0.274 HD
HETATM   10  H   UNL     1      67.970   5.824   9.388  1.00  0.00     0.274 HD
ENDBRANCH   6   7
ENDBRANCH   1   6
TORSDOF 2
ENDMDL
MODEL 9
REMARK VINA RESULT:      -2.8     13.700     14.327
REMARK  2 active torsions:
REMARK  status: ('A' for Active; 'I' for Inactive)
REMARK    1  A    between atoms: C_1  and  C_7 
REMARK    2  A    between atoms: N_6  and  C_7 
ROOT
HETATM    1  C   UNL     1      56.990   2.075  13.284  1.00  0.00    -0.009 A 
HETATM    2  O   UNL     1      59.025   2.271  12.327  1.00  0.00    -0.334 OA
HETATM    3  C   UNL     1      57.691   2.456  12.157  1.00  0.00     0.150 A 
HETATM    4  C   UNL     1      57.983   1.630  14.206  1.00  0.00     0.035 A 
HETATM    5  C   UNL     1      59.197   1.766  13.575  1.00  0.00     0.142 A 
ENDROOT
BRANCH   1   6
HETATM    6  C   UNL     1      55.522   2.141  13.493  1.00  0.00     0.270 C 
BRANCH   6   7
HETATM    7  N   UNL     1      55.262   2.812  14.758  1.00  0.00    -0.075 N 
HETATM    8  H   UNL     1      54.317   3.198  14.751  1.00  0.00     0.274 HD
HETATM    9  H   UNL     1      55.936   3.566  14.888  1.00  0.00     0.274 HD
HETATM   10  H   UNL     1      55.349   2.142  15.522  1.00  0.00     0.274 HD
ENDBRANCH   6   7
ENDBRANCH   1   6
TORSDOF 2
ENDMDL
