MODEL 1
REMARK VINA RESULT:      -4.2      0.000      0.000
REMARK  1 active torsions:
REMARK  status: ('A' for Active; 'I' for Inactive)
REMARK    1  A    between atoms: C_1  and  C_3 
ROOT
HETATM    1  C   UNL     1      62.140   9.749   2.469  1.00  0.00     0.111 A 
HETATM    2  N   UNL     1      62.863   8.733   3.067  1.00  0.00    -0.356 N 
HETATM    3  C   UNL     1      61.695   9.234   1.254  1.00  0.00     0.038 A 
HETATM    4  C   UNL     1      62.863   7.618   2.261  1.00  0.00     0.091 A 
HETATM    5  C   UNL     1      62.146   7.904   1.127  1.00  0.00     0.020 A 
HETATM    6  C   UNL     1      63.553   8.755   4.340  1.00  0.00     0.156 C 
ENDROOT
BRANCH   1   7
HETATM    7  C   UNL     1      61.904  11.068   3.003  1.00  0.00     0.227 C 
HETATM    8  O   UNL     1      61.665  11.395   4.156  1.00  0.00    -0.643 OA
HETATM    9  O   UNL     1      61.971  12.011   2.038  1.00  0.00    -0.643 OA
ENDBRANCH   1   7
TORSDOF 1
ENDMDL
MODEL 2
REMARK VINA RESULT:      -4.1      2.132      3.028
REMARK  1 active torsions:
REMARK  status: ('A' for Active; 'I' for Inactive)
REMARK    1  A    between atoms: C_1  and  C_3 
ROOT
HETATM    1  C   UNL     1      62.671   9.789   4.098  1.00  0.00     0.111 A 
HETATM    2  N   UNL     1      62.574   9.076   2.917  1.00  0.00    -0.356 N 
HETATM    3  C   UNL     1      62.137  11.046   3.828  1.00  0.00     0.038 A 
HETATM    4  C   UNL     1      61.990   9.855   1.944  1.00  0.00     0.091 A 
HETATM    5  C   UNL     1      61.712  11.085   2.484  1.00  0.00     0.020 A 
HETATM    6  C   UNL     1      63.001   7.718   2.652  1.00  0.00     0.156 C 
ENDROOT
BRANCH   1   7
HETATM    7  C   UNL     1      63.218   9.316   5.346  1.00  0.00     0.227 C 
HETATM    8  O   UNL     1      62.801   8.431   6.078  1.00  0.00    -0.643 OA
HETATM    9  O   UNL     1      64.340   9.991   5.681  1.00  0.00    -0.643 OA
ENDBRANCH   1   7
TORSDOF 1
ENDMDL
MODEL 3
REMARK VINA RESULT:      -4.0      2.855      3.718
REMARK  1 active torsions:
REMARK  status: ('A' for Active; 'I' for Inactive)
REMARK    1  A    between atoms: C_1  and  C_3 
ROOT
HETATM    1  C   UNL     1      63.542   8.983   4.427  1.00  0.00     0.111 A 
HETATM    2  N   UNL     1      62.796  10.134   4.604  1.00  0.00    -0.356 N 
HETATM    3  C   UNL     1      63.049   8.384   3.271  1.00  0.00     0.038 A 
HETATM    4  C   UNL     1      61.875  10.258   3.589  1.00  0.00     0.091 A 
HETATM    5  C   UNL     1      62.010   9.181   2.749  1.00  0.00     0.020 A 
HETATM    6  C   UNL     1      62.896  11.113   5.667  1.00  0.00     0.156 C 
ENDROOT
BRANCH   1   7
HETATM    7  C   UNL     1      64.609   8.511   5.276  1.00  0.00     0.227 C 
HETATM    8  O   UNL     1      65.812   8.683   5.161  1.00  0.00    -0.643 OA
HETATM    9  O   UNL     1      64.131   7.789   6.314  1.00  0.00    -0.643 OA
ENDBRANCH   1   7
TORSDOF 1
ENDMDL
MODEL 4
REMARK VINA RESULT:      -3.9      1.541      2.552
REMARK  1 active torsions:
REMARK  status: ('A' for Active; 'I' for Inactive)
REMARK    1  A    between atoms: C_1  and  C_3 
ROOT
HETATM    1  C   UNL     1      62.390   9.936   3.526  1.00  0.00     0.111 A 
HETATM    2  N   UNL     1      62.037  10.431   2.285  1.00  0.00    -0.356 N 
HETATM    3  C   UNL     1      62.571   8.567   3.353  1.00  0.00     0.038 A 
HETATM    4  C   UNL     1      62.007   9.410   1.363  1.00  0.00     0.091 A 
HETATM    5  C   UNL     1      62.333   8.240   2.002  1.00  0.00     0.020 A 
HETATM    6  C   UNL     1      61.723  11.797   1.920  1.00  0.00     0.156 C 
ENDROOT
BRANCH   1   7
HETATM    7  C   UNL     1      62.536  10.695   4.745  1.00  0.00     0.227 C 
HETATM    8  O   UNL     1      62.114  11.810   5.008  1.00  0.00    -0.643 OA
HETATM    9  O   UNL     1      63.247  10.011   5.669  1.00  0.00    -0.643 OA
ENDBRANCH   1   7
TORSDOF 1
ENDMDL
MODEL 5
REMARK VINA RESULT:      -3.8      0.737      2.287
REMARK  1 active torsions:
REMARK  status: ('A' for Active; 'I' for Inactive)
REMARK    1  A    between atoms: C_1  and  C_3 
ROOT
HETATM    1  C   UNL     1      62.342   9.748   3.119  1.00  0.00     0.111 A 
HETATM    2  N   UNL     1      62.007   8.746   2.226  1.00  0.00    -0.356 N 
HETATM    3  C   UNL     1      63.088   9.132   4.120  1.00  0.00     0.038 A 
HETATM    4  C   UNL     1      62.534   7.546   2.648  1.00  0.00     0.091 A 
HETATM    5  C   UNL     1      63.208   7.759   3.824  1.00  0.00     0.020 A 
HETATM    6  C   UNL     1      61.223   8.850   1.014  1.00  0.00     0.156 C 
ENDROOT
BRANCH   1   7
HETATM    7  C   UNL     1      61.983  11.142   3.021  1.00  0.00     0.227 C 
HETATM    8  O   UNL     1      61.901  11.843   2.024  1.00  0.00    -0.643 OA
HETATM    9  O   UNL     1      61.717  11.669   4.237  1.00  0.00    -0.643 OA
ENDBRANCH   1   7
TORSDOF 1
ENDMDL
MODEL 6
REMARK VINA RESULT:      -3.7      6.113      7.557
REMARK  1 active torsions:
REMARK  status: ('A' for Active; 'I' for Inactive)
REMARK    1  A    between atoms: C_1  and  C_3 
ROOT
HETATM    1  C   UNL     1      66.780   6.753   7.398  1.00  0.00     0.111 A 
HETATM    2  N   UNL     1      67.412   5.613   6.935  1.00  0.00    -0.356 N 
HETATM    3  C   UNL     1      67.059   6.816   8.761  1.00  0.00     0.038 A 
HETATM    4  C   UNL     1      68.073   4.990   7.969  1.00  0.00     0.091 A 
HETATM    5  C   UNL     1      67.867   5.716   9.115  1.00  0.00     0.020 A 
HETATM    6  C   UNL     1      67.425   5.080   5.589  1.00  0.00     0.156 C 
ENDROOT
BRANCH   1   7
HETATM    7  C   UNL     1      65.994   7.678   6.618  1.00  0.00     0.227 C 
HETATM    8  O   UNL     1      66.373   8.607   5.923  1.00  0.00    -0.643 OA
HETATM    9  O   UNL     1      64.673   7.414   6.725  1.00  0.00    -0.643 OA
ENDBRANCH   1   7
TORSDOF 1
ENDMDL
MODEL 7
REMARK VINA RESULT:      -3.5      3.505      4.437
REMARK  1 active torsions:
REMARK  status: ('A' for Active; 'I' for Inactive)
REMARK    1  A    between atoms: C_1  and  C_3 
ROOT
HETATM    1  C   UNL     1      64.542   8.309   4.870  1.00  0.00     0.111 A 
HETATM    2  N   UNL     1      64.173   7.526   3.791  1.00  0.00    -0.356 N 
HETATM    3  C   UNL     1      63.598   9.329   4.941  1.00  0.00     0.038 A 
HETATM    4  C   UNL     1      63.031   8.032   3.213  1.00  0.00     0.091 A 
HETATM    5  C   UNL     1      62.655   9.154   3.907  1.00  0.00     0.020 A 
HETATM    6  C   UNL     1      64.830   6.343   3.275  1.00  0.00     0.156 C 
ENDROOT
BRANCH   1   7
HETATM    7  C   UNL     1      65.678   8.100   5.735  1.00  0.00     0.227 C 
HETATM    8  O   UNL     1      66.854   8.359   5.531  1.00  0.00    -0.643 OA
HETATM    9  O   UNL     1      65.308   7.539   6.908  1.00  0.00    -0.643 OA
ENDBRANCH   1   7
TORSDOF 1
ENDMDL
MODEL 8
REMARK VINA RESULT:      -3.5      6.206      7.304
REMARK  1 active torsions:
REMARK  status: ('A' for Active; 'I' for Inactive)
REMARK    1  A    between atoms: C_1  and  C_3 
ROOT
HETATM    1  C   UNL     1      66.824   6.333   6.740  1.00  0.00     0.111 A 
HETATM    2  N   UNL     1      67.292   5.870   7.956  1.00  0.00    -0.356 N 
HETATM    3  C   UNL     1      67.228   5.394   5.795  1.00  0.00     0.038 A 
HETATM    4  C   UNL     1      67.957   4.678   7.782  1.00  0.00     0.091 A 
HETATM    5  C   UNL     1      67.934   4.362   6.447  1.00  0.00     0.020 A 
HETATM    6  C   UNL     1      67.154   6.483   9.261  1.00  0.00     0.156 C 
ENDROOT
BRANCH   1   7
HETATM    7  C   UNL     1      66.073   7.544   6.511  1.00  0.00     0.227 C 
HETATM    8  O   UNL     1      66.467   8.620   6.090  1.00  0.00    -0.643 OA
HETATM    9  O   UNL     1      64.769   7.383   6.828  1.00  0.00    -0.643 OA
ENDBRANCH   1   7
TORSDOF 1
ENDMDL
MODEL 9
REMARK VINA RESULT:      -3.5      1.922      2.917
REMARK  1 active torsions:
REMARK  status: ('A' for Active; 'I' for Inactive)
REMARK    1  A    between atoms: C_1  and  C_3 
ROOT
HETATM    1  C   UNL     1      62.205   9.518   3.125  1.00  0.00     0.111 A 
HETATM    2  N   UNL     1      63.124   8.839   3.904  1.00  0.00    -0.356 N 
HETATM    3  C   UNL     1      61.943  10.709   3.796  1.00  0.00     0.038 A 
HETATM    4  C   UNL     1      63.436   9.584   5.019  1.00  0.00     0.091 A 
HETATM    5  C   UNL     1      62.713  10.749   4.977  1.00  0.00     0.020 A 
HETATM    6  C   UNL     1      63.716   7.540   3.665  1.00  0.00     0.156 C 
ENDROOT
BRANCH   1   7
HETATM    7  C   UNL     1      61.639   9.070   1.876  1.00  0.00     0.227 C 
HETATM    8  O   UNL     1      60.608   8.443   1.683  1.00  0.00    -0.643 OA
HETATM    9  O   UNL     1      62.411   9.432   0.827  1.00  0.00    -0.643 OA
ENDBRANCH   1   7
TORSDOF 1
ENDMDL
