MODEL 1
REMARK VINA RESULT:      -4.9      0.000      0.000
REMARK  3 active torsions:
REMARK  status: ('A' for Active; 'I' for Inactive)
REMARK    1  A    between atoms: C_1  and  C_6 
REMARK    2  A    between atoms: C_4  and  C_10 
REMARK    3  A    between atoms: N_9  and  C_10 
ROOT
HETATM    1  C   UNL     1      65.493   7.836   5.378  1.00  0.00     0.032 A 
HETATM    2  S   UNL     1      65.611   6.940   6.806  1.00  0.00    -0.091 SA
HETATM    3  C   UNL     1      66.728   7.813   4.739  1.00  0.00     0.022 A 
HETATM    4  C   UNL     1      67.228   6.504   6.589  1.00  0.00     0.009 A 
HETATM    5  C   UNL     1      67.695   7.081   5.427  1.00  0.00     0.017 A 
ENDROOT
BRANCH   1   6
HETATM    6  C   UNL     1      64.297   8.554   4.897  1.00  0.00     0.049 A 
HETATM    7  N   UNL     1      63.890   9.696   5.521  1.00  0.00    -0.365 N 
HETATM    8  C   UNL     1      62.826  10.418   5.075  1.00  0.00     0.088 A 
ATOM      9  HN  UNL     1      64.397  10.017   6.344  1.00  0.00     0.165 HD
HETATM   10  C   UNL     1      62.094   9.982   3.969  1.00  0.00     0.017 A 
HETATM   11  C   UNL     1      62.470   8.804   3.327  1.00  0.00     0.004 A 
HETATM   12  C   UNL     1      63.579   8.091   3.778  1.00  0.00     0.031 A 
ENDBRANCH   1   6
BRANCH   4  13
HETATM   13  C   UNL     1      68.053   5.633   7.484  1.00  0.00     0.275 C 
BRANCH  13  14
HETATM   14  N   UNL     1      68.075   6.194   8.833  1.00  0.00    -0.075 N 
HETATM   15  H   UNL     1      68.729   6.976   8.866  1.00  0.00     0.274 HD
HETATM   16  H   UNL     1      68.370   5.476   9.494  1.00  0.00     0.274 HD
HETATM   17  H   UNL     1      67.141   6.521   9.081  1.00  0.00     0.274 HD
ENDBRANCH  13  14
ENDBRANCH   4  13
TORSDOF 3
ENDMDL
MODEL 2
REMARK VINA RESULT:      -4.8      1.090      1.406
REMARK  3 active torsions:
REMARK  status: ('A' for Active; 'I' for Inactive)
REMARK    1  A    between atoms: C_1  and  C_6 
REMARK    2  A    between atoms: C_4  and  C_10 
REMARK    3  A    between atoms: N_9  and  C_10 
ROOT
HETATM    1  C   UNL     1      64.617   7.837   5.744  1.00  0.00     0.032 A 
HETATM    2  S   UNL     1      66.283   8.013   5.966  1.00  0.00    -0.091 SA
HETATM    3  C   UNL     1      64.229   6.608   6.268  1.00  0.00     0.022 A 
HETATM    4  C   UNL     1      66.497   6.535   6.753  1.00  0.00     0.009 A 
HETATM    5  C   UNL     1      65.285   5.880   6.815  1.00  0.00     0.017 A 
ENDROOT
BRANCH   1   6
HETATM    6  C   UNL     1      63.720   8.801   5.078  1.00  0.00     0.049 A 
HETATM    7  N   UNL     1      63.442   9.996   5.672  1.00  0.00    -0.365 N 
HETATM    8  C   UNL     1      62.665  10.936   5.067  1.00  0.00     0.088 A 
ATOM      9  HN  UNL     1      63.827  10.192   6.595  1.00  0.00     0.165 HD
HETATM   10  C   UNL     1      62.098  10.681   3.816  1.00  0.00     0.017 A 
HETATM   11  C   UNL     1      62.343   9.456   3.197  1.00  0.00     0.004 A 
HETATM   12  C   UNL     1      63.164   8.516   3.817  1.00  0.00     0.031 A 
ENDBRANCH   1   6
BRANCH   4  13
HETATM   13  C   UNL     1      67.775   5.989   7.311  1.00  0.00     0.275 C 
BRANCH  13  14
HETATM   14  N   UNL     1      67.978   6.500   8.665  1.00  0.00    -0.075 N 
HETATM   15  H   UNL     1      68.295   7.469   8.619  1.00  0.00     0.274 HD
HETATM   16  H   UNL     1      68.682   5.934   9.139  1.00  0.00     0.274 HD
HETATM   17  H   UNL     1      67.100   6.454   9.182  1.00  0.00     0.274 HD
ENDBRANCH  13  14
ENDBRANCH   4  13
TORSDOF 3
ENDMDL
MODEL 3
REMARK VINA RESULT:      -4.5      1.951      5.805
REMARK  3 active torsions:
REMARK  status: ('A' for Active; 'I' for Inactive)
REMARK    1  A    between atoms: C_1  and  C_6 
REMARK    2  A    between atoms: C_4  and  C_10 
REMARK    3  A    between atoms: N_9  and  C_10 
ROOT
HETATM    1  C   UNL     1      64.335   8.364   4.923  1.00  0.00     0.032 A 
HETATM    2  S   UNL     1      63.627   9.859   5.271  1.00  0.00    -0.091 SA
HETATM    3  C   UNL     1      63.760   7.865   3.759  1.00  0.00     0.022 A 
HETATM    4  C   UNL     1      62.612   9.875   3.922  1.00  0.00     0.009 A 
HETATM    5  C   UNL     1      62.790   8.705   3.214  1.00  0.00     0.017 A 
ENDROOT
BRANCH   1   6
HETATM    6  C   UNL     1      65.364   7.679   5.728  1.00  0.00     0.049 A 
HETATM    7  N   UNL     1      65.068   7.243   6.985  1.00  0.00    -0.365 N 
HETATM    8  C   UNL     1      65.970   6.558   7.740  1.00  0.00     0.088 A 
ATOM      9  HN  UNL     1      64.144   7.436   7.371  1.00  0.00     0.165 HD
HETATM   10  C   UNL     1      67.253   6.309   7.248  1.00  0.00     0.017 A 
HETATM   11  C   UNL     1      67.594   6.766   5.975  1.00  0.00     0.004 A 
HETATM   12  C   UNL     1      66.649   7.441   5.205  1.00  0.00     0.031 A 
ENDBRANCH   1   6
BRANCH   4  13
HETATM   13  C   UNL     1      61.664  10.962   3.522  1.00  0.00     0.275 C 
BRANCH  13  14
HETATM   14  N   UNL     1      61.637  11.080   2.066  1.00  0.00    -0.075 N 
HETATM   15  H   UNL     1      61.049  10.344   1.675  1.00  0.00     0.274 HD
HETATM   16  H   UNL     1      62.585  10.988   1.700  1.00  0.00     0.274 HD
HETATM   17  H   UNL     1      61.260  11.991   1.804  1.00  0.00     0.274 HD
ENDBRANCH  13  14
ENDBRANCH   4  13
TORSDOF 3
ENDMDL
MODEL 4
REMARK VINA RESULT:      -4.4      1.176      1.591
REMARK  3 active torsions:
REMARK  status: ('A' for Active; 'I' for Inactive)
REMARK    1  A    between atoms: C_1  and  C_6 
REMARK    2  A    between atoms: C_4  and  C_10 
REMARK    3  A    between atoms: N_9  and  C_10 
ROOT
HETATM    1  C   UNL     1      65.095   7.837   5.316  1.00  0.00     0.032 A 
HETATM    2  S   UNL     1      64.906   6.793   6.631  1.00  0.00    -0.091 SA
HETATM    3  C   UNL     1      66.449   7.925   5.013  1.00  0.00     0.022 A 
HETATM    4  C   UNL     1      66.548   6.436   6.790  1.00  0.00     0.009 A 
HETATM    5  C   UNL     1      67.256   7.153   5.849  1.00  0.00     0.017 A 
ENDROOT
BRANCH   1   6
HETATM    6  C   UNL     1      64.016   8.566   4.620  1.00  0.00     0.049 A 
HETATM    7  N   UNL     1      63.530   8.097   3.437  1.00  0.00    -0.365 N 
HETATM    8  C   UNL     1      62.499   8.708   2.790  1.00  0.00     0.088 A 
ATOM      9  HN  UNL     1      63.950   7.265   3.024  1.00  0.00     0.165 HD
HETATM   10  C   UNL     1      61.927   9.867   3.318  1.00  0.00     0.017 A 
HETATM   11  C   UNL     1      62.423  10.387   4.513  1.00  0.00     0.004 A 
HETATM   12  C   UNL     1      63.460   9.733   5.176  1.00  0.00     0.031 A 
ENDBRANCH   1   6
BRANCH   4  13
HETATM   13  C   UNL     1      67.174   5.498   7.775  1.00  0.00     0.275 C 
BRANCH  13  14
HETATM   14  N   UNL     1      66.130   4.812   8.533  1.00  0.00    -0.075 N 
HETATM   15  H   UNL     1      65.532   5.501   8.989  1.00  0.00     0.274 HD
HETATM   16  H   UNL     1      66.560   4.215   9.239  1.00  0.00     0.274 HD
HETATM   17  H   UNL     1      65.569   4.241   7.901  1.00  0.00     0.274 HD
ENDBRANCH  13  14
ENDBRANCH   4  13
TORSDOF 3
ENDMDL
MODEL 5
REMARK VINA RESULT:      -4.2      2.337      2.599
REMARK  3 active torsions:
REMARK  status: ('A' for Active; 'I' for Inactive)
REMARK    1  A    between atoms: C_1  and  C_6 
REMARK    2  A    between atoms: C_4  and  C_10 
REMARK    3  A    between atoms: N_9  and  C_10 
ROOT
HETATM    1  C   UNL     1      63.429   7.787   4.143  1.00  0.00     0.032 A 
HETATM    2  S   UNL     1      63.357   7.353   5.775  1.00  0.00    -0.091 SA
HETATM    3  C   UNL     1      64.209   6.852   3.472  1.00  0.00     0.022 A 
HETATM    4  C   UNL     1      64.299   5.961   5.612  1.00  0.00     0.009 A 
HETATM    5  C   UNL     1      64.704   5.845   4.300  1.00  0.00     0.017 A 
ENDROOT
BRANCH   1   6
HETATM    6  C   UNL     1      62.801   8.973   3.529  1.00  0.00     0.049 A 
HETATM    7  N   UNL     1      62.532  10.072   4.288  1.00  0.00    -0.365 N 
HETATM    8  C   UNL     1      62.005  11.207   3.751  1.00  0.00     0.088 A 
ATOM      9  HN  UNL     1      62.730  10.044   5.288  1.00  0.00     0.165 HD
HETATM   10  C   UNL     1      61.694  11.260   2.390  1.00  0.00     0.017 A 
HETATM   11  C   UNL     1      61.933  10.142   1.593  1.00  0.00     0.004 A 
HETATM   12  C   UNL     1      62.499   8.998   2.155  1.00  0.00     0.031 A 
ENDBRANCH   1   6
BRANCH   4  13
HETATM   13  C   UNL     1      64.655   4.984   6.690  1.00  0.00     0.275 C 
BRANCH  13  14
HETATM   14  N   UNL     1      65.649   5.576   7.582  1.00  0.00    -0.075 N 
HETATM   15  H   UNL     1      65.361   6.521   7.834  1.00  0.00     0.274 HD
HETATM   16  H   UNL     1      66.552   5.610   7.109  1.00  0.00     0.274 HD
HETATM   17  H   UNL     1      65.730   5.009   8.426  1.00  0.00     0.274 HD
ENDBRANCH  13  14
ENDBRANCH   4  13
TORSDOF 3
ENDMDL
MODEL 6
REMARK VINA RESULT:      -4.2      1.952      5.850
REMARK  3 active torsions:
REMARK  status: ('A' for Active; 'I' for Inactive)
REMARK    1  A    between atoms: C_1  and  C_6 
REMARK    2  A    between atoms: C_4  and  C_10 
REMARK    3  A    between atoms: N_9  and  C_10 
ROOT
HETATM    1  C   UNL     1      64.529   7.324   6.023  1.00  0.00     0.032 A 
HETATM    2  S   UNL     1      64.493   8.711   5.058  1.00  0.00    -0.091 SA
HETATM    3  C   UNL     1      63.247   6.788   6.074  1.00  0.00     0.022 A 
HETATM    4  C   UNL     1      62.850   8.606   4.687  1.00  0.00     0.009 A 
HETATM    5  C   UNL     1      62.312   7.516   5.339  1.00  0.00     0.017 A 
ENDROOT
BRANCH   1   6
HETATM    6  C   UNL     1      65.708   6.782   6.727  1.00  0.00     0.049 A 
HETATM    7  N   UNL     1      65.822   6.927   8.078  1.00  0.00    -0.365 N 
HETATM    8  C   UNL     1      66.864   6.395   8.773  1.00  0.00     0.088 A 
ATOM      9  HN  UNL     1      65.105   7.448   8.582  1.00  0.00     0.165 HD
HETATM   10  C   UNL     1      67.876   5.704   8.102  1.00  0.00     0.017 A 
HETATM   11  C   UNL     1      67.801   5.564   6.717  1.00  0.00     0.004 A 
HETATM   12  C   UNL     1      66.712   6.090   6.025  1.00  0.00     0.031 A 
ENDBRANCH   1   6
BRANCH   4  13
HETATM   13  C   UNL     1      62.068   9.521   3.797  1.00  0.00     0.275 C 
BRANCH  13  14
HETATM   14  N   UNL     1      60.802   8.889   3.431  1.00  0.00    -0.075 N 
HETATM   15  H   UNL     1      60.597   8.134   4.085  1.00  0.00     0.274 HD
HETATM   16  H   UNL     1      60.872   8.512   2.486  1.00  0.00     0.274 HD
HETATM   17  H   UNL     1      60.054   9.581   3.466  1.00  0.00     0.274 HD
ENDBRANCH  13  14
ENDBRANCH   4  13
TORSDOF 3
ENDMDL
MODEL 7
REMARK VINA RESULT:      -3.8      2.796      3.481
REMARK  3 active torsions:
REMARK  status: ('A' for Active; 'I' for Inactive)
REMARK    1  A    between atoms: C_1  and  C_6 
REMARK    2  A    between atoms: C_4  and  C_10 
REMARK    3  A    between atoms: N_9  and  C_10 
ROOT
HETATM    1  C   UNL     1      62.819   7.415   5.050  1.00  0.00     0.032 A 
HETATM    2  S   UNL     1      63.742   6.580   6.192  1.00  0.00    -0.091 SA
HETATM    3  C   UNL     1      63.600   8.432   4.510  1.00  0.00     0.022 A 
HETATM    4  C   UNL     1      65.140   7.501   5.974  1.00  0.00     0.009 A 
HETATM    5  C   UNL     1      64.888   8.483   5.041  1.00  0.00     0.017 A 
ENDROOT
BRANCH   1   6
HETATM    6  C   UNL     1      61.411   7.144   4.699  1.00  0.00     0.049 A 
HETATM    7  N   UNL     1      60.671   6.290   5.462  1.00  0.00    -0.365 N 
HETATM    8  C   UNL     1      59.355   6.055   5.207  1.00  0.00     0.088 A 
ATOM      9  HN  UNL     1      61.117   5.815   6.246  1.00  0.00     0.165 HD
HETATM   10  C   UNL     1      58.730   6.669   4.120  1.00  0.00     0.017 A 
HETATM   11  C   UNL     1      59.468   7.526   3.305  1.00  0.00     0.004 A 
HETATM   12  C   UNL     1      60.808   7.778   3.597  1.00  0.00     0.031 A 
ENDBRANCH   1   6
BRANCH   4  13
HETATM   13  C   UNL     1      66.459   7.310   6.657  1.00  0.00     0.275 C 
BRANCH  13  14
HETATM   14  N   UNL     1      66.952   8.597   7.142  1.00  0.00    -0.075 N 
HETATM   15  H   UNL     1      66.897   8.622   8.160  1.00  0.00     0.274 HD
HETATM   16  H   UNL     1      66.383   9.348   6.751  1.00  0.00     0.274 HD
HETATM   17  H   UNL     1      67.922   8.722   6.851  1.00  0.00     0.274 HD
ENDBRANCH  13  14
ENDBRANCH   4  13
TORSDOF 3
ENDMDL
MODEL 8
REMARK VINA RESULT:      -3.8     13.102     14.275
REMARK  3 active torsions:
REMARK  status: ('A' for Active; 'I' for Inactive)
REMARK    1  A    between atoms: C_1  and  C_6 
REMARK    2  A    between atoms: C_4  and  C_10 
REMARK    3  A    between atoms: N_9  and  C_10 
ROOT
HETATM    1  C   UNL     1      55.473   2.918  12.874  1.00  0.00     0.032 A 
HETATM    2  S   UNL     1      54.580   3.797  14.008  1.00  0.00    -0.091 SA
HETATM    3  C   UNL     1      54.672   2.692  11.761  1.00  0.00     0.022 A 
HETATM    4  C   UNL     1      53.186   3.908  13.063  1.00  0.00     0.009 A 
HETATM    5  C   UNL     1      53.392   3.233  11.879  1.00  0.00     0.017 A 
ENDROOT
BRANCH   1   6
HETATM    6  C   UNL     1      56.859   2.437  13.040  1.00  0.00     0.049 A 
HETATM    7  N   UNL     1      57.261   1.914  14.232  1.00  0.00    -0.365 N 
HETATM    8  C   UNL     1      58.512   1.408  14.410  1.00  0.00     0.088 A 
ATOM      9  HN  UNL     1      56.606   1.901  15.014  1.00  0.00     0.165 HD
HETATM   10  C   UNL     1      59.439   1.443  13.367  1.00  0.00     0.017 A 
HETATM   11  C   UNL     1      59.065   1.997  12.143  1.00  0.00     0.004 A 
HETATM   12  C   UNL     1      57.771   2.484  11.969  1.00  0.00     0.031 A 
ENDBRANCH   1   6
BRANCH   4  13
HETATM   13  C   UNL     1      51.915   4.618  13.414  1.00  0.00     0.275 C 
BRANCH  13  14
HETATM   14  N   UNL     1      51.932   4.988  14.828  1.00  0.00    -0.075 N 
HETATM   15  H   UNL     1      51.080   4.655  15.277  1.00  0.00     0.274 HD
HETATM   16  H   UNL     1      51.987   6.003  14.912  1.00  0.00     0.274 HD
HETATM   17  H   UNL     1      52.743   4.565  15.280  1.00  0.00     0.274 HD
ENDBRANCH  13  14
ENDBRANCH   4  13
TORSDOF 3
ENDMDL
MODEL 9
REMARK VINA RESULT:      -3.7      5.643      6.942
REMARK  3 active torsions:
REMARK  status: ('A' for Active; 'I' for Inactive)
REMARK    1  A    between atoms: C_1  and  C_6 
REMARK    2  A    between atoms: C_4  and  C_10 
REMARK    3  A    between atoms: N_9  and  C_10 
ROOT
HETATM    1  C   UNL     1      59.365   7.430   3.817  1.00  0.00     0.032 A 
HETATM    2  S   UNL     1      59.780   6.206   4.906  1.00  0.00    -0.091 SA
HETATM    3  C   UNL     1      57.995   7.652   3.903  1.00  0.00     0.022 A 
HETATM    4  C   UNL     1      58.216   5.983   5.501  1.00  0.00     0.009 A 
HETATM    5  C   UNL     1      57.358   6.831   4.833  1.00  0.00     0.017 A 
ENDROOT
BRANCH   1   6
HETATM    6  C   UNL     1      60.287   8.130   2.900  1.00  0.00     0.049 A 
HETATM    7  N   UNL     1      61.011   9.196   3.343  1.00  0.00    -0.365 N 
HETATM    8  C   UNL     1      61.912   9.834   2.547  1.00  0.00     0.088 A 
ATOM      9  HN  UNL     1      60.874   9.525   4.299  1.00  0.00     0.165 HD
HETATM   10  C   UNL     1      62.095   9.425   1.225  1.00  0.00     0.017 A 
HETATM   11  C   UNL     1      61.348   8.354   0.735  1.00  0.00     0.004 A 
HETATM   12  C   UNL     1      60.450   7.694   1.572  1.00  0.00     0.031 A 
ENDBRANCH   1   6
BRANCH   4  13
HETATM   13  C   UNL     1      57.790   5.036   6.579  1.00  0.00     0.275 C 
BRANCH  13  14
HETATM   14  N   UNL     1      57.996   5.655   7.887  1.00  0.00    -0.075 N 
HETATM   15  H   UNL     1      58.984   5.875   8.007  1.00  0.00     0.274 HD
HETATM   16  H   UNL     1      57.699   5.008   8.618  1.00  0.00     0.274 HD
HETATM   17  H   UNL     1      57.447   6.512   7.949  1.00  0.00     0.274 HD
ENDBRANCH  13  14
ENDBRANCH   4  13
TORSDOF 3
ENDMDL
