MODEL 1
REMARK VINA RESULT:      -3.8      0.000      0.000
REMARK  2 active torsions:
REMARK  status: ('A' for Active; 'I' for Inactive)
REMARK    1  A    between atoms: C_2  and  C_7 
REMARK    2  A    between atoms: N_6  and  C_7 
ROOT
HETATM    1  N   UNL     1      62.440   9.404   2.868  1.00  0.00    -0.363 N 
HETATM    2  C   UNL     1      62.399  10.315   3.901  1.00  0.00     0.036 A 
HETATM    3  C   UNL     1      61.994   9.999   1.712  1.00  0.00     0.090 A 
HETATM    4  C   UNL     1      61.674  11.305   1.995  1.00  0.00     0.019 A 
HETATM    5  C   UNL     1      61.930  11.507   3.370  1.00  0.00     0.028 A 
HETATM    6  C   UNL     1      62.870   8.024   2.925  1.00  0.00     0.155 C 
ENDROOT
BRANCH   2   7
HETATM    7  C   UNL     1      62.820  10.022   5.300  1.00  0.00     0.286 C 
BRANCH   7   8
HETATM    8  N   UNL     1      63.344  11.226   5.929  1.00  0.00    -0.074 N 
HETATM    9  H   UNL     1      63.254  12.012   5.284  1.00  0.00     0.274 HD
HETATM   10  H   UNL     1      64.327  11.088   6.161  1.00  0.00     0.274 HD
HETATM   11  H   UNL     1      62.817  11.422   6.780  1.00  0.00     0.274 HD
ENDBRANCH   7   8
ENDBRANCH   2   7
TORSDOF 2
ENDMDL
MODEL 2
REMARK VINA RESULT:      -3.3      1.394      3.024
REMARK  2 active torsions:
REMARK  status: ('A' for Active; 'I' for Inactive)
REMARK    1  A    between atoms: C_2  and  C_7 
REMARK    2  A    between atoms: N_6  and  C_7 
ROOT
HETATM    1  N   UNL     1      62.866   9.086   3.691  1.00  0.00    -0.363 N 
HETATM    2  C   UNL     1      62.176   9.886   2.806  1.00  0.00     0.036 A 
HETATM    3  C   UNL     1      63.045   9.758   4.877  1.00  0.00     0.090 A 
HETATM    4  C   UNL     1      62.457  10.995   4.763  1.00  0.00     0.019 A 
HETATM    5  C   UNL     1      61.909  11.077   3.464  1.00  0.00     0.028 A 
HETATM    6  C   UNL     1      63.356   7.743   3.468  1.00  0.00     0.155 C 
ENDROOT
BRANCH   2   7
HETATM    7  C   UNL     1      61.795   9.481   1.424  1.00  0.00     0.286 C 
BRANCH   7   8
HETATM    8  N   UNL     1      60.470   8.876   1.426  1.00  0.00    -0.074 N 
HETATM    9  H   UNL     1      59.900   9.313   2.151  1.00  0.00     0.274 HD
HETATM   10  H   UNL     1      60.552   7.878   1.614  1.00  0.00     0.274 HD
HETATM   11  H   UNL     1      60.031   9.017   0.516  1.00  0.00     0.274 HD
ENDBRANCH   7   8
ENDBRANCH   2   7
TORSDOF 2
ENDMDL
MODEL 3
REMARK VINA RESULT:      -3.3      1.652      2.138
REMARK  2 active torsions:
REMARK  status: ('A' for Active; 'I' for Inactive)
REMARK    1  A    between atoms: C_2  and  C_7 
REMARK    2  A    between atoms: N_6  and  C_7 
ROOT
HETATM    1  N   UNL     1      62.563   9.430   3.439  1.00  0.00    -0.363 N 
HETATM    2  C   UNL     1      63.179   9.299   4.666  1.00  0.00     0.036 A 
HETATM    3  C   UNL     1      61.974  10.668   3.350  1.00  0.00     0.090 A 
HETATM    4  C   UNL     1      62.220  11.348   4.519  1.00  0.00     0.019 A 
HETATM    5  C   UNL     1      62.978  10.490   5.347  1.00  0.00     0.028 A 
HETATM    6  C   UNL     1      62.506   8.454   2.373  1.00  0.00     0.155 C 
ENDROOT
BRANCH   2   7
HETATM    7  C   UNL     1      63.927   8.089   5.108  1.00  0.00     0.286 C 
BRANCH   7   8
HETATM    8  N   UNL     1      63.543   7.731   6.466  1.00  0.00    -0.074 N 
HETATM    9  H   UNL     1      64.012   8.353   7.126  1.00  0.00     0.274 HD
HETATM   10  H   UNL     1      63.818   6.768   6.654  1.00  0.00     0.274 HD
HETATM   11  H   UNL     1      62.533   7.824   6.570  1.00  0.00     0.274 HD
ENDBRANCH   7   8
ENDBRANCH   2   7
TORSDOF 2
ENDMDL
MODEL 4
REMARK VINA RESULT:      -3.2      1.228      2.289
REMARK  2 active torsions:
REMARK  status: ('A' for Active; 'I' for Inactive)
REMARK    1  A    between atoms: C_2  and  C_7 
REMARK    2  A    between atoms: N_6  and  C_7 
ROOT
HETATM    1  N   UNL     1      62.156  10.320   3.223  1.00  0.00    -0.363 N 
HETATM    2  C   UNL     1      62.612   9.088   3.638  1.00  0.00     0.036 A 
HETATM    3  C   UNL     1      61.925  10.294   1.868  1.00  0.00     0.090 A 
HETATM    4  C   UNL     1      62.222   9.034   1.406  1.00  0.00     0.019 A 
HETATM    5  C   UNL     1      62.653   8.274   2.516  1.00  0.00     0.028 A 
HETATM    6  C   UNL     1      61.936  11.498   4.034  1.00  0.00     0.155 C 
ENDROOT
BRANCH   2   7
HETATM    7  C   UNL     1      62.956   8.748   5.047  1.00  0.00     0.286 C 
BRANCH   7   8
HETATM    8  N   UNL     1      64.333   9.125   5.332  1.00  0.00    -0.074 N 
HETATM    9  H   UNL     1      64.413   9.405   6.310  1.00  0.00     0.274 HD
HETATM   10  H   UNL     1      64.603   9.904   4.733  1.00  0.00     0.274 HD
HETATM   11  H   UNL     1      64.947   8.330   5.155  1.00  0.00     0.274 HD
ENDBRANCH   7   8
ENDBRANCH   2   7
TORSDOF 2
ENDMDL
MODEL 5
REMARK VINA RESULT:      -3.1     12.844     13.954
REMARK  2 active torsions:
REMARK  status: ('A' for Active; 'I' for Inactive)
REMARK    1  A    between atoms: C_2  and  C_7 
REMARK    2  A    between atoms: N_6  and  C_7 
ROOT
HETATM    1  N   UNL     1      57.462   2.105  12.292  1.00  0.00    -0.363 N 
HETATM    2  C   UNL     1      57.027   1.759  13.553  1.00  0.00     0.036 A 
HETATM    3  C   UNL     1      58.836   2.090  12.259  1.00  0.00     0.090 A 
HETATM    4  C   UNL     1      59.292   1.721  13.502  1.00  0.00     0.019 A 
HETATM    5  C   UNL     1      58.157   1.511  14.316  1.00  0.00     0.028 A 
HETATM    6  C   UNL     1      56.653   2.444  11.141  1.00  0.00     0.155 C 
ENDROOT
BRANCH   2   7
HETATM    7  C   UNL     1      55.595   1.662  13.952  1.00  0.00     0.286 C 
BRANCH   7   8
HETATM    8  N   UNL     1      55.205   2.841  14.713  1.00  0.00    -0.074 N 
HETATM    9  H   UNL     1      55.387   2.680  15.705  1.00  0.00     0.274 HD
HETATM   10  H   UNL     1      54.212   3.023  14.574  1.00  0.00     0.274 HD
HETATM   11  H   UNL     1      55.747   3.646  14.395  1.00  0.00     0.274 HD
ENDBRANCH   7   8
ENDBRANCH   2   7
TORSDOF 2
ENDMDL
MODEL 6
REMARK VINA RESULT:      -3.0      2.120      3.084
REMARK  2 active torsions:
REMARK  status: ('A' for Active; 'I' for Inactive)
REMARK    1  A    between atoms: C_2  and  C_7 
REMARK    2  A    between atoms: N_6  and  C_7 
ROOT
HETATM    1  N   UNL     1      61.015   8.140   2.322  1.00  0.00    -0.363 N 
HETATM    2  C   UNL     1      61.742   9.271   2.019  1.00  0.00     0.036 A 
HETATM    3  C   UNL     1      61.071   7.261   1.266  1.00  0.00     0.090 A 
HETATM    4  C   UNL     1      61.847   7.821   0.280  1.00  0.00     0.019 A 
HETATM    5  C   UNL     1      62.271   9.084   0.751  1.00  0.00     0.028 A 
HETATM    6  C   UNL     1      60.283   7.861   3.538  1.00  0.00     0.155 C 
ENDROOT
BRANCH   2   7
HETATM    7  C   UNL     1      61.910  10.434   2.935  1.00  0.00     0.286 C 
BRANCH   7   8
HETATM    8  N   UNL     1      61.599  11.673   2.236  1.00  0.00    -0.074 N 
HETATM    9  H   UNL     1      60.935  11.480   1.484  1.00  0.00     0.274 HD
HETATM   10  H   UNL     1      62.453  12.065   1.843  1.00  0.00     0.274 HD
HETATM   11  H   UNL     1      61.187  12.338   2.890  1.00  0.00     0.274 HD
ENDBRANCH   7   8
ENDBRANCH   2   7
TORSDOF 2
ENDMDL
MODEL 7
REMARK VINA RESULT:      -3.0      1.430      3.810
REMARK  2 active torsions:
REMARK  status: ('A' for Active; 'I' for Inactive)
REMARK    1  A    between atoms: C_2  and  C_7 
REMARK    2  A    between atoms: N_6  and  C_7 
ROOT
HETATM    1  N   UNL     1      62.597   9.686   3.681  1.00  0.00    -0.363 N 
HETATM    2  C   UNL     1      62.465   8.882   2.569  1.00  0.00     0.036 A 
HETATM    3  C   UNL     1      63.363   9.044   4.625  1.00  0.00     0.090 A 
HETATM    4  C   UNL     1      63.738   7.824   4.116  1.00  0.00     0.019 A 
HETATM    5  C   UNL     1      63.177   7.720   2.825  1.00  0.00     0.028 A 
HETATM    6  C   UNL     1      62.039  11.005   3.887  1.00  0.00     0.155 C 
ENDROOT
BRANCH   2   7
HETATM    7  C   UNL     1      61.707   9.258   1.343  1.00  0.00     0.286 C 
BRANCH   7   8
HETATM    8  N   UNL     1      60.334   8.782   1.436  1.00  0.00    -0.074 N 
HETATM    9  H   UNL     1      59.963   8.632   0.497  1.00  0.00     0.274 HD
HETATM   10  H   UNL     1      59.765   9.477   1.919  1.00  0.00     0.274 HD
HETATM   11  H   UNL     1      60.313   7.904   1.955  1.00  0.00     0.274 HD
ENDBRANCH   7   8
ENDBRANCH   2   7
TORSDOF 2
ENDMDL
MODEL 8
REMARK VINA RESULT:      -3.0      6.471      7.928
REMARK  2 active torsions:
REMARK  status: ('A' for Active; 'I' for Inactive)
REMARK    1  A    between atoms: C_2  and  C_7 
REMARK    2  A    between atoms: N_6  and  C_7 
ROOT
HETATM    1  N   UNL     1      66.650   4.806   7.829  1.00  0.00    -0.363 N 
HETATM    2  C   UNL     1      66.231   6.119   7.859  1.00  0.00     0.036 A 
HETATM    3  C   UNL     1      67.716   4.643   8.681  1.00  0.00     0.090 A 
HETATM    4  C   UNL     1      67.981   5.855   9.274  1.00  0.00     0.019 A 
HETATM    5  C   UNL     1      67.048   6.783   8.760  1.00  0.00     0.028 A 
HETATM    6  C   UNL     1      66.100   3.722   7.045  1.00  0.00     0.155 C 
ENDROOT
BRANCH   2   7
HETATM    7  C   UNL     1      65.090   6.656   7.066  1.00  0.00     0.286 C 
BRANCH   7   8
HETATM    8  N   UNL     1      65.472   7.906   6.422  1.00  0.00    -0.074 N 
HETATM    9  H   UNL     1      66.169   7.716   5.701  1.00  0.00     0.274 HD
HETATM   10  H   UNL     1      65.865   8.540   7.116  1.00  0.00     0.274 HD
HETATM   11  H   UNL     1      64.649   8.334   5.996  1.00  0.00     0.274 HD
ENDBRANCH   7   8
ENDBRANCH   2   7
TORSDOF 2
ENDMDL
MODEL 9
REMARK VINA RESULT:      -2.9      4.004      5.479
REMARK  2 active torsions:
REMARK  status: ('A' for Active; 'I' for Inactive)
REMARK    1  A    between atoms: C_2  and  C_7 
REMARK    2  A    between atoms: N_6  and  C_7 
ROOT
HETATM    1  N   UNL     1      64.720   6.808   6.552  1.00  0.00    -0.363 N 
HETATM    2  C   UNL     1      65.241   7.913   5.913  1.00  0.00     0.036 A 
HETATM    3  C   UNL     1      65.641   6.318   7.448  1.00  0.00     0.090 A 
HETATM    4  C   UNL     1      66.758   7.117   7.397  1.00  0.00     0.019 A 
HETATM    5  C   UNL     1      66.508   8.121   6.435  1.00  0.00     0.028 A 
HETATM    6  C   UNL     1      63.420   6.206   6.354  1.00  0.00     0.155 C 
ENDROOT
BRANCH   2   7
HETATM    7  C   UNL     1      64.517   8.708   4.882  1.00  0.00     0.286 C 
BRANCH   7   8
HETATM    8  N   UNL     1      63.730   9.756   5.519  1.00  0.00    -0.074 N 
HETATM    9  H   UNL     1      62.766   9.705   5.186  1.00  0.00     0.274 HD
HETATM   10  H   UNL     1      64.123  10.666   5.283  1.00  0.00     0.274 HD
HETATM   11  H   UNL     1      63.748   9.628   6.531  1.00  0.00     0.274 HD
ENDBRANCH   7   8
ENDBRANCH   2   7
TORSDOF 2
ENDMDL
