MODEL 1
REMARK VINA RESULT:      -3.9      0.000      0.000
REMARK  2 active torsions:
REMARK  status: ('A' for Active; 'I' for Inactive)
REMARK    1  A    between atoms: CA_5  and  C_8 
REMARK    2  A    between atoms: O_7  and  C_8 
ROOT
HETATM    1  N   UNL     1      64.305   9.165   5.414  1.00  0.00    -0.365 N 
ATOM      2  HN  UNL     1      64.940   9.360   6.187  1.00  0.00     0.165 HD
HETATM    3  N   UNL     1      62.564   8.620   3.245  1.00  0.00    -0.372 N 
ATOM      4  HN  UNL     1      61.940   8.427   2.462  1.00  0.00     0.164 HD
HETATM    5  CA  UNL     1      63.285  10.005   5.082  1.00  0.00     0.048 A 
HETATM    6  C   UNL     1      62.441   9.730   4.011  1.00  0.00     0.114 A 
HETATM    7  C   UNL     1      64.420   8.052   4.649  1.00  0.00     0.105 A 
HETATM    8  C   UNL     1      63.570   7.787   3.591  1.00  0.00     0.104 A 
ENDROOT
BRANCH   5   9
HETATM    9  C   UNL     1      63.098  11.237   5.923  1.00  0.00     0.222 C 
BRANCH   9  10
HETATM   10  O   UNL     1      64.330  11.636   6.514  1.00  0.00    -0.395 OA
HETATM   11  H   UNL     1      64.407  11.246   7.399  1.00  0.00     0.209 HD
ENDBRANCH   9  10
ENDBRANCH   5   9
TORSDOF 2
ENDMDL
MODEL 2
REMARK VINA RESULT:      -3.9      1.510      1.867
REMARK  2 active torsions:
REMARK  status: ('A' for Active; 'I' for Inactive)
REMARK    1  A    between atoms: CA_5  and  C_8 
REMARK    2  A    between atoms: O_7  and  C_8 
ROOT
HETATM    1  N   UNL     1      62.997   9.359   4.371  1.00  0.00    -0.365 N 
ATOM      2  HN  UNL     1      63.503   8.798   5.056  1.00  0.00     0.165 HD
HETATM    3  N   UNL     1      61.613  10.912   2.446  1.00  0.00    -0.372 N 
ATOM      4  HN  UNL     1      61.120  11.473   1.752  1.00  0.00     0.164 HD
HETATM    5  CA  UNL     1      62.597  10.635   4.629  1.00  0.00     0.048 A 
HETATM    6  C   UNL     1      61.924  11.389   3.674  1.00  0.00     0.114 A 
HETATM    7  C   UNL     1      62.678   8.882   3.143  1.00  0.00     0.105 A 
HETATM    8  C   UNL     1      62.003   9.640   2.204  1.00  0.00     0.104 A 
ENDROOT
BRANCH   5   9
HETATM    9  C   UNL     1      62.899  11.195   5.991  1.00  0.00     0.222 C 
BRANCH   9  10
HETATM   10  O   UNL     1      64.302  11.367   6.165  1.00  0.00    -0.395 OA
HETATM   11  H   UNL     1      64.589  12.174   5.708  1.00  0.00     0.209 HD
ENDBRANCH   9  10
ENDBRANCH   5   9
TORSDOF 2
ENDMDL
MODEL 3
REMARK VINA RESULT:      -3.8      1.126      1.805
REMARK  2 active torsions:
REMARK  status: ('A' for Active; 'I' for Inactive)
REMARK    1  A    between atoms: CA_5  and  C_8 
REMARK    2  A    between atoms: O_7  and  C_8 
ROOT
HETATM    1  N   UNL     1      62.102  10.504   3.965  1.00  0.00    -0.365 N 
ATOM      2  HN  UNL     1      61.502  11.328   3.944  1.00  0.00     0.165 HD
HETATM    3  N   UNL     1      63.746   8.197   4.023  1.00  0.00    -0.372 N 
ATOM      4  HN  UNL     1      64.335   7.364   4.047  1.00  0.00     0.164 HD
HETATM    5  CA  UNL     1      62.987  10.277   4.975  1.00  0.00     0.048 A 
HETATM    6  C   UNL     1      63.784   9.138   4.996  1.00  0.00     0.114 A 
HETATM    7  C   UNL     1      62.072   9.564   2.990  1.00  0.00     0.105 A 
HETATM    8  C   UNL     1      62.875   8.438   3.019  1.00  0.00     0.104 A 
ENDROOT
BRANCH   5   9
HETATM    9  C   UNL     1      63.079  11.310   6.064  1.00  0.00     0.222 C 
BRANCH   9  10
HETATM   10  O   UNL     1      64.433  11.510   6.455  1.00  0.00    -0.395 OA
HETATM   11  H   UNL     1      64.588  11.087   7.315  1.00  0.00     0.209 HD
ENDBRANCH   9  10
ENDBRANCH   5   9
TORSDOF 2
ENDMDL
MODEL 4
REMARK VINA RESULT:      -3.5      1.454      2.510
REMARK  2 active torsions:
REMARK  status: ('A' for Active; 'I' for Inactive)
REMARK    1  A    between atoms: CA_5  and  C_8 
REMARK    2  A    between atoms: O_7  and  C_8 
ROOT
HETATM    1  N   UNL     1      63.693  10.116   5.626  1.00  0.00    -0.365 N 
ATOM      2  HN  UNL     1      64.173  10.398   6.481  1.00  0.00     0.165 HD
HETATM    3  N   UNL     1      62.335   9.331   3.266  1.00  0.00    -0.372 N 
ATOM      4  HN  UNL     1      61.844   9.045   2.419  1.00  0.00     0.164 HD
HETATM    5  CA  UNL     1      64.014   8.973   4.959  1.00  0.00     0.048 A 
HETATM    6  C   UNL     1      63.336   8.595   3.805  1.00  0.00     0.114 A 
HETATM    7  C   UNL     1      62.696  10.853   5.081  1.00  0.00     0.105 A 
HETATM    8  C   UNL     1      62.033  10.469   3.929  1.00  0.00     0.104 A 
ENDROOT
BRANCH   5   9
HETATM    9  C   UNL     1      65.138   8.138   5.509  1.00  0.00     0.222 C 
BRANCH   9  10
HETATM   10  O   UNL     1      66.001   8.928   6.321  1.00  0.00    -0.395 OA
HETATM   11  H   UNL     1      65.913   8.654   7.248  1.00  0.00     0.209 HD
ENDBRANCH   9  10
ENDBRANCH   5   9
TORSDOF 2
ENDMDL
MODEL 5
REMARK VINA RESULT:      -3.4      3.309      4.552
REMARK  2 active torsions:
REMARK  status: ('A' for Active; 'I' for Inactive)
REMARK    1  A    between atoms: CA_5  and  C_8 
REMARK    2  A    between atoms: O_7  and  C_8 
ROOT
HETATM    1  N   UNL     1      65.240   7.107   7.210  1.00  0.00    -0.365 N 
ATOM      2  HN  UNL     1      64.244   7.225   7.391  1.00  0.00     0.165 HD
HETATM    3  N   UNL     1      68.016   6.790   6.732  1.00  0.00    -0.372 N 
ATOM      4  HN  UNL     1      69.015   6.680   6.562  1.00  0.00     0.164 HD
HETATM    5  CA  UNL     1      65.854   7.673   6.133  1.00  0.00     0.048 A 
HETATM    6  C   UNL     1      67.218   7.515   5.913  1.00  0.00     0.114 A 
HETATM    7  C   UNL     1      66.040   6.377   8.024  1.00  0.00     0.105 A 
HETATM    8  C   UNL     1      67.395   6.222   7.790  1.00  0.00     0.104 A 
ENDROOT
BRANCH   5   9
HETATM    9  C   UNL     1      64.999   8.466   5.183  1.00  0.00     0.222 C 
BRANCH   9  10
HETATM   10  O   UNL     1      64.680   9.739   5.735  1.00  0.00    -0.395 OA
HETATM   11  H   UNL     1      63.799   9.704   6.141  1.00  0.00     0.209 HD
ENDBRANCH   9  10
ENDBRANCH   5   9
TORSDOF 2
ENDMDL
MODEL 6
REMARK VINA RESULT:      -3.4     12.938     13.082
REMARK  2 active torsions:
REMARK  status: ('A' for Active; 'I' for Inactive)
REMARK    1  A    between atoms: CA_5  and  C_8 
REMARK    2  A    between atoms: O_7  and  C_8 
ROOT
HETATM    1  N   UNL     1      57.454   1.748  14.510  1.00  0.00    -0.365 N 
ATOM      2  HN  UNL     1      57.037   1.564  15.421  1.00  0.00     0.165 HD
HETATM    3  N   UNL     1      58.636   2.276  11.988  1.00  0.00    -0.372 N 
ATOM      4  HN  UNL     1      59.061   2.470  11.082  1.00  0.00     0.164 HD
HETATM    5  CA  UNL     1      56.741   2.281  13.479  1.00  0.00     0.048 A 
HETATM    6  C   UNL     1      57.334   2.541  12.248  1.00  0.00     0.114 A 
HETATM    7  C   UNL     1      58.755   1.477  14.244  1.00  0.00     0.105 A 
HETATM    8  C   UNL     1      59.331   1.735  13.013  1.00  0.00     0.104 A 
ENDROOT
BRANCH   5   9
HETATM    9  C   UNL     1      55.284   2.567  13.717  1.00  0.00     0.222 C 
BRANCH   9  10
HETATM   10  O   UNL     1      55.104   3.280  14.937  1.00  0.00    -0.395 OA
HETATM   11  H   UNL     1      54.349   2.908  15.420  1.00  0.00     0.209 HD
ENDBRANCH   9  10
ENDBRANCH   5   9
TORSDOF 2
ENDMDL
MODEL 7
REMARK VINA RESULT:      -3.3      1.989      2.766
REMARK  2 active torsions:
REMARK  status: ('A' for Active; 'I' for Inactive)
REMARK    1  A    between atoms: CA_5  and  C_8 
REMARK    2  A    between atoms: O_7  and  C_8 
ROOT
HETATM    1  N   UNL     1      60.858   9.119   3.287  1.00  0.00    -0.365 N 
ATOM      2  HN  UNL     1      60.154   9.449   2.628  1.00  0.00     0.165 HD
HETATM    3  N   UNL     1      62.796   8.195   5.137  1.00  0.00    -0.372 N 
ATOM      4  HN  UNL     1      63.490   7.864   5.807  1.00  0.00     0.164 HD
HETATM    5  CA  UNL     1      61.841   9.932   3.765  1.00  0.00     0.048 A 
HETATM    6  C   UNL     1      62.782   9.469   4.678  1.00  0.00     0.114 A 
HETATM    7  C   UNL     1      60.879   7.844   3.743  1.00  0.00     0.105 A 
HETATM    8  C   UNL     1      61.825   7.393   4.646  1.00  0.00     0.104 A 
ENDROOT
BRANCH   5   9
HETATM    9  C   UNL     1      61.878  11.349   3.262  1.00  0.00     0.222 C 
BRANCH   9  10
HETATM   10  O   UNL     1      62.071  12.261   4.338  1.00  0.00    -0.395 OA
HETATM   11  H   UNL     1      62.382  11.778   5.120  1.00  0.00     0.209 HD
ENDBRANCH   9  10
ENDBRANCH   5   9
TORSDOF 2
ENDMDL
MODEL 8
REMARK VINA RESULT:      -3.1      4.643      5.720
REMARK  2 active torsions:
REMARK  status: ('A' for Active; 'I' for Inactive)
REMARK    1  A    between atoms: CA_5  and  C_8 
REMARK    2  A    between atoms: O_7  and  C_8 
ROOT
HETATM    1  N   UNL     1      67.946   6.855   6.683  1.00  0.00    -0.365 N 
ATOM      2  HN  UNL     1      68.942   6.645   6.639  1.00  0.00     0.165 HD
HETATM    3  N   UNL     1      65.181   7.466   6.809  1.00  0.00    -0.372 N 
ATOM      4  HN  UNL     1      64.187   7.689   6.858  1.00  0.00     0.164 HD
HETATM    5  CA  UNL     1      67.125   6.286   7.609  1.00  0.00     0.048 A 
HETATM    6  C   UNL     1      65.771   6.599   7.665  1.00  0.00     0.114 A 
HETATM    7  C   UNL     1      67.351   7.717   5.824  1.00  0.00     0.105 A 
HETATM    8  C   UNL     1      66.002   8.015   5.886  1.00  0.00     0.104 A 
ENDROOT
BRANCH   5   9
HETATM    9  C   UNL     1      67.734   5.297   8.564  1.00  0.00     0.222 C 
BRANCH   9  10
HETATM   10  O   UNL     1      66.826   4.234   8.836  1.00  0.00    -0.395 OA
HETATM   11  H   UNL     1      66.390   4.391   9.688  1.00  0.00     0.209 HD
ENDBRANCH   9  10
ENDBRANCH   5   9
TORSDOF 2
ENDMDL
MODEL 9
REMARK VINA RESULT:      -3.1      2.801      3.418
REMARK  2 active torsions:
REMARK  status: ('A' for Active; 'I' for Inactive)
REMARK    1  A    between atoms: CA_5  and  C_8 
REMARK    2  A    between atoms: O_7  and  C_8 
ROOT
HETATM    1  N   UNL     1      60.706   8.677   3.328  1.00  0.00    -0.365 N 
ATOM      2  HN  UNL     1      60.346   8.595   4.279  1.00  0.00     0.165 HD
HETATM    3  N   UNL     1      61.715   8.878   0.688  1.00  0.00    -0.372 N 
ATOM      4  HN  UNL     1      62.082   8.947  -0.261  1.00  0.00     0.164 HD
HETATM    5  CA  UNL     1      61.639   9.607   2.984  1.00  0.00     0.048 A 
HETATM    6  C   UNL     1      62.132   9.692   1.686  1.00  0.00     0.114 A 
HETATM    7  C   UNL     1      60.286   7.869   2.326  1.00  0.00     0.105 A 
HETATM    8  C   UNL     1      60.779   7.967   1.037  1.00  0.00     0.104 A 
ENDROOT
BRANCH   5   9
HETATM    9  C   UNL     1      62.111  10.549   4.057  1.00  0.00     0.222 C 
BRANCH   9  10
HETATM   10  O   UNL     1      61.929  11.903   3.655  1.00  0.00    -0.395 OA
HETATM   11  H   UNL     1      62.511  12.477   4.177  1.00  0.00     0.209 HD
ENDBRANCH   9  10
ENDBRANCH   5   9
TORSDOF 2
ENDMDL
