MODEL 1
REMARK VINA RESULT:      -4.9      0.000      0.000
REMARK  2 active torsions:
REMARK  status: ('A' for Active; 'I' for Inactive)
REMARK    1  A    between atoms: C_4  and  C_7 
REMARK    2  A    between atoms: C_7  and  N_9 
ROOT
HETATM    1  N   UNL     1      63.021   9.198   5.633  1.00  0.00    -0.343 N 
ATOM      2  HN  UNL     1      63.045   9.667   6.539  1.00  0.00     0.167 HD
HETATM    3  N   UNL     1      63.200   7.670   4.032  1.00  0.00    -0.338 N 
HETATM    4  C   UNL     1      63.370   7.951   5.373  1.00  0.00     0.110 A 
HETATM    5  C   UNL     1      62.712   8.798   3.414  1.00  0.00     0.062 A 
HETATM    6  C   UNL     1      62.621   9.737   4.436  1.00  0.00     0.060 A 
HETATM    7  C   UNL     1      63.473   6.426   3.353  1.00  0.00     0.158 C 
HETATM    8  C   UNL     1      62.353   9.084   2.090  1.00  0.00     0.032 A 
HETATM    9  C   UNL     1      62.164  11.030   4.146  1.00  0.00     0.032 A 
HETATM   10  C   UNL     1      61.895  10.380   1.820  1.00  0.00     0.002 A 
HETATM   11  C   UNL     1      61.805  11.340   2.828  1.00  0.00     0.002 A 
ENDROOT
BRANCH   4  12
HETATM   12  C   UNL     1      63.893   6.979   6.380  1.00  0.00     0.305 C 
BRANCH  12  13
HETATM   13  N   UNL     1      65.230   7.347   6.845  1.00  0.00    -0.073 N 
HETATM   14  H   UNL     1      65.575   8.138   6.300  1.00  0.00     0.274 HD
HETATM   15  H   UNL     1      65.861   6.554   6.729  1.00  0.00     0.274 HD
HETATM   16  H   UNL     1      65.188   7.607   7.831  1.00  0.00     0.274 HD
ENDBRANCH  12  13
ENDBRANCH   4  12
TORSDOF 2
ENDMDL
MODEL 2
REMARK VINA RESULT:      -4.7      1.374      1.404
REMARK  2 active torsions:
REMARK  status: ('A' for Active; 'I' for Inactive)
REMARK    1  A    between atoms: C_4  and  C_7 
REMARK    2  A    between atoms: C_7  and  N_9 
ROOT
HETATM    1  N   UNL     1      64.391   9.243   5.772  1.00  0.00    -0.343 N 
ATOM      2  HN  UNL     1      64.547   9.821   6.599  1.00  0.00     0.167 HD
HETATM    3  N   UNL     1      64.536   7.622   4.262  1.00  0.00    -0.338 N 
HETATM    4  C   UNL     1      65.017   8.124   5.455  1.00  0.00     0.110 A 
HETATM    5  C   UNL     1      63.549   8.466   3.806  1.00  0.00     0.062 A 
HETATM    6  C   UNL     1      63.489   9.472   4.765  1.00  0.00     0.060 A 
HETATM    7  C   UNL     1      64.962   6.427   3.575  1.00  0.00     0.158 C 
HETATM    8  C   UNL     1      62.725   8.450   2.674  1.00  0.00     0.032 A 
HETATM    9  C   UNL     1      62.581  10.527   4.601  1.00  0.00     0.032 A 
HETATM   10  C   UNL     1      61.821   9.509   2.529  1.00  0.00     0.002 A 
HETATM   11  C   UNL     1      61.750  10.535   3.472  1.00  0.00     0.002 A 
ENDROOT
BRANCH   4  12
HETATM   12  C   UNL     1      66.107   7.494   6.259  1.00  0.00     0.305 C 
BRANCH  12  13
HETATM   13  N   UNL     1      66.857   8.485   7.029  1.00  0.00    -0.073 N 
HETATM   14  H   UNL     1      67.851   8.256   7.003  1.00  0.00     0.274 HD
HETATM   15  H   UNL     1      66.532   8.482   7.996  1.00  0.00     0.274 HD
HETATM   16  H   UNL     1      66.712   9.411   6.625  1.00  0.00     0.274 HD
ENDBRANCH  12  13
ENDBRANCH   4  12
TORSDOF 2
ENDMDL
MODEL 3
REMARK VINA RESULT:      -4.5      1.575      2.972
REMARK  2 active torsions:
REMARK  status: ('A' for Active; 'I' for Inactive)
REMARK    1  A    between atoms: C_4  and  C_7 
REMARK    2  A    between atoms: C_7  and  N_9 
ROOT
HETATM    1  N   UNL     1      62.114  10.728   3.407  1.00  0.00    -0.343 N 
ATOM      2  HN  UNL     1      61.762  11.659   3.184  1.00  0.00     0.167 HD
HETATM    3  N   UNL     1      62.942   8.982   4.501  1.00  0.00    -0.338 N 
HETATM    4  C   UNL     1      62.546  10.302   4.581  1.00  0.00     0.110 A 
HETATM    5  C   UNL     1      62.744   8.550   3.209  1.00  0.00     0.062 A 
HETATM    6  C   UNL     1      62.236   9.664   2.550  1.00  0.00     0.060 A 
HETATM    7  C   UNL     1      63.477   8.159   5.558  1.00  0.00     0.158 C 
HETATM    8  C   UNL     1      62.957   7.323   2.568  1.00  0.00     0.032 A 
HETATM    9  C   UNL     1      61.931   9.578   1.184  1.00  0.00     0.032 A 
HETATM   10  C   UNL     1      62.643   7.254   1.205  1.00  0.00     0.002 A 
HETATM   11  C   UNL     1      62.142   8.362   0.520  1.00  0.00     0.002 A 
ENDROOT
BRANCH   4  12
HETATM   12  C   UNL     1      62.616  11.131   5.821  1.00  0.00     0.305 C 
BRANCH  12  13
HETATM   13  N   UNL     1      63.998  11.423   6.202  1.00  0.00    -0.073 N 
HETATM   14  H   UNL     1      64.281  12.317   5.800  1.00  0.00     0.274 HD
HETATM   15  H   UNL     1      64.610  10.684   5.855  1.00  0.00     0.274 HD
HETATM   16  H   UNL     1      64.068  11.472   7.219  1.00  0.00     0.274 HD
ENDBRANCH  12  13
ENDBRANCH   4  12
TORSDOF 2
ENDMDL
MODEL 4
REMARK VINA RESULT:      -4.4      2.367      4.516
REMARK  2 active torsions:
REMARK  status: ('A' for Active; 'I' for Inactive)
REMARK    1  A    between atoms: C_4  and  C_7 
REMARK    2  A    between atoms: C_7  and  N_9 
ROOT
HETATM    1  N   UNL     1      65.116   8.971   5.862  1.00  0.00    -0.343 N 
ATOM      2  HN  UNL     1      65.354   9.577   6.647  1.00  0.00     0.167 HD
HETATM    3  N   UNL     1      64.073   8.068   4.122  1.00  0.00    -0.338 N 
HETATM    4  C   UNL     1      64.056   9.062   5.080  1.00  0.00     0.110 A 
HETATM    5  C   UNL     1      65.209   7.312   4.306  1.00  0.00     0.062 A 
HETATM    6  C   UNL     1      65.833   7.894   5.405  1.00  0.00     0.060 A 
HETATM    7  C   UNL     1      63.095   7.823   3.091  1.00  0.00     0.158 C 
HETATM    8  C   UNL     1      65.737   6.201   3.637  1.00  0.00     0.032 A 
HETATM    9  C   UNL     1      67.035   7.353   5.882  1.00  0.00     0.032 A 
HETATM   10  C   UNL     1      66.940   5.675   4.126  1.00  0.00     0.002 A 
HETATM   11  C   UNL     1      67.578   6.236   5.232  1.00  0.00     0.002 A 
ENDROOT
BRANCH   4  12
HETATM   12  C   UNL     1      62.975  10.084   5.217  1.00  0.00     0.305 C 
BRANCH  12  13
HETATM   13  N   UNL     1      63.411  11.232   6.011  1.00  0.00    -0.073 N 
HETATM   14  H   UNL     1      63.162  12.095   5.527  1.00  0.00     0.274 HD
HETATM   15  H   UNL     1      64.422  11.194   6.138  1.00  0.00     0.274 HD
HETATM   16  H   UNL     1      62.952  11.210   6.922  1.00  0.00     0.274 HD
ENDBRANCH  12  13
ENDBRANCH   4  12
TORSDOF 2
ENDMDL
MODEL 5
REMARK VINA RESULT:      -4.2      2.337      4.049
REMARK  2 active torsions:
REMARK  status: ('A' for Active; 'I' for Inactive)
REMARK    1  A    between atoms: C_4  and  C_7 
REMARK    2  A    between atoms: C_7  and  N_9 
ROOT
HETATM    1  N   UNL     1      61.106   9.811   2.456  1.00  0.00    -0.343 N 
ATOM      2  HN  UNL     1      60.415  10.538   2.273  1.00  0.00     0.167 HD
HETATM    3  N   UNL     1      62.314   7.953   2.318  1.00  0.00    -0.338 N 
HETATM    4  C   UNL     1      61.279   8.690   1.779  1.00  0.00     0.110 A 
HETATM    5  C   UNL     1      62.826   8.649   3.389  1.00  0.00     0.062 A 
HETATM    6  C   UNL     1      62.046   9.798   3.456  1.00  0.00     0.060 A 
HETATM    7  C   UNL     1      62.808   6.672   1.872  1.00  0.00     0.158 C 
HETATM    8  C   UNL     1      63.869   8.390   4.288  1.00  0.00     0.032 A 
HETATM    9  C   UNL     1      62.291  10.741   4.463  1.00  0.00     0.032 A 
HETATM   10  C   UNL     1      64.103   9.344   5.285  1.00  0.00     0.002 A 
HETATM   11  C   UNL     1      63.326  10.500   5.377  1.00  0.00     0.002 A 
ENDROOT
BRANCH   4  12
HETATM   12  C   UNL     1      60.461   8.263   0.603  1.00  0.00     0.305 C 
BRANCH  12  13
HETATM   13  N   UNL     1      59.028   8.314   0.892  1.00  0.00    -0.073 N 
HETATM   14  H   UNL     1      58.887   8.505   1.885  1.00  0.00     0.274 HD
HETATM   15  H   UNL     1      58.601   7.419   0.655  1.00  0.00     0.274 HD
HETATM   16  H   UNL     1      58.596   9.055   0.340  1.00  0.00     0.274 HD
ENDBRANCH  12  13
ENDBRANCH   4  12
TORSDOF 2
ENDMDL
MODEL 6
REMARK VINA RESULT:      -4.2      1.292      2.565
REMARK  2 active torsions:
REMARK  status: ('A' for Active; 'I' for Inactive)
REMARK    1  A    between atoms: C_4  and  C_7 
REMARK    2  A    between atoms: C_7  and  N_9 
ROOT
HETATM    1  N   UNL     1      62.817   7.659   2.086  1.00  0.00    -0.343 N 
ATOM      2  HN  UNL     1      62.837   7.221   1.164  1.00  0.00     0.167 HD
HETATM    3  N   UNL     1      62.978   7.997   4.274  1.00  0.00    -0.338 N 
HETATM    4  C   UNL     1      63.118   7.092   3.240  1.00  0.00     0.110 A 
HETATM    5  C   UNL     1      62.573   9.200   3.742  1.00  0.00     0.062 A 
HETATM    6  C   UNL     1      62.472   8.954   2.377  1.00  0.00     0.060 A 
HETATM    7  C   UNL     1      63.203   7.767   5.680  1.00  0.00     0.158 C 
HETATM    8  C   UNL     1      62.289  10.449   4.309  1.00  0.00     0.032 A 
HETATM    9  C   UNL     1      62.060   9.983   1.519  1.00  0.00     0.032 A 
HETATM   10  C   UNL     1      61.882  11.466   3.437  1.00  0.00     0.002 A 
HETATM   11  C   UNL     1      61.764  11.240   2.065  1.00  0.00     0.002 A 
ENDROOT
BRANCH   4  12
HETATM   12  C   UNL     1      63.534   5.668   3.414  1.00  0.00     0.305 C 
BRANCH  12  13
HETATM   13  N   UNL     1      64.982   5.506   3.284  1.00  0.00    -0.073 N 
HETATM   14  H   UNL     1      65.456   6.233   3.820  1.00  0.00     0.274 HD
HETATM   15  H   UNL     1      65.246   5.582   2.301  1.00  0.00     0.274 HD
HETATM   16  H   UNL     1      65.256   4.590   3.640  1.00  0.00     0.274 HD
ENDBRANCH  12  13
ENDBRANCH   4  12
TORSDOF 2
ENDMDL
MODEL 7
REMARK VINA RESULT:      -4.2      1.327      2.636
REMARK  2 active torsions:
REMARK  status: ('A' for Active; 'I' for Inactive)
REMARK    1  A    between atoms: C_4  and  C_7 
REMARK    2  A    between atoms: C_7  and  N_9 
ROOT
HETATM    1  N   UNL     1      64.149   7.165   3.578  1.00  0.00    -0.343 N 
ATOM      2  HN  UNL     1      64.666   6.292   3.472  1.00  0.00     0.167 HD
HETATM    3  N   UNL     1      63.384   9.090   4.377  1.00  0.00    -0.338 N 
HETATM    4  C   UNL     1      64.233   8.021   4.581  1.00  0.00     0.110 A 
HETATM    5  C   UNL     1      62.734   8.902   3.178  1.00  0.00     0.062 A 
HETATM    6  C   UNL     1      63.225   7.689   2.710  1.00  0.00     0.060 A 
HETATM    7  C   UNL     1      63.178  10.228   5.241  1.00  0.00     0.158 C 
HETATM    8  C   UNL     1      61.784   9.656   2.477  1.00  0.00     0.032 A 
HETATM    9  C   UNL     1      62.754   7.178   1.492  1.00  0.00     0.032 A 
HETATM   10  C   UNL     1      61.327   9.132   1.261  1.00  0.00     0.002 A 
HETATM   11  C   UNL     1      61.798   7.912   0.776  1.00  0.00     0.002 A 
ENDROOT
BRANCH   4  12
HETATM   12  C   UNL     1      65.108   7.854   5.780  1.00  0.00     0.305 C 
BRANCH  12  13
HETATM   13  N   UNL     1      64.418   7.150   6.862  1.00  0.00    -0.073 N 
HETATM   14  H   UNL     1      63.941   7.826   7.458  1.00  0.00     0.274 HD
HETATM   15  H   UNL     1      65.097   6.628   7.415  1.00  0.00     0.274 HD
HETATM   16  H   UNL     1      63.734   6.505   6.465  1.00  0.00     0.274 HD
ENDBRANCH  12  13
ENDBRANCH   4  12
TORSDOF 2
ENDMDL
MODEL 8
REMARK VINA RESULT:      -4.0      1.961      2.935
REMARK  2 active torsions:
REMARK  status: ('A' for Active; 'I' for Inactive)
REMARK    1  A    between atoms: C_4  and  C_7 
REMARK    2  A    between atoms: C_7  and  N_9 
ROOT
HETATM    1  N   UNL     1      64.116   6.984   3.280  1.00  0.00    -0.343 N 
ATOM      2  HN  UNL     1      63.899   6.341   2.519  1.00  0.00     0.167 HD
HETATM    3  N   UNL     1      65.078   7.935   5.041  1.00  0.00    -0.338 N 
HETATM    4  C   UNL     1      65.094   6.872   4.162  1.00  0.00     0.110 A 
HETATM    5  C   UNL     1      64.038   8.768   4.692  1.00  0.00     0.062 A 
HETATM    6  C   UNL     1      63.452   8.142   3.597  1.00  0.00     0.060 A 
HETATM    7  C   UNL     1      65.973   8.175   6.148  1.00  0.00     0.158 C 
HETATM    8  C   UNL     1      63.563   9.976   5.218  1.00  0.00     0.032 A 
HETATM    9  C   UNL     1      62.332   8.725   2.989  1.00  0.00     0.032 A 
HETATM   10  C   UNL     1      62.446  10.545   4.595  1.00  0.00     0.002 A 
HETATM   11  C   UNL     1      61.835   9.931   3.502  1.00  0.00     0.002 A 
ENDROOT
BRANCH   4  12
HETATM   12  C   UNL     1      66.073   5.744   4.217  1.00  0.00     0.305 C 
BRANCH  12  13
HETATM   13  N   UNL     1      67.329   6.083   3.548  1.00  0.00    -0.073 N 
HETATM   14  H   UNL     1      67.865   5.231   3.379  1.00  0.00     0.274 HD
HETATM   15  H   UNL     1      67.870   6.713   4.140  1.00  0.00     0.274 HD
HETATM   16  H   UNL     1      67.128   6.540   2.658  1.00  0.00     0.274 HD
ENDBRANCH  12  13
ENDBRANCH   4  12
TORSDOF 2
ENDMDL
MODEL 9
REMARK VINA RESULT:      -4.0      2.679      4.080
REMARK  2 active torsions:
REMARK  status: ('A' for Active; 'I' for Inactive)
REMARK    1  A    between atoms: C_4  and  C_7 
REMARK    2  A    between atoms: C_7  and  N_9 
ROOT
HETATM    1  N   UNL     1      65.247   6.053   7.273  1.00  0.00    -0.343 N 
ATOM      2  HN  UNL     1      64.903   5.393   7.971  1.00  0.00     0.167 HD
HETATM    3  N   UNL     1      66.587   7.262   5.980  1.00  0.00    -0.338 N 
HETATM    4  C   UNL     1      66.508   6.315   6.981  1.00  0.00     0.110 A 
HETATM    5  C   UNL     1      65.306   7.612   5.616  1.00  0.00     0.062 A 
HETATM    6  C   UNL     1      64.494   6.848   6.447  1.00  0.00     0.060 A 
HETATM    7  C   UNL     1      67.778   7.820   5.388  1.00  0.00     0.158 C 
HETATM    8  C   UNL     1      64.791   8.503   4.666  1.00  0.00     0.032 A 
HETATM    9  C   UNL     1      63.100   6.970   6.352  1.00  0.00     0.032 A 
HETATM   10  C   UNL     1      63.397   8.610   4.582  1.00  0.00     0.002 A 
HETATM   11  C   UNL     1      62.563   7.861   5.413  1.00  0.00     0.002 A 
ENDROOT
BRANCH   4  12
HETATM   12  C   UNL     1      67.691   5.692   7.648  1.00  0.00     0.305 C 
BRANCH  12  13
HETATM   13  N   UNL     1      68.075   6.417   8.860  1.00  0.00    -0.073 N 
HETATM   14  H   UNL     1      69.092   6.486   8.907  1.00  0.00     0.274 HD
HETATM   15  H   UNL     1      67.730   5.917   9.679  1.00  0.00     0.274 HD
HETATM   16  H   UNL     1      67.672   7.354   8.837  1.00  0.00     0.274 HD
ENDBRANCH  12  13
ENDBRANCH   4  12
TORSDOF 2
ENDMDL
