MODEL 1
REMARK VINA RESULT:      -4.2      0.000      0.000
REMARK  2 active torsions:
REMARK  status: ('A' for Active; 'I' for Inactive)
REMARK    1  A    between atoms: C_3  and  C_6 
REMARK    2  A    between atoms: O_5  and  C_6 
ROOT
HETATM    1  N   UNL     1      61.605  10.865   2.470  1.00  0.00    -0.375 N 
ATOM      2  HN  UNL     1      61.106  11.427   1.781  1.00  0.00     0.164 HD
HETATM    3  C   UNL     1      62.597  10.636   4.671  1.00  0.00    -0.019 A 
HETATM    4  C   UNL     1      61.925  11.356   3.689  1.00  0.00     0.096 A 
HETATM    5  C   UNL     1      61.980   9.594   2.211  1.00  0.00     0.087 A 
HETATM    6  C   UNL     1      62.974   9.326   4.360  1.00  0.00     0.012 A 
HETATM    7  C   UNL     1      62.661   8.793   3.111  1.00  0.00     0.018 A 
ENDROOT
BRANCH   3   8
HETATM    8  C   UNL     1      62.917  11.245   6.001  1.00  0.00     0.204 C 
BRANCH   8   9
HETATM    9  O   UNL     1      64.323  11.361   6.175  1.00  0.00    -0.396 OA
HETATM   10  H   UNL     1      64.605  12.259   5.940  1.00  0.00     0.209 HD
ENDBRANCH   8   9
ENDBRANCH   3   8
TORSDOF 2
ENDMDL
MODEL 2
REMARK VINA RESULT:      -4.1      1.187      1.775
REMARK  2 active torsions:
REMARK  status: ('A' for Active; 'I' for Inactive)
REMARK    1  A    between atoms: C_3  and  C_6 
REMARK    2  A    between atoms: O_5  and  C_6 
ROOT
HETATM    1  N   UNL     1      63.200   8.357   3.538  1.00  0.00    -0.375 N 
ATOM      2  HN  UNL     1      63.624   7.430   3.499  1.00  0.00     0.164 HD
HETATM    3  C   UNL     1      62.774  10.422   4.734  1.00  0.00    -0.019 A 
HETATM    4  C   UNL     1      63.323   9.149   4.627  1.00  0.00     0.096 A 
HETATM    5  C   UNL     1      62.488   8.853   2.504  1.00  0.00     0.087 A 
HETATM    6  C   UNL     1      62.039  10.897   3.644  1.00  0.00     0.012 A 
HETATM    7  C   UNL     1      61.892  10.103   2.509  1.00  0.00     0.018 A 
ENDROOT
BRANCH   3   8
HETATM    8  C   UNL     1      62.953  11.245   5.973  1.00  0.00     0.204 C 
BRANCH   8   9
HETATM    9  O   UNL     1      64.332  11.409   6.271  1.00  0.00    -0.396 OA
HETATM   10  H   UNL     1      64.851  11.338   5.454  1.00  0.00     0.209 HD
ENDBRANCH   8   9
ENDBRANCH   3   8
TORSDOF 2
ENDMDL
MODEL 3
REMARK VINA RESULT:      -3.8      1.179      1.589
REMARK  2 active torsions:
REMARK  status: ('A' for Active; 'I' for Inactive)
REMARK    1  A    between atoms: C_3  and  C_6 
REMARK    2  A    between atoms: O_5  and  C_6 
ROOT
HETATM    1  N   UNL     1      61.710  11.314   2.944  1.00  0.00    -0.375 N 
ATOM      2  HN  UNL     1      61.338  12.263   2.982  1.00  0.00     0.164 HD
HETATM    3  C   UNL     1      62.751   9.423   4.048  1.00  0.00    -0.019 A 
HETATM    4  C   UNL     1      62.235  10.715   4.037  1.00  0.00     0.096 A 
HETATM    5  C   UNL     1      61.704  10.596   1.802  1.00  0.00     0.087 A 
HETATM    6  C   UNL     1      62.732   8.715   2.843  1.00  0.00     0.012 A 
HETATM    7  C   UNL     1      62.200   9.307   1.699  1.00  0.00     0.018 A 
ENDROOT
BRANCH   3   8
HETATM    8  C   UNL     1      63.316   8.821   5.298  1.00  0.00     0.204 C 
BRANCH   8   9
HETATM    9  O   UNL     1      64.582   9.392   5.601  1.00  0.00    -0.396 OA
HETATM   10  H   UNL     1      64.793  10.077   4.947  1.00  0.00     0.209 HD
ENDBRANCH   8   9
ENDBRANCH   3   8
TORSDOF 2
ENDMDL
MODEL 4
REMARK VINA RESULT:      -3.7      2.299      3.035
REMARK  2 active torsions:
REMARK  status: ('A' for Active; 'I' for Inactive)
REMARK    1  A    between atoms: C_3  and  C_6 
REMARK    2  A    between atoms: O_5  and  C_6 
ROOT
HETATM    1  N   UNL     1      62.962   9.935   5.502  1.00  0.00    -0.375 N 
ATOM      2  HN  UNL     1      63.019  10.401   6.408  1.00  0.00     0.164 HD
HETATM    3  C   UNL     1      62.307   9.956   3.168  1.00  0.00    -0.019 A 
HETATM    4  C   UNL     1      62.407  10.539   4.427  1.00  0.00     0.096 A 
HETATM    5  C   UNL     1      63.436   8.685   5.319  1.00  0.00     0.087 A 
HETATM    6  C   UNL     1      62.804   8.658   3.022  1.00  0.00     0.012 A 
HETATM    7  C   UNL     1      63.379   8.008   4.112  1.00  0.00     0.018 A 
ENDROOT
BRANCH   3   8
HETATM    8  C   UNL     1      61.680  10.686   2.020  1.00  0.00     0.204 C 
BRANCH   8   9
HETATM    9  O   UNL     1      62.112  12.039   1.991  1.00  0.00    -0.396 OA
HETATM   10  H   UNL     1      62.527  12.265   2.839  1.00  0.00     0.209 HD
ENDBRANCH   8   9
ENDBRANCH   3   8
TORSDOF 2
ENDMDL
MODEL 5
REMARK VINA RESULT:      -3.7      1.797      2.302
REMARK  2 active torsions:
REMARK  status: ('A' for Active; 'I' for Inactive)
REMARK    1  A    between atoms: C_3  and  C_6 
REMARK    2  A    between atoms: O_5  and  C_6 
ROOT
HETATM    1  N   UNL     1      62.932   7.733   2.987  1.00  0.00    -0.375 N 
ATOM      2  HN  UNL     1      63.296   6.793   3.140  1.00  0.00     0.164 HD
HETATM    3  C   UNL     1      62.485   9.970   3.808  1.00  0.00    -0.019 A 
HETATM    4  C   UNL     1      62.960   8.671   3.960  1.00  0.00     0.096 A 
HETATM    5  C   UNL     1      62.399   8.101   1.803  1.00  0.00     0.087 A 
HETATM    6  C   UNL     1      61.934  10.310   2.569  1.00  0.00     0.012 A 
HETATM    7  C   UNL     1      61.889   9.363   1.547  1.00  0.00     0.018 A 
ENDROOT
BRANCH   3   8
HETATM    8  C   UNL     1      62.549  10.959   4.931  1.00  0.00     0.204 C 
BRANCH   8   9
HETATM    9  O   UNL     1      62.119  12.241   4.495  1.00  0.00    -0.396 OA
HETATM   10  H   UNL     1      62.164  12.285   3.526  1.00  0.00     0.209 HD
ENDBRANCH   8   9
ENDBRANCH   3   8
TORSDOF 2
ENDMDL
MODEL 6
REMARK VINA RESULT:      -3.7      2.517      3.418
REMARK  2 active torsions:
REMARK  status: ('A' for Active; 'I' for Inactive)
REMARK    1  A    between atoms: C_3  and  C_6 
REMARK    2  A    between atoms: O_5  and  C_6 
ROOT
HETATM    1  N   UNL     1      62.281  11.640   4.609  1.00  0.00    -0.375 N 
ATOM      2  HN  UNL     1      62.072  12.587   4.924  1.00  0.00     0.164 HD
HETATM    3  C   UNL     1      62.172   9.925   2.899  1.00  0.00    -0.019 A 
HETATM    4  C   UNL     1      61.910  11.201   3.385  1.00  0.00     0.096 A 
HETATM    5  C   UNL     1      62.942  10.763   5.393  1.00  0.00     0.087 A 
HETATM    6  C   UNL     1      62.854   9.044   3.744  1.00  0.00     0.012 A 
HETATM    7  C   UNL     1      63.247   9.466   5.012  1.00  0.00     0.018 A 
ENDROOT
BRANCH   3   8
HETATM    8  C   UNL     1      61.732   9.508   1.529  1.00  0.00     0.204 C 
BRANCH   8   9
HETATM    9  O   UNL     1      60.382   9.063   1.551  1.00  0.00    -0.396 OA
HETATM   10  H   UNL     1      59.810   9.746   1.166  1.00  0.00     0.209 HD
ENDBRANCH   8   9
ENDBRANCH   3   8
TORSDOF 2
ENDMDL
MODEL 7
REMARK VINA RESULT:      -3.5      2.041      2.557
REMARK  2 active torsions:
REMARK  status: ('A' for Active; 'I' for Inactive)
REMARK    1  A    between atoms: C_3  and  C_6 
REMARK    2  A    between atoms: O_5  and  C_6 
ROOT
HETATM    1  N   UNL     1      62.552   7.448   4.056  1.00  0.00    -0.375 N 
ATOM      2  HN  UNL     1      61.769   6.928   3.662  1.00  0.00     0.164 HD
HETATM    3  C   UNL     1      63.425   9.452   5.106  1.00  0.00    -0.019 A 
HETATM    4  C   UNL     1      62.397   8.697   4.551  1.00  0.00     0.096 A 
HETATM    5  C   UNL     1      63.795   6.924   4.110  1.00  0.00     0.087 A 
HETATM    6  C   UNL     1      64.699   8.876   5.136  1.00  0.00     0.012 A 
HETATM    7  C   UNL     1      64.891   7.591   4.632  1.00  0.00     0.018 A 
ENDROOT
BRANCH   3   8
HETATM    8  C   UNL     1      63.180  10.831   5.637  1.00  0.00     0.204 C 
BRANCH   8   9
HETATM    9  O   UNL     1      64.340  11.331   6.287  1.00  0.00    -0.396 OA
HETATM   10  H   UNL     1      65.000  10.623   6.361  1.00  0.00     0.209 HD
ENDBRANCH   8   9
ENDBRANCH   3   8
TORSDOF 2
ENDMDL
MODEL 8
REMARK VINA RESULT:      -3.4     12.256     12.815
REMARK  2 active torsions:
REMARK  status: ('A' for Active; 'I' for Inactive)
REMARK    1  A    between atoms: C_3  and  C_6 
REMARK    2  A    between atoms: O_5  and  C_6 
ROOT
HETATM    1  N   UNL     1      57.086   1.878  14.067  1.00  0.00    -0.375 N 
ATOM      2  HN  UNL     1      56.276   1.836  14.685  1.00  0.00     0.164 HD
HETATM    3  C   UNL     1      58.073   2.490  11.939  1.00  0.00    -0.019 A 
HETATM    4  C   UNL     1      57.002   2.400  12.822  1.00  0.00     0.096 A 
HETATM    5  C   UNL     1      58.294   1.415  14.452  1.00  0.00     0.087 A 
HETATM    6  C   UNL     1      59.306   1.994  12.373  1.00  0.00     0.012 A 
HETATM    7  C   UNL     1      59.423   1.448  13.649  1.00  0.00     0.018 A 
ENDROOT
BRANCH   3   8
HETATM    8  C   UNL     1      57.908   3.083  10.573  1.00  0.00     0.204 C 
BRANCH   8   9
HETATM    9  O   UNL     1      58.613   4.313  10.472  1.00  0.00    -0.396 OA
HETATM   10  H   UNL     1      59.119   4.328   9.644  1.00  0.00     0.209 HD
ENDBRANCH   8   9
ENDBRANCH   3   8
TORSDOF 2
ENDMDL
MODEL 9
REMARK VINA RESULT:      -3.4      1.912      2.648
REMARK  2 active torsions:
REMARK  status: ('A' for Active; 'I' for Inactive)
REMARK    1  A    between atoms: C_3  and  C_6 
REMARK    2  A    between atoms: O_5  and  C_6 
ROOT
HETATM    1  N   UNL     1      63.104   7.609   2.869  1.00  0.00    -0.375 N 
ATOM      2  HN  UNL     1      63.081   6.885   2.151  1.00  0.00     0.164 HD
HETATM    3  C   UNL     1      62.515   9.836   3.625  1.00  0.00    -0.019 A 
HETATM    4  C   UNL     1      62.521   8.814   2.681  1.00  0.00     0.096 A 
HETATM    5  C   UNL     1      63.720   7.410   4.053  1.00  0.00     0.087 A 
HETATM    6  C   UNL     1      63.169   9.592   4.837  1.00  0.00     0.012 A 
HETATM    7  C   UNL     1      63.782   8.361   5.058  1.00  0.00     0.018 A 
ENDROOT
BRANCH   3   8
HETATM    8  C   UNL     1      61.846  11.147   3.349  1.00  0.00     0.204 C 
BRANCH   8   9
HETATM    9  O   UNL     1      62.131  12.082   4.381  1.00  0.00    -0.396 OA
HETATM   10  H   UNL     1      61.308  12.322   4.835  1.00  0.00     0.209 HD
ENDBRANCH   8   9
ENDBRANCH   3   8
TORSDOF 2
ENDMDL
