MODEL 1
REMARK VINA RESULT:      -5.8      0.000      0.000
REMARK  1 active torsions:
REMARK  status: ('A' for Active; 'I' for Inactive)
REMARK    1  A    between atoms: C_1  and  C_2 
ROOT
HETATM    1  C   UNL     1      63.208   9.397   4.674  1.00  0.00     0.054 A 
HETATM    2  C   UNL     1      62.841   8.901   3.388  1.00  0.00     0.008 A 
HETATM    3  N   UNL     1      61.663  10.986   2.989  1.00  0.00    -0.365 N 
ATOM      4  HN  UNL     1      61.096  11.575   2.379  1.00  0.00     0.165 HD
HETATM    5  C   UNL     1      62.054   9.766   2.592  1.00  0.00     0.043 A 
HETATM    6  C   UNL     1      62.033  11.417   4.206  1.00  0.00     0.089 A 
HETATM    7  C   UNL     1      62.793  10.672   5.075  1.00  0.00     0.036 A 
HETATM    8  C   UNL     1      63.186   7.635   2.835  1.00  0.00     0.015 A 
HETATM    9  C   UNL     1      61.649   9.359   1.328  1.00  0.00     0.030 A 
HETATM   10  C   UNL     1      62.768   7.250   1.559  1.00  0.00     0.001 A 
HETATM   11  C   UNL     1      61.995   8.115   0.803  1.00  0.00     0.002 A 
ENDROOT
BRANCH   1  12
HETATM   12  C   UNL     1      64.029   8.596   5.633  1.00  0.00     0.210 C 
HETATM   13  O   UNL     1      63.681   7.651   6.312  1.00  0.00    -0.644 OA
HETATM   14  O   UNL     1      65.304   9.033   5.705  1.00  0.00    -0.644 OA
ENDBRANCH   1  12
TORSDOF 1
ENDMDL
MODEL 2
REMARK VINA RESULT:      -5.6      1.416      2.891
REMARK  1 active torsions:
REMARK  status: ('A' for Active; 'I' for Inactive)
REMARK    1  A    between atoms: C_1  and  C_2 
ROOT
HETATM    1  C   UNL     1      63.175   7.915   4.374  1.00  0.00     0.054 A 
HETATM    2  C   UNL     1      62.682   9.075   3.708  1.00  0.00     0.008 A 
HETATM    3  N   UNL     1      62.660   7.803   1.640  1.00  0.00    -0.365 N 
ATOM      4  HN  UNL     1      62.475   7.752   0.638  1.00  0.00     0.165 HD
HETATM    5  C   UNL     1      62.447   8.940   2.320  1.00  0.00     0.043 A 
HETATM    6  C   UNL     1      63.121   6.731   2.306  1.00  0.00     0.089 A 
HETATM    7  C   UNL     1      63.392   6.735   3.653  1.00  0.00     0.036 A 
HETATM    8  C   UNL     1      62.406  10.341   4.298  1.00  0.00     0.015 A 
HETATM    9  C   UNL     1      61.971  10.023   1.594  1.00  0.00     0.030 A 
HETATM   10  C   UNL     1      61.925  11.416   3.546  1.00  0.00     0.001 A 
HETATM   11  C   UNL     1      61.708  11.256   2.187  1.00  0.00     0.002 A 
ENDROOT
BRANCH   1  12
HETATM   12  C   UNL     1      63.480   7.904   5.838  1.00  0.00     0.210 C 
HETATM   13  O   UNL     1      62.721   7.686   6.761  1.00  0.00    -0.644 OA
HETATM   14  O   UNL     1      64.775   8.182   6.094  1.00  0.00    -0.644 OA
ENDBRANCH   1  12
TORSDOF 1
ENDMDL
MODEL 3
REMARK VINA RESULT:      -5.2      1.688      3.336
REMARK  1 active torsions:
REMARK  status: ('A' for Active; 'I' for Inactive)
REMARK    1  A    between atoms: C_1  and  C_2 
ROOT
HETATM    1  C   UNL     1      64.733   7.745   4.758  1.00  0.00     0.054 A 
HETATM    2  C   UNL     1      63.758   8.722   4.400  1.00  0.00     0.008 A 
HETATM    3  N   UNL     1      63.214   7.376   2.454  1.00  0.00    -0.365 N 
ATOM      4  HN  UNL     1      62.663   7.233   1.608  1.00  0.00     0.165 HD
HETATM    5  C   UNL     1      63.029   8.465   3.216  1.00  0.00     0.043 A 
HETATM    6  C   UNL     1      64.140   6.478   2.828  1.00  0.00     0.089 A 
HETATM    7  C   UNL     1      64.917   6.614   3.954  1.00  0.00     0.036 A 
HETATM    8  C   UNL     1      63.451   9.916   5.112  1.00  0.00     0.015 A 
HETATM    9  C   UNL     1      62.063   9.367   2.794  1.00  0.00     0.030 A 
HETATM   10  C   UNL     1      62.472  10.808   4.667  1.00  0.00     0.001 A 
HETATM   11  C   UNL     1      61.776  10.533   3.502  1.00  0.00     0.002 A 
ENDROOT
BRANCH   1  12
HETATM   12  C   UNL     1      65.590   7.881   5.976  1.00  0.00     0.210 C 
HETATM   13  O   UNL     1      66.637   8.485   6.094  1.00  0.00    -0.644 OA
HETATM   14  O   UNL     1      65.077   7.226   7.039  1.00  0.00    -0.644 OA
ENDBRANCH   1  12
TORSDOF 1
ENDMDL
MODEL 4
REMARK VINA RESULT:      -5.2      2.465      3.250
REMARK  1 active torsions:
REMARK  status: ('A' for Active; 'I' for Inactive)
REMARK    1  A    between atoms: C_1  and  C_2 
ROOT
HETATM    1  C   UNL     1      62.418   9.957   3.548  1.00  0.00     0.054 A 
HETATM    2  C   UNL     1      62.469   8.978   2.513  1.00  0.00     0.008 A 
HETATM    3  N   UNL     1      63.222   7.364   4.163  1.00  0.00    -0.365 N 
ATOM      4  HN  UNL     1      63.518   6.416   4.397  1.00  0.00     0.165 HD
HETATM    5  C   UNL     1      62.889   7.685   2.903  1.00  0.00     0.043 A 
HETATM    6  C   UNL     1      63.157   8.314   5.109  1.00  0.00     0.089 A 
HETATM    7  C   UNL     1      62.768   9.608   4.858  1.00  0.00     0.036 A 
HETATM    8  C   UNL     1      62.141   9.174   1.141  1.00  0.00     0.015 A 
HETATM    9  C   UNL     1      62.971   6.673   1.956  1.00  0.00     0.030 A 
HETATM   10  C   UNL     1      62.230   8.138   0.207  1.00  0.00     0.001 A 
HETATM   11  C   UNL     1      62.648   6.883   0.617  1.00  0.00     0.002 A 
ENDROOT
BRANCH   1  12
HETATM   12  C   UNL     1      62.003  11.370   3.290  1.00  0.00     0.210 C 
HETATM   13  O   UNL     1      61.832  11.919   2.220  1.00  0.00    -0.644 OA
HETATM   14  O   UNL     1      61.813  12.066   4.431  1.00  0.00    -0.644 OA
ENDBRANCH   1  12
TORSDOF 1
ENDMDL
MODEL 5
REMARK VINA RESULT:      -5.2      2.047      2.922
REMARK  1 active torsions:
REMARK  status: ('A' for Active; 'I' for Inactive)
REMARK    1  A    between atoms: C_1  and  C_2 
ROOT
HETATM    1  C   UNL     1      62.953   9.407   4.468  1.00  0.00     0.054 A 
HETATM    2  C   UNL     1      62.676   8.941   3.149  1.00  0.00     0.008 A 
HETATM    3  N   UNL     1      63.650   6.805   3.767  1.00  0.00    -0.365 N 
ATOM      4  HN  UNL     1      63.910   5.850   3.519  1.00  0.00     0.165 HD
HETATM    5  C   UNL     1      63.062   7.609   2.869  1.00  0.00     0.043 A 
HETATM    6  C   UNL     1      63.891   7.281   4.999  1.00  0.00     0.089 A 
HETATM    7  C   UNL     1      63.567   8.557   5.395  1.00  0.00     0.036 A 
HETATM    8  C   UNL     1      62.056   9.677   2.100  1.00  0.00     0.015 A 
HETATM    9  C   UNL     1      62.833   7.077   1.607  1.00  0.00     0.030 A 
HETATM   10  C   UNL     1      61.834   9.118   0.839  1.00  0.00     0.001 A 
HETATM   11  C   UNL     1      62.226   7.813   0.591  1.00  0.00     0.002 A 
ENDROOT
BRANCH   1  12
HETATM   12  C   UNL     1      62.613  10.794   4.912  1.00  0.00     0.210 C 
HETATM   13  O   UNL     1      61.906  11.609   4.352  1.00  0.00    -0.644 OA
HETATM   14  O   UNL     1      63.198  11.116   6.084  1.00  0.00    -0.644 OA
ENDBRANCH   1  12
TORSDOF 1
ENDMDL
MODEL 6
REMARK VINA RESULT:      -5.1      2.626      3.737
REMARK  1 active torsions:
REMARK  status: ('A' for Active; 'I' for Inactive)
REMARK    1  A    between atoms: C_1  and  C_2 
ROOT
HETATM    1  C   UNL     1      62.364   9.313   3.343  1.00  0.00     0.054 A 
HETATM    2  C   UNL     1      63.422   8.475   3.804  1.00  0.00     0.008 A 
HETATM    3  N   UNL     1      63.790  10.044   5.619  1.00  0.00    -0.365 N 
ATOM      4  HN  UNL     1      64.307  10.321   6.454  1.00  0.00     0.165 HD
HETATM    5  C   UNL     1      64.100   8.915   4.965  1.00  0.00     0.043 A 
HETATM    6  C   UNL     1      62.784  10.804   5.154  1.00  0.00     0.089 A 
HETATM    7  C   UNL     1      62.051  10.488   4.035  1.00  0.00     0.036 A 
HETATM    8  C   UNL     1      63.856   7.253   3.216  1.00  0.00     0.015 A 
HETATM    9  C   UNL     1      65.146   8.161   5.478  1.00  0.00     0.030 A 
HETATM   10  C   UNL     1      64.911   6.511   3.754  1.00  0.00     0.001 A 
HETATM   11  C   UNL     1      65.559   6.967   4.889  1.00  0.00     0.002 A 
ENDROOT
BRANCH   1  12
HETATM   12  C   UNL     1      61.562   8.986   2.124  1.00  0.00     0.210 C 
HETATM   13  O   UNL     1      60.556   8.310   2.047  1.00  0.00    -0.644 OA
HETATM   14  O   UNL     1      62.076   9.542   1.007  1.00  0.00    -0.644 OA
ENDBRANCH   1  12
TORSDOF 1
ENDMDL
MODEL 7
REMARK VINA RESULT:      -4.7      2.081      2.742
REMARK  1 active torsions:
REMARK  status: ('A' for Active; 'I' for Inactive)
REMARK    1  A    between atoms: C_1  and  C_2 
ROOT
HETATM    1  C   UNL     1      63.184   8.189   5.064  1.00  0.00     0.054 A 
HETATM    2  C   UNL     1      62.386   8.282   3.886  1.00  0.00     0.008 A 
HETATM    3  N   UNL     1      60.881   6.639   4.850  1.00  0.00    -0.365 N 
ATOM      4  HN  UNL     1      60.039   6.067   4.781  1.00  0.00     0.165 HD
HETATM    5  C   UNL     1      61.234   7.462   3.851  1.00  0.00     0.043 A 
HETATM    6  C   UNL     1      61.658   6.583   5.944  1.00  0.00     0.089 A 
HETATM    7  C   UNL     1      62.804   7.325   6.098  1.00  0.00     0.036 A 
HETATM    8  C   UNL     1      62.634   9.111   2.755  1.00  0.00     0.015 A 
HETATM    9  C   UNL     1      60.404   7.488   2.739  1.00  0.00     0.030 A 
HETATM   10  C   UNL     1      61.781   9.120   1.647  1.00  0.00     0.001 A 
HETATM   11  C   UNL     1      60.662   8.305   1.639  1.00  0.00     0.002 A 
ENDROOT
BRANCH   1  12
HETATM   12  C   UNL     1      64.436   8.985   5.244  1.00  0.00     0.210 C 
HETATM   13  O   UNL     1      65.578   8.656   4.991  1.00  0.00    -0.644 OA
HETATM   14  O   UNL     1      64.196  10.210   5.756  1.00  0.00    -0.644 OA
ENDBRANCH   1  12
TORSDOF 1
ENDMDL
MODEL 8
REMARK VINA RESULT:      -4.7      2.345      3.551
REMARK  1 active torsions:
REMARK  status: ('A' for Active; 'I' for Inactive)
REMARK    1  A    between atoms: C_1  and  C_2 
ROOT
HETATM    1  C   UNL     1      63.264   7.382   3.372  1.00  0.00     0.054 A 
HETATM    2  C   UNL     1      62.777   8.707   3.174  1.00  0.00     0.008 A 
HETATM    3  N   UNL     1      63.070   9.103   5.551  1.00  0.00    -0.365 N 
ATOM      4  HN  UNL     1      63.002   9.727   6.356  1.00  0.00     0.165 HD
HETATM    5  C   UNL     1      62.706   9.520   4.329  1.00  0.00     0.043 A 
HETATM    6  C   UNL     1      63.527   7.849   5.694  1.00  0.00     0.089 A 
HETATM    7  C   UNL     1      63.641   6.960   4.652  1.00  0.00     0.036 A 
HETATM    8  C   UNL     1      62.361   9.284   1.940  1.00  0.00     0.015 A 
HETATM    9  C   UNL     1      62.238  10.823   4.226  1.00  0.00     0.030 A 
HETATM   10  C   UNL     1      61.896  10.600   1.862  1.00  0.00     0.001 A 
HETATM   11  C   UNL     1      61.833  11.372   3.010  1.00  0.00     0.002 A 
ENDROOT
BRANCH   1  12
HETATM   12  C   UNL     1      63.388   6.402   2.249  1.00  0.00     0.210 C 
HETATM   13  O   UNL     1      62.610   6.202   1.339  1.00  0.00    -0.644 OA
HETATM   14  O   UNL     1      64.528   5.682   2.320  1.00  0.00    -0.644 OA
ENDBRANCH   1  12
TORSDOF 1
ENDMDL
MODEL 9
REMARK VINA RESULT:      -4.6      4.224      6.524
REMARK  1 active torsions:
REMARK  status: ('A' for Active; 'I' for Inactive)
REMARK    1  A    between atoms: C_1  and  C_2 
ROOT
HETATM    1  C   UNL     1      65.577   7.245   5.476  1.00  0.00     0.054 A 
HETATM    2  C   UNL     1      66.385   6.647   6.487  1.00  0.00     0.008 A 
HETATM    3  N   UNL     1      67.347   5.211   4.783  1.00  0.00    -0.365 N 
ATOM      4  HN  UNL     1      67.992   4.465   4.521  1.00  0.00     0.165 HD
HETATM    5  C   UNL     1      67.257   5.620   6.058  1.00  0.00     0.043 A 
HETATM    6  C   UNL     1      66.572   5.802   3.860  1.00  0.00     0.089 A 
HETATM    7  C   UNL     1      65.682   6.808   4.150  1.00  0.00     0.036 A 
HETATM    8  C   UNL     1      66.398   6.982   7.872  1.00  0.00     0.015 A 
HETATM    9  C   UNL     1      68.075   4.982   6.980  1.00  0.00     0.030 A 
HETATM   10  C   UNL     1      67.233   6.325   8.780  1.00  0.00     0.001 A 
HETATM   11  C   UNL     1      68.074   5.320   8.332  1.00  0.00     0.002 A 
ENDROOT
BRANCH   1  12
HETATM   12  C   UNL     1      64.601   8.337   5.776  1.00  0.00     0.210 C 
HETATM   13  O   UNL     1      64.736   9.532   5.606  1.00  0.00    -0.644 OA
HETATM   14  O   UNL     1      63.450   7.866   6.300  1.00  0.00    -0.644 OA
ENDBRANCH   1  12
TORSDOF 1
ENDMDL
