MODEL 1
REMARK VINA RESULT:      -5.5      0.000      0.000
REMARK  1 active torsions:
REMARK  status: ('A' for Active; 'I' for Inactive)
REMARK    1  A    between atoms: CA_3  and  C_4 
ROOT
HETATM    1  N   UNL     1      63.255   8.968   5.991  1.00  0.00    -0.360 N 
ATOM      2  HN  UNL     1      63.432   9.117   6.985  1.00  0.00     0.165 HD
HETATM    3  CA  UNL     1      63.502   7.775   5.392  1.00  0.00     0.110 A 
HETATM    4  C   UNL     1      63.272   7.531   4.042  1.00  0.00     0.049 A 
HETATM    5  C   UNL     1      62.761   8.562   3.247  1.00  0.00    -0.022 A 
HETATM    6  C   UNL     1      62.764   9.950   5.201  1.00  0.00     0.100 A 
HETATM    7  C   UNL     1      62.499   9.815   3.835  1.00  0.00    -0.011 A 
HETATM    8  C   UNL     1      62.504   8.382   1.877  1.00  0.00     0.012 A 
HETATM    9  C   UNL     1      61.991  10.862   3.048  1.00  0.00     0.013 A 
HETATM   10  C   UNL     1      61.997   9.430   1.105  1.00  0.00     0.001 A 
HETATM   11  C   UNL     1      61.742  10.668   1.689  1.00  0.00     0.001 A 
ENDROOT
BRANCH   3  12
HETATM   12  C   UNL     1      64.053   6.667   6.229  1.00  0.00     0.226 C 
HETATM   13  O   UNL     1      64.049   5.484   5.929  1.00  0.00    -0.643 OA
HETATM   14  OXT UNL     1      64.584   7.083   7.395  1.00  0.00    -0.643 OA
ENDBRANCH   3  12
TORSDOF 1
ENDMDL
MODEL 2
REMARK VINA RESULT:      -5.4      1.108      2.187
REMARK  1 active torsions:
REMARK  status: ('A' for Active; 'I' for Inactive)
REMARK    1  A    between atoms: CA_3  and  C_4 
ROOT
HETATM    1  N   UNL     1      63.238   6.913   3.839  1.00  0.00    -0.360 N 
ATOM      2  HN  UNL     1      63.493   5.929   3.748  1.00  0.00     0.165 HD
HETATM    3  CA  UNL     1      63.241   7.544   5.041  1.00  0.00     0.110 A 
HETATM    4  C   UNL     1      62.903   8.883   5.207  1.00  0.00     0.049 A 
HETATM    5  C   UNL     1      62.535   9.630   4.083  1.00  0.00    -0.022 A 
HETATM    6  C   UNL     1      62.878   7.656   2.767  1.00  0.00     0.100 A 
HETATM    7  C   UNL     1      62.516   9.005   2.821  1.00  0.00    -0.011 A 
HETATM    8  C   UNL     1      62.183  10.988   4.180  1.00  0.00     0.012 A 
HETATM    9  C   UNL     1      62.145   9.742   1.684  1.00  0.00     0.013 A 
HETATM   10  C   UNL     1      61.818  11.710   3.042  1.00  0.00     0.001 A 
HETATM   11  C   UNL     1      61.797  11.089   1.796  1.00  0.00     0.001 A 
ENDROOT
BRANCH   3  12
HETATM   12  C   UNL     1      63.625   6.755   6.250  1.00  0.00     0.226 C 
HETATM   13  O   UNL     1      64.360   7.142   7.143  1.00  0.00    -0.643 OA
HETATM   14  OXT UNL     1      63.077   5.525   6.290  1.00  0.00    -0.643 OA
ENDBRANCH   3  12
TORSDOF 1
ENDMDL
MODEL 3
REMARK VINA RESULT:      -5.2      2.538      3.845
REMARK  1 active torsions:
REMARK  status: ('A' for Active; 'I' for Inactive)
REMARK    1  A    between atoms: CA_3  and  C_4 
ROOT
HETATM    1  N   UNL     1      64.345   9.152   5.504  1.00  0.00    -0.360 N 
ATOM      2  HN  UNL     1      64.737   9.580   6.343  1.00  0.00     0.165 HD
HETATM    3  CA  UNL     1      63.333   9.734   4.811  1.00  0.00     0.110 A 
HETATM    4  C   UNL     1      62.773   9.186   3.662  1.00  0.00     0.049 A 
HETATM    5  C   UNL     1      63.268   7.968   3.185  1.00  0.00    -0.022 A 
HETATM    6  C   UNL     1      64.806   7.974   5.024  1.00  0.00     0.100 A 
HETATM    7  C   UNL     1      64.314   7.333   3.883  1.00  0.00    -0.011 A 
HETATM    8  C   UNL     1      62.749   7.360   2.029  1.00  0.00     0.012 A 
HETATM    9  C   UNL     1      64.819   6.107   3.419  1.00  0.00     0.013 A 
HETATM   10  C   UNL     1      63.260   6.141   1.576  1.00  0.00     0.001 A 
HETATM   11  C   UNL     1      64.292   5.515   2.270  1.00  0.00     0.001 A 
ENDROOT
BRANCH   3  12
HETATM   12  C   UNL     1      62.791  11.032   5.314  1.00  0.00     0.226 C 
HETATM   13  O   UNL     1      62.031  11.766   4.702  1.00  0.00    -0.643 OA
HETATM   14  OXT UNL     1      63.217  11.354   6.551  1.00  0.00    -0.643 OA
ENDBRANCH   3  12
TORSDOF 1
ENDMDL
MODEL 4
REMARK VINA RESULT:      -5.0      3.167      4.914
REMARK  1 active torsions:
REMARK  status: ('A' for Active; 'I' for Inactive)
REMARK    1  A    between atoms: CA_3  and  C_4 
ROOT
HETATM    1  N   UNL     1      60.906   9.147   3.206  1.00  0.00    -0.360 N 
ATOM      2  HN  UNL     1      60.207   9.527   2.567  1.00  0.00     0.165 HD
HETATM    3  CA  UNL     1      61.882   9.924   3.742  1.00  0.00     0.110 A 
HETATM    4  C   UNL     1      62.850   9.446   4.619  1.00  0.00     0.049 A 
HETATM    5  C   UNL     1      62.830   8.093   4.974  1.00  0.00    -0.022 A 
HETATM    6  C   UNL     1      60.908   7.842   3.563  1.00  0.00     0.100 A 
HETATM    7  C   UNL     1      61.834   7.258   4.431  1.00  0.00    -0.011 A 
HETATM    8  C   UNL     1      63.778   7.546   5.856  1.00  0.00     0.012 A 
HETATM    9  C   UNL     1      61.805   5.895   4.775  1.00  0.00     0.013 A 
HETATM   10  C   UNL     1      63.737   6.191   6.191  1.00  0.00     0.001 A 
HETATM   11  C   UNL     1      62.754   5.366   5.651  1.00  0.00     0.001 A 
ENDROOT
BRANCH   3  12
HETATM   12  C   UNL     1      61.917  11.369   3.366  1.00  0.00     0.226 C 
HETATM   13  O   UNL     1      61.989  11.802   2.227  1.00  0.00    -0.643 OA
HETATM   14  OXT UNL     1      61.862  12.205   4.421  1.00  0.00    -0.643 OA
ENDBRANCH   3  12
TORSDOF 1
ENDMDL
MODEL 5
REMARK VINA RESULT:      -4.8      1.869      2.791
REMARK  1 active torsions:
REMARK  status: ('A' for Active; 'I' for Inactive)
REMARK    1  A    between atoms: CA_3  and  C_4 
ROOT
HETATM    1  N   UNL     1      65.363   6.641   4.322  1.00  0.00    -0.360 N 
ATOM      2  HN  UNL     1      66.066   5.925   4.504  1.00  0.00     0.165 HD
HETATM    3  CA  UNL     1      65.253   7.748   5.101  1.00  0.00     0.110 A 
HETATM    4  C   UNL     1      64.311   8.749   4.886  1.00  0.00     0.049 A 
HETATM    5  C   UNL     1      63.421   8.619   3.813  1.00  0.00    -0.022 A 
HETATM    6  C   UNL     1      64.491   6.537   3.293  1.00  0.00     0.100 A 
HETATM    7  C   UNL     1      63.505   7.480   2.989  1.00  0.00    -0.011 A 
HETATM    8  C   UNL     1      62.446   9.593   3.539  1.00  0.00     0.012 A 
HETATM    9  C   UNL     1      62.615   7.333   1.911  1.00  0.00     0.013 A 
HETATM   10  C   UNL     1      61.569   9.437   2.464  1.00  0.00     0.001 A 
HETATM   11  C   UNL     1      61.651   8.309   1.652  1.00  0.00     0.001 A 
ENDROOT
BRANCH   3  12
HETATM   12  C   UNL     1      66.192   7.896   6.252  1.00  0.00     0.226 C 
HETATM   13  O   UNL     1      66.489   8.948   6.794  1.00  0.00    -0.643 OA
HETATM   14  OXT UNL     1      66.717   6.729   6.676  1.00  0.00    -0.643 OA
ENDBRANCH   3  12
TORSDOF 1
ENDMDL
MODEL 6
REMARK VINA RESULT:      -4.6      2.240      3.163
REMARK  1 active torsions:
REMARK  status: ('A' for Active; 'I' for Inactive)
REMARK    1  A    between atoms: CA_3  and  C_4 
ROOT
HETATM    1  N   UNL     1      62.347   7.874   5.201  1.00  0.00    -0.360 N 
ATOM      2  HN  UNL     1      62.624   7.604   6.145  1.00  0.00     0.165 HD
HETATM    3  CA  UNL     1      62.728   9.057   4.655  1.00  0.00     0.110 A 
HETATM    4  C   UNL     1      62.374   9.460   3.371  1.00  0.00     0.049 A 
HETATM    5  C   UNL     1      61.583   8.610   2.591  1.00  0.00    -0.022 A 
HETATM    6  C   UNL     1      61.582   7.070   4.428  1.00  0.00     0.100 A 
HETATM    7  C   UNL     1      61.167   7.377   3.129  1.00  0.00    -0.011 A 
HETATM    8  C   UNL     1      61.192   8.955   1.286  1.00  0.00     0.012 A 
HETATM    9  C   UNL     1      60.368   6.515   2.358  1.00  0.00     0.013 A 
HETATM   10  C   UNL     1      60.400   8.090   0.529  1.00  0.00     0.001 A 
HETATM   11  C   UNL     1      59.987   6.872   1.064  1.00  0.00     0.001 A 
ENDROOT
BRANCH   3  12
HETATM   12  C   UNL     1      63.567   9.976   5.480  1.00  0.00     0.226 C 
HETATM   13  O   UNL     1      63.195  11.034   5.961  1.00  0.00    -0.643 OA
HETATM   14  OXT UNL     1      64.826   9.536   5.670  1.00  0.00    -0.643 OA
ENDBRANCH   3  12
TORSDOF 1
ENDMDL
MODEL 7
REMARK VINA RESULT:      -4.4      2.931      4.844
REMARK  1 active torsions:
REMARK  status: ('A' for Active; 'I' for Inactive)
REMARK    1  A    between atoms: CA_3  and  C_4 
ROOT
HETATM    1  N   UNL     1      62.528   7.981   4.806  1.00  0.00    -0.360 N 
ATOM      2  HN  UNL     1      61.515   8.091   4.756  1.00  0.00     0.165 HD
HETATM    3  CA  UNL     1      63.354   9.044   4.990  1.00  0.00     0.110 A 
HETATM    4  C   UNL     1      64.738   8.936   5.066  1.00  0.00     0.049 A 
HETATM    5  C   UNL     1      65.325   7.672   4.948  1.00  0.00    -0.022 A 
HETATM    6  C   UNL     1      63.118   6.770   4.693  1.00  0.00     0.100 A 
HETATM    7  C   UNL     1      64.497   6.549   4.751  1.00  0.00    -0.011 A 
HETATM    8  C   UNL     1      66.717   7.493   5.018  1.00  0.00     0.012 A 
HETATM    9  C   UNL     1      65.072   5.273   4.626  1.00  0.00     0.013 A 
HETATM   10  C   UNL     1      67.277   6.219   4.893  1.00  0.00     0.001 A 
HETATM   11  C   UNL     1      66.457   5.111   4.696  1.00  0.00     0.001 A 
ENDROOT
BRANCH   3  12
HETATM   12  C   UNL     1      62.740  10.400   5.111  1.00  0.00     0.226 C 
HETATM   13  O   UNL     1      61.894  10.864   4.364  1.00  0.00    -0.643 OA
HETATM   14  OXT UNL     1      63.207  11.114   6.155  1.00  0.00    -0.643 OA
ENDBRANCH   3  12
TORSDOF 1
ENDMDL
MODEL 8
REMARK VINA RESULT:      -4.4      2.818      5.130
REMARK  1 active torsions:
REMARK  status: ('A' for Active; 'I' for Inactive)
REMARK    1  A    between atoms: CA_3  and  C_4 
ROOT
HETATM    1  N   UNL     1      61.932   7.958   4.661  1.00  0.00    -0.360 N 
ATOM      2  HN  UNL     1      60.960   7.915   4.355  1.00  0.00     0.165 HD
HETATM    3  CA  UNL     1      62.716   9.036   4.399  1.00  0.00     0.110 A 
HETATM    4  C   UNL     1      64.044   9.136   4.800  1.00  0.00     0.049 A 
HETATM    5  C   UNL     1      64.616   8.076   5.511  1.00  0.00    -0.022 A 
HETATM    6  C   UNL     1      62.508   6.946   5.348  1.00  0.00     0.100 A 
HETATM    7  C   UNL     1      63.832   6.940   5.795  1.00  0.00    -0.011 A 
HETATM    8  C   UNL     1      65.951   8.113   5.947  1.00  0.00     0.012 A 
HETATM    9  C   UNL     1      64.395   5.865   6.504  1.00  0.00     0.013 A 
HETATM   10  C   UNL     1      66.499   7.040   6.653  1.00  0.00     0.001 A 
HETATM   11  C   UNL     1      65.723   5.917   6.930  1.00  0.00     0.001 A 
ENDROOT
BRANCH   3  12
HETATM   12  C   UNL     1      62.118  10.172   3.635  1.00  0.00     0.226 C 
HETATM   13  O   UNL     1      61.766  11.238   4.113  1.00  0.00    -0.643 OA
HETATM   14  OXT UNL     1      61.990   9.930   2.316  1.00  0.00    -0.643 OA
ENDBRANCH   3  12
TORSDOF 1
ENDMDL
MODEL 9
REMARK VINA RESULT:      -4.3      5.336      7.987
REMARK  1 active torsions:
REMARK  status: ('A' for Active; 'I' for Inactive)
REMARK    1  A    between atoms: CA_3  and  C_4 
ROOT
HETATM    1  N   UNL     1      67.456   5.474   4.840  1.00  0.00    -0.360 N 
ATOM      2  HN  UNL     1      67.330   5.721   3.858  1.00  0.00     0.165 HD
HETATM    3  CA  UNL     1      67.524   6.421   5.811  1.00  0.00     0.110 A 
HETATM    4  C   UNL     1      67.692   6.127   7.160  1.00  0.00     0.049 A 
HETATM    5  C   UNL     1      67.799   4.788   7.551  1.00  0.00    -0.022 A 
HETATM    6  C   UNL     1      67.563   4.187   5.242  1.00  0.00     0.100 A 
HETATM    7  C   UNL     1      67.737   3.781   6.568  1.00  0.00    -0.011 A 
HETATM    8  C   UNL     1      67.968   4.422   8.897  1.00  0.00     0.012 A 
HETATM    9  C   UNL     1      67.848   2.431   6.945  1.00  0.00     0.013 A 
HETATM   10  C   UNL     1      68.075   3.077   9.260  1.00  0.00     0.001 A 
HETATM   11  C   UNL     1      68.016   2.083   8.286  1.00  0.00     0.001 A 
ENDROOT
BRANCH   3  12
HETATM   12  C   UNL     1      67.418   7.854   5.406  1.00  0.00     0.226 C 
HETATM   13  O   UNL     1      68.029   8.378   4.488  1.00  0.00    -0.643 OA
HETATM   14  OXT UNL     1      66.557   8.568   6.159  1.00  0.00    -0.643 OA
ENDBRANCH   3  12
TORSDOF 1
ENDMDL
