MODEL 1
REMARK VINA RESULT:      -4.8      0.000      0.000
REMARK  2 active torsions:
REMARK  status: ('A' for Active; 'I' for Inactive)
REMARK    1  A    between atoms: C_7  and  C_11 
REMARK    2  A    between atoms: N_9  and  C_11 
ROOT
HETATM    1  N   UNL     1      62.252   9.573   1.744  1.00  0.00    -0.365 N 
ATOM      2  HN  UNL     1      62.255   9.124   0.828  1.00  0.00     0.165 HD
HETATM    3  C   UNL     1      62.660   9.506   4.121  1.00  0.00    -0.009 A 
HETATM    4  C   UNL     1      62.647   8.907   2.844  1.00  0.00     0.042 A 
HETATM    5  C   UNL     1      63.091   8.774   5.244  1.00  0.00     0.022 A 
HETATM    6  C   UNL     1      63.059   7.587   2.737  1.00  0.00     0.031 A 
HETATM    7  C   UNL     1      63.496   7.436   5.123  1.00  0.00    -0.032 A 
HETATM    8  C   UNL     1      63.475   6.851   3.853  1.00  0.00     0.011 A 
HETATM    9  C   UNL     1      61.853  10.856   1.890  1.00  0.00     0.088 A 
HETATM   10  C   UNL     1      62.234  10.835   4.231  1.00  0.00     0.015 A 
HETATM   11  C   UNL     1      61.823  11.524   3.098  1.00  0.00     0.018 A 
ENDROOT
BRANCH   7  12
HETATM   12  C   UNL     1      63.965   6.656   6.330  1.00  0.00     0.270 C 
BRANCH  12  13
HETATM   13  N   UNL     1      65.099   7.308   6.983  1.00  0.00    -0.075 N 
HETATM   14  C   UNL     1      66.362   6.806   6.463  1.00  0.00     0.267 C 
HETATM   15  H   UNL     1      65.056   7.125   7.986  1.00  0.00     0.277 HD
HETATM   16  H   UNL     1      65.048   8.310   6.800  1.00  0.00     0.277 HD
ENDBRANCH  12  13
ENDBRANCH   7  12
TORSDOF 2
ENDMDL
MODEL 2
REMARK VINA RESULT:      -4.7      1.340      2.478
REMARK  2 active torsions:
REMARK  status: ('A' for Active; 'I' for Inactive)
REMARK    1  A    between atoms: C_7  and  C_11 
REMARK    2  A    between atoms: N_9  and  C_11 
ROOT
HETATM    1  N   UNL     1      61.174   9.551   2.167  1.00  0.00    -0.365 N 
ATOM      2  HN  UNL     1      60.610  10.376   2.371  1.00  0.00     0.165 HD
HETATM    3  C   UNL     1      62.945   8.017   2.746  1.00  0.00    -0.009 A 
HETATM    4  C   UNL     1      62.155   9.158   3.000  1.00  0.00     0.042 A 
HETATM    5  C   UNL     1      63.954   7.636   3.650  1.00  0.00     0.022 A 
HETATM    6  C   UNL     1      62.411   9.886   4.152  1.00  0.00     0.031 A 
HETATM    7  C   UNL     1      64.208   8.387   4.807  1.00  0.00    -0.032 A 
HETATM    8  C   UNL     1      63.423   9.518   5.048  1.00  0.00     0.011 A 
HETATM    9  C   UNL     1      60.959   8.819   1.052  1.00  0.00     0.088 A 
HETATM   10  C   UNL     1      62.693   7.288   1.577  1.00  0.00     0.015 A 
HETATM   11  C   UNL     1      61.685   7.693   0.714  1.00  0.00     0.018 A 
ENDROOT
BRANCH   7  12
HETATM   12  C   UNL     1      65.288   7.970   5.780  1.00  0.00     0.270 C 
BRANCH  12  13
HETATM   13  N   UNL     1      64.733   7.233   6.915  1.00  0.00    -0.075 N 
HETATM   14  C   UNL     1      65.782   6.551   7.659  1.00  0.00     0.267 C 
HETATM   15  H   UNL     1      64.067   6.541   6.569  1.00  0.00     0.277 HD
HETATM   16  H   UNL     1      64.272   7.895   7.538  1.00  0.00     0.277 HD
ENDBRANCH  12  13
ENDBRANCH   7  12
TORSDOF 2
ENDMDL
MODEL 3
REMARK VINA RESULT:      -4.7      1.512      5.008
REMARK  2 active torsions:
REMARK  status: ('A' for Active; 'I' for Inactive)
REMARK    1  A    between atoms: C_7  and  C_11 
REMARK    2  A    between atoms: N_9  and  C_11 
ROOT
HETATM    1  N   UNL     1      65.985   5.996   4.084  1.00  0.00    -0.365 N 
ATOM      2  HN  UNL     1      65.886   5.233   3.414  1.00  0.00     0.165 HD
HETATM    3  C   UNL     1      65.204   8.069   5.042  1.00  0.00    -0.009 A 
HETATM    4  C   UNL     1      65.095   7.005   4.122  1.00  0.00     0.042 A 
HETATM    5  C   UNL     1      64.244   9.098   5.053  1.00  0.00     0.022 A 
HETATM    6  C   UNL     1      64.029   7.015   3.236  1.00  0.00     0.031 A 
HETATM    7  C   UNL     1      63.175   9.100   4.145  1.00  0.00    -0.032 A 
HETATM    8  C   UNL     1      63.078   8.043   3.235  1.00  0.00     0.011 A 
HETATM    9  C   UNL     1      67.013   6.026   4.959  1.00  0.00     0.088 A 
HETATM   10  C   UNL     1      66.287   8.065   5.930  1.00  0.00     0.015 A 
HETATM   11  C   UNL     1      67.208   7.028   5.890  1.00  0.00     0.018 A 
ENDROOT
BRANCH   7  12
HETATM   12  C   UNL     1      62.142  10.204   4.166  1.00  0.00     0.270 C 
BRANCH  12  13
HETATM   13  N   UNL     1      61.423  10.291   2.895  1.00  0.00    -0.075 N 
HETATM   14  C   UNL     1      61.786  11.499   2.170  1.00  0.00     0.267 C 
HETATM   15  H   UNL     1      60.420  10.302   3.080  1.00  0.00     0.277 HD
HETATM   16  H   UNL     1      61.674   9.483   2.325  1.00  0.00     0.277 HD
ENDBRANCH  12  13
ENDBRANCH   7  12
TORSDOF 2
ENDMDL
MODEL 4
REMARK VINA RESULT:      -4.6      1.847      5.236
REMARK  2 active torsions:
REMARK  status: ('A' for Active; 'I' for Inactive)
REMARK    1  A    between atoms: C_7  and  C_11 
REMARK    2  A    between atoms: N_9  and  C_11 
ROOT
HETATM    1  N   UNL     1      64.668   8.797   5.809  1.00  0.00    -0.365 N 
ATOM      2  HN  UNL     1      64.602   9.516   6.530  1.00  0.00     0.165 HD
HETATM    3  C   UNL     1      63.915   7.827   3.732  1.00  0.00    -0.009 A 
HETATM    4  C   UNL     1      63.843   8.804   4.746  1.00  0.00     0.042 A 
HETATM    5  C   UNL     1      63.038   7.879   2.632  1.00  0.00     0.022 A 
HETATM    6  C   UNL     1      62.882   9.798   4.628  1.00  0.00     0.031 A 
HETATM    7  C   UNL     1      62.066   8.884   2.529  1.00  0.00    -0.032 A 
HETATM    8  C   UNL     1      61.999   9.846   3.542  1.00  0.00     0.011 A 
HETATM    9  C   UNL     1      65.585   7.809   5.891  1.00  0.00     0.088 A 
HETATM   10  C   UNL     1      64.877   6.817   3.856  1.00  0.00     0.015 A 
HETATM   11  C   UNL     1      65.727   6.805   4.953  1.00  0.00     0.018 A 
ENDROOT
BRANCH   7  12
HETATM   12  C   UNL     1      61.131   8.941   1.343  1.00  0.00     0.270 C 
BRANCH  12  13
HETATM   13  N   UNL     1      59.798   8.446   1.686  1.00  0.00    -0.075 N 
HETATM   14  C   UNL     1      59.211   7.711   0.575  1.00  0.00     0.267 C 
HETATM   15  H   UNL     1      59.197   9.238   1.915  1.00  0.00     0.277 HD
HETATM   16  H   UNL     1      59.881   7.816   2.483  1.00  0.00     0.277 HD
ENDBRANCH  12  13
ENDBRANCH   7  12
TORSDOF 2
ENDMDL
MODEL 5
REMARK VINA RESULT:      -4.6      2.437      3.561
REMARK  2 active torsions:
REMARK  status: ('A' for Active; 'I' for Inactive)
REMARK    1  A    between atoms: C_7  and  C_11 
REMARK    2  A    between atoms: N_9  and  C_11 
ROOT
HETATM    1  N   UNL     1      61.732  11.035   3.041  1.00  0.00    -0.365 N 
ATOM      2  HN  UNL     1      61.209  11.703   2.474  1.00  0.00     0.165 HD
HETATM    3  C   UNL     1      62.803   8.890   3.311  1.00  0.00    -0.009 A 
HETATM    4  C   UNL     1      62.075   9.830   2.552  1.00  0.00     0.042 A 
HETATM    5  C   UNL     1      63.149   7.644   2.756  1.00  0.00     0.022 A 
HETATM    6  C   UNL     1      61.709   9.483   1.260  1.00  0.00     0.031 A 
HETATM    7  C   UNL     1      62.765   7.303   1.451  1.00  0.00    -0.032 A 
HETATM    8  C   UNL     1      62.040   8.239   0.708  1.00  0.00     0.011 A 
HETATM    9  C   UNL     1      62.101  11.334   4.306  1.00  0.00     0.088 A 
HETATM   10  C   UNL     1      63.163   9.236   4.620  1.00  0.00     0.015 A 
HETATM   11  C   UNL     1      62.807  10.477   5.128  1.00  0.00     0.018 A 
ENDROOT
BRANCH   7  12
HETATM   12  C   UNL     1      63.145   5.966   0.855  1.00  0.00     0.270 C 
BRANCH  12  13
HETATM   13  N   UNL     1      63.820   5.114   1.834  1.00  0.00    -0.075 N 
HETATM   14  C   UNL     1      64.914   4.377   1.220  1.00  0.00     0.267 C 
HETATM   15  H   UNL     1      63.146   4.451   2.219  1.00  0.00     0.277 HD
HETATM   16  H   UNL     1      64.202   5.707   2.571  1.00  0.00     0.277 HD
ENDBRANCH  12  13
ENDBRANCH   7  12
TORSDOF 2
ENDMDL
MODEL 6
REMARK VINA RESULT:      -4.6      1.413      1.877
REMARK  2 active torsions:
REMARK  status: ('A' for Active; 'I' for Inactive)
REMARK    1  A    between atoms: C_7  and  C_11 
REMARK    2  A    between atoms: N_9  and  C_11 
ROOT
HETATM    1  N   UNL     1      62.433   8.408   2.794  1.00  0.00    -0.365 N 
ATOM      2  HN  UNL     1      62.148   7.831   2.002  1.00  0.00     0.165 HD
HETATM    3  C   UNL     1      63.911   8.850   4.650  1.00  0.00    -0.009 A 
HETATM    4  C   UNL     1      63.490   8.068   3.554  1.00  0.00     0.042 A 
HETATM    5  C   UNL     1      65.029   8.461   5.411  1.00  0.00     0.022 A 
HETATM    6  C   UNL     1      64.201   6.913   3.265  1.00  0.00     0.031 A 
HETATM    7  C   UNL     1      65.734   7.286   5.113  1.00  0.00    -0.032 A 
HETATM    8  C   UNL     1      65.306   6.515   4.028  1.00  0.00     0.011 A 
HETATM    9  C   UNL     1      61.763   9.537   3.111  1.00  0.00     0.088 A 
HETATM   10  C   UNL     1      63.187  10.011   4.949  1.00  0.00     0.015 A 
HETATM   11  C   UNL     1      62.094  10.362   4.168  1.00  0.00     0.018 A 
ENDROOT
BRANCH   7  12
HETATM   12  C   UNL     1      66.938   6.876   5.929  1.00  0.00     0.270 C 
BRANCH  12  13
HETATM   13  N   UNL     1      67.042   7.656   7.163  1.00  0.00    -0.075 N 
HETATM   14  C   UNL     1      66.890   6.805   8.334  1.00  0.00     0.267 C 
HETATM   15  H   UNL     1      66.310   8.366   7.170  1.00  0.00     0.277 HD
HETATM   16  H   UNL     1      67.964   8.090   7.195  1.00  0.00     0.277 HD
ENDBRANCH  12  13
ENDBRANCH   7  12
TORSDOF 2
ENDMDL
MODEL 7
REMARK VINA RESULT:      -4.5      2.182      4.476
REMARK  2 active torsions:
REMARK  status: ('A' for Active; 'I' for Inactive)
REMARK    1  A    between atoms: C_7  and  C_11 
REMARK    2  A    between atoms: N_9  and  C_11 
ROOT
HETATM    1  N   UNL     1      63.495   9.406   5.274  1.00  0.00    -0.365 N 
ATOM      2  HN  UNL     1      64.059   8.818   5.889  1.00  0.00     0.165 HD
HETATM    3  C   UNL     1      62.305   9.750   3.204  1.00  0.00    -0.009 A 
HETATM    4  C   UNL     1      63.091   8.962   4.070  1.00  0.00     0.042 A 
HETATM    5  C   UNL     1      61.896   9.240   1.957  1.00  0.00     0.022 A 
HETATM    6  C   UNL     1      63.449   7.689   3.651  1.00  0.00     0.031 A 
HETATM    7  C   UNL     1      62.273   7.955   1.541  1.00  0.00    -0.032 A 
HETATM    8  C   UNL     1      63.055   7.183   2.406  1.00  0.00     0.011 A 
HETATM    9  C   UNL     1      63.131  10.653   5.644  1.00  0.00     0.088 A 
HETATM   10  C   UNL     1      61.952  11.038   3.622  1.00  0.00     0.015 A 
HETATM   11  C   UNL     1      62.371  11.500   4.862  1.00  0.00     0.018 A 
ENDROOT
BRANCH   7  12
HETATM   12  C   UNL     1      61.825   7.410   0.205  1.00  0.00     0.270 C 
BRANCH  12  13
HETATM   13  N   UNL     1      60.730   6.451   0.355  1.00  0.00    -0.075 N 
HETATM   14  C   UNL     1      59.438   7.105   0.204  1.00  0.00     0.267 C 
HETATM   15  H   UNL     1      60.782   6.028   1.282  1.00  0.00     0.277 HD
HETATM   16  H   UNL     1      60.820   5.740  -0.370  1.00  0.00     0.277 HD
ENDBRANCH  12  13
ENDBRANCH   7  12
TORSDOF 2
ENDMDL
MODEL 8
REMARK VINA RESULT:      -4.2      1.468      5.247
REMARK  2 active torsions:
REMARK  status: ('A' for Active; 'I' for Inactive)
REMARK    1  A    between atoms: C_7  and  C_11 
REMARK    2  A    between atoms: N_9  and  C_11 
ROOT
HETATM    1  N   UNL     1      65.268   5.797   6.735  1.00  0.00    -0.365 N 
ATOM      2  HN  UNL     1      64.769   5.035   7.195  1.00  0.00     0.165 HD
HETATM    3  C   UNL     1      65.266   7.892   5.538  1.00  0.00    -0.009 A 
HETATM    4  C   UNL     1      64.602   6.822   6.174  1.00  0.00     0.042 A 
HETATM    5  C   UNL     1      64.528   8.949   4.972  1.00  0.00     0.022 A 
HETATM    6  C   UNL     1      63.215   6.845   6.214  1.00  0.00     0.031 A 
HETATM    7  C   UNL     1      63.126   8.955   5.012  1.00  0.00    -0.032 A 
HETATM    8  C   UNL     1      62.477   7.889   5.641  1.00  0.00     0.011 A 
HETATM    9  C   UNL     1      66.617   5.808   6.670  1.00  0.00     0.088 A 
HETATM   10  C   UNL     1      66.665   7.864   5.488  1.00  0.00     0.015 A 
HETATM   11  C   UNL     1      67.354   6.805   6.062  1.00  0.00     0.018 A 
ENDROOT
BRANCH   7  12
HETATM   12  C   UNL     1      62.339  10.097   4.410  1.00  0.00     0.270 C 
BRANCH  12  13
HETATM   13  N   UNL     1      61.310   9.614   3.490  1.00  0.00    -0.075 N 
HETATM   14  C   UNL     1      61.894   9.198   2.224  1.00  0.00     0.267 C 
HETATM   15  H   UNL     1      60.639  10.363   3.317  1.00  0.00     0.277 HD
HETATM   16  H   UNL     1      60.847   8.810   3.914  1.00  0.00     0.277 HD
ENDBRANCH  12  13
ENDBRANCH   7  12
TORSDOF 2
ENDMDL
MODEL 9
REMARK VINA RESULT:      -4.1      3.027      3.839
REMARK  2 active torsions:
REMARK  status: ('A' for Active; 'I' for Inactive)
REMARK    1  A    between atoms: C_7  and  C_11 
REMARK    2  A    between atoms: N_9  and  C_11 
ROOT
HETATM    1  N   UNL     1      59.122   8.079   0.917  1.00  0.00    -0.365 N 
ATOM      2  HN  UNL     1      59.164   8.398  -0.051  1.00  0.00     0.165 HD
HETATM    3  C   UNL     1      60.135   7.815   3.091  1.00  0.00    -0.009 A 
HETATM    4  C   UNL     1      60.168   8.241   1.747  1.00  0.00     0.042 A 
HETATM    5  C   UNL     1      61.251   8.014   3.926  1.00  0.00     0.022 A 
HETATM    6  C   UNL     1      61.327   8.845   1.281  1.00  0.00     0.031 A 
HETATM    7  C   UNL     1      62.419   8.618   3.440  1.00  0.00    -0.032 A 
HETATM    8  C   UNL     1      62.444   9.033   2.105  1.00  0.00     0.011 A 
HETATM    9  C   UNL     1      58.014   7.481   1.406  1.00  0.00     0.088 A 
HETATM   10  C   UNL     1      58.970   7.196   3.558  1.00  0.00     0.015 A 
HETATM   11  C   UNL     1      57.890   7.024   2.704  1.00  0.00     0.018 A 
ENDROOT
BRANCH   7  12
HETATM   12  C   UNL     1      63.612   8.837   4.343  1.00  0.00     0.270 C 
BRANCH  12  13
HETATM   13  N   UNL     1      63.218   9.427   5.621  1.00  0.00    -0.075 N 
HETATM   14  C   UNL     1      62.979  10.856   5.486  1.00  0.00     0.267 C 
HETATM   15  H   UNL     1      63.964   9.277   6.302  1.00  0.00     0.277 HD
HETATM   16  H   UNL     1      62.354   8.982   5.932  1.00  0.00     0.277 HD
ENDBRANCH  12  13
ENDBRANCH   7  12
TORSDOF 2
ENDMDL
