MODEL 1
REMARK VINA RESULT:      -4.3      0.000      0.000
REMARK  1 active torsions:
REMARK  status: ('A' for Active; 'I' for Inactive)
REMARK    1  A    between atoms: C_1  and  C_2 
ROOT
HETATM    1  C   UNL     1      62.781   9.448   4.049  1.00  0.00     0.056 A 
HETATM    2  N   UNL     1      61.572  10.937   2.580  1.00  0.00    -0.374 N 
ATOM      3  HN  UNL     1      61.095  11.824   2.415  1.00  0.00     0.164 HD
HETATM    4  C   UNL     1      62.103  10.631   3.789  1.00  0.00     0.105 A 
HETATM    5  C   UNL     1      62.888   8.506   3.024  1.00  0.00     0.021 A 
HETATM    6  C   UNL     1      61.703  10.012   1.602  1.00  0.00     0.087 A 
HETATM    7  C   UNL     1      62.342   8.794   1.775  1.00  0.00     0.018 A 
ENDROOT
BRANCH   1   8
HETATM    8  C   UNL     1      63.318   9.216   5.403  1.00  0.00     0.210 C 
HETATM    9  O   UNL     1      62.863   8.382   6.162  1.00  0.00    -0.644 OA
HETATM   10  O   UNL     1      64.340  10.038   5.725  1.00  0.00    -0.644 OA
ENDBRANCH   1   8
TORSDOF 1
ENDMDL
MODEL 2
REMARK VINA RESULT:      -4.3      1.790      2.358
REMARK  1 active torsions:
REMARK  status: ('A' for Active; 'I' for Inactive)
REMARK    1  A    between atoms: C_1  and  C_2 
ROOT
HETATM    1  C   UNL     1      62.382   9.976   3.522  1.00  0.00     0.056 A 
HETATM    2  N   UNL     1      62.950   7.762   2.739  1.00  0.00    -0.374 N 
ATOM      3  HN  UNL     1      63.334   6.833   2.913  1.00  0.00     0.164 HD
HETATM    4  C   UNL     1      62.918   8.709   3.709  1.00  0.00     0.105 A 
HETATM    5  C   UNL     1      61.886  10.307   2.260  1.00  0.00     0.021 A 
HETATM    6  C   UNL     1      62.450   8.106   1.531  1.00  0.00     0.087 A 
HETATM    7  C   UNL     1      61.916   9.353   1.245  1.00  0.00     0.018 A 
ENDROOT
BRANCH   1   8
HETATM    8  C   UNL     1      62.400  10.930   4.647  1.00  0.00     0.210 C 
HETATM    9  O   UNL     1      61.930  12.050   4.572  1.00  0.00    -0.644 OA
HETATM   10  O   UNL     1      63.014  10.452   5.750  1.00  0.00    -0.644 OA
ENDBRANCH   1   8
TORSDOF 1
ENDMDL
MODEL 3
REMARK VINA RESULT:      -4.1      1.004      1.636
REMARK  1 active torsions:
REMARK  status: ('A' for Active; 'I' for Inactive)
REMARK    1  A    between atoms: C_1  and  C_2 
ROOT
HETATM    1  C   UNL     1      62.709   9.721   4.056  1.00  0.00     0.056 A 
HETATM    2  N   UNL     1      62.491   8.635   1.908  1.00  0.00    -0.374 N 
ATOM      3  HN  UNL     1      62.619   7.817   1.313  1.00  0.00     0.164 HD
HETATM    4  C   UNL     1      62.887   8.638   3.205  1.00  0.00     0.105 A 
HETATM    5  C   UNL     1      62.129  10.881   3.541  1.00  0.00     0.021 A 
HETATM    6  C   UNL     1      61.919   9.768   1.440  1.00  0.00     0.087 A 
HETATM    7  C   UNL     1      61.722  10.905   2.209  1.00  0.00     0.018 A 
ENDROOT
BRANCH   1   8
HETATM    8  C   UNL     1      63.180   9.617   5.450  1.00  0.00     0.210 C 
HETATM    9  O   UNL     1      62.890   8.687   6.179  1.00  0.00    -0.644 OA
HETATM   10  O   UNL     1      63.935  10.665   5.844  1.00  0.00    -0.644 OA
ENDBRANCH   1   8
TORSDOF 1
ENDMDL
MODEL 4
REMARK VINA RESULT:      -4.1      2.442      3.083
REMARK  1 active torsions:
REMARK  status: ('A' for Active; 'I' for Inactive)
REMARK    1  A    between atoms: C_1  and  C_2 
ROOT
HETATM    1  C   UNL     1      62.199   9.891   2.603  1.00  0.00     0.056 A 
HETATM    2  N   UNL     1      62.227   8.255   0.824  1.00  0.00    -0.374 N 
ATOM      3  HN  UNL     1      62.088   8.012  -0.156  1.00  0.00     0.164 HD
HETATM    4  C   UNL     1      61.997   9.510   1.283  1.00  0.00     0.105 A 
HETATM    5  C   UNL     1      62.622   8.922   3.515  1.00  0.00     0.021 A 
HETATM    6  C   UNL     1      62.650   7.341   1.727  1.00  0.00     0.087 A 
HETATM    7  C   UNL     1      62.856   7.623   3.069  1.00  0.00     0.018 A 
ENDROOT
BRANCH   1   8
HETATM    8  C   UNL     1      61.915  11.284   2.995  1.00  0.00     0.210 C 
HETATM    9  O   UNL     1      61.749  11.625   4.151  1.00  0.00    -0.644 OA
HETATM   10  O   UNL     1      61.827  12.131   1.947  1.00  0.00    -0.644 OA
ENDBRANCH   1   8
TORSDOF 1
ENDMDL
MODEL 5
REMARK VINA RESULT:      -4.1      2.236      2.834
REMARK  1 active torsions:
REMARK  status: ('A' for Active; 'I' for Inactive)
REMARK    1  A    between atoms: C_1  and  C_2 
ROOT
HETATM    1  C   UNL     1      63.134   9.665   4.594  1.00  0.00     0.056 A 
HETATM    2  N   UNL     1      64.550   7.708   4.548  1.00  0.00    -0.374 N 
ATOM      3  HN  UNL     1      65.306   7.152   4.950  1.00  0.00     0.164 HD
HETATM    4  C   UNL     1      64.173   8.890   5.093  1.00  0.00     0.105 A 
HETATM    5  C   UNL     1      62.469   9.225   3.448  1.00  0.00     0.021 A 
HETATM    6  C   UNL     1      63.880   7.299   3.447  1.00  0.00     0.087 A 
HETATM    7  C   UNL     1      62.846   8.017   2.865  1.00  0.00     0.018 A 
ENDROOT
BRANCH   1   8
HETATM    8  C   UNL     1      62.807  10.937   5.265  1.00  0.00     0.210 C 
HETATM    9  O   UNL     1      63.198  11.215   6.383  1.00  0.00    -0.644 OA
HETATM   10  O   UNL     1      62.011  11.745   4.531  1.00  0.00    -0.644 OA
ENDBRANCH   1   8
TORSDOF 1
ENDMDL
MODEL 6
REMARK VINA RESULT:      -4.0      2.671      3.399
REMARK  1 active torsions:
REMARK  status: ('A' for Active; 'I' for Inactive)
REMARK    1  A    between atoms: C_1  and  C_2 
ROOT
HETATM    1  C   UNL     1      62.122   9.826   3.972  1.00  0.00     0.056 A 
HETATM    2  N   UNL     1      63.184   8.745   5.855  1.00  0.00    -0.374 N 
ATOM      3  HN  UNL     1      63.786   8.789   6.677  1.00  0.00     0.164 HD
HETATM    4  C   UNL     1      62.955   9.836   5.084  1.00  0.00     0.105 A 
HETATM    5  C   UNL     1      61.520   8.621   3.606  1.00  0.00     0.021 A 
HETATM    6  C   UNL     1      62.576   7.595   5.485  1.00  0.00     0.087 A 
HETATM    7  C   UNL     1      61.747   7.484   4.379  1.00  0.00     0.018 A 
ENDROOT
BRANCH   1   8
HETATM    8  C   UNL     1      61.946  11.071   3.203  1.00  0.00     0.210 C 
HETATM    9  O   UNL     1      61.862  11.093   1.989  1.00  0.00    -0.644 OA
HETATM   10  O   UNL     1      61.917  12.181   3.972  1.00  0.00    -0.644 OA
ENDBRANCH   1   8
TORSDOF 1
ENDMDL
MODEL 7
REMARK VINA RESULT:      -4.0      2.437      3.306
REMARK  1 active torsions:
REMARK  status: ('A' for Active; 'I' for Inactive)
REMARK    1  A    between atoms: C_1  and  C_2 
ROOT
HETATM    1  C   UNL     1      62.138   9.966   3.766  1.00  0.00     0.056 A 
HETATM    2  N   UNL     1      61.557   7.664   3.315  1.00  0.00    -0.374 N 
ATOM      3  HN  UNL     1      61.059   6.970   2.758  1.00  0.00     0.164 HD
HETATM    4  C   UNL     1      61.457   8.990   3.050  1.00  0.00     0.105 A 
HETATM    5  C   UNL     1      62.935   9.567   4.840  1.00  0.00     0.021 A 
HETATM    6  C   UNL     1      62.348   7.305   4.352  1.00  0.00     0.087 A 
HETATM    7  C   UNL     1      63.046   8.210   5.137  1.00  0.00     0.018 A 
ENDROOT
BRANCH   1   8
HETATM    8  C   UNL     1      61.955  11.381   3.393  1.00  0.00     0.210 C 
HETATM    9  O   UNL     1      61.939  11.765   2.238  1.00  0.00    -0.644 OA
HETATM   10  O   UNL     1      61.839  12.208   4.455  1.00  0.00    -0.644 OA
ENDBRANCH   1   8
TORSDOF 1
ENDMDL
MODEL 8
REMARK VINA RESULT:      -3.9      1.523      2.035
REMARK  1 active torsions:
REMARK  status: ('A' for Active; 'I' for Inactive)
REMARK    1  A    between atoms: C_1  and  C_2 
ROOT
HETATM    1  C   UNL     1      63.829   9.036   4.753  1.00  0.00     0.056 A 
HETATM    2  N   UNL     1      62.327  10.924   4.624  1.00  0.00    -0.374 N 
ATOM      3  HN  UNL     1      61.987  11.812   4.994  1.00  0.00     0.164 HD
HETATM    4  C   UNL     1      63.320  10.234   5.237  1.00  0.00     0.105 A 
HETATM    5  C   UNL     1      63.263   8.492   3.599  1.00  0.00     0.021 A 
HETATM    6  C   UNL     1      61.807  10.381   3.499  1.00  0.00     0.087 A 
HETATM    7  C   UNL     1      62.235   9.179   2.957  1.00  0.00     0.018 A 
ENDROOT
BRANCH   1   8
HETATM    8  C   UNL     1      64.910   8.367   5.501  1.00  0.00     0.210 C 
HETATM    9  O   UNL     1      66.087   8.501   5.224  1.00  0.00    -0.644 OA
HETATM   10  O   UNL     1      64.464   7.574   6.499  1.00  0.00    -0.644 OA
ENDBRANCH   1   8
TORSDOF 1
ENDMDL
MODEL 9
REMARK VINA RESULT:      -3.8      5.639      6.939
REMARK  1 active torsions:
REMARK  status: ('A' for Active; 'I' for Inactive)
REMARK    1  A    between atoms: C_1  and  C_2 
ROOT
HETATM    1  C   UNL     1      66.888   6.799   6.840  1.00  0.00     0.056 A 
HETATM    2  N   UNL     1      66.227   5.465   8.743  1.00  0.00    -0.374 N 
ATOM      3  HN  UNL     1      65.662   5.340   9.583  1.00  0.00     0.164 HD
HETATM    4  C   UNL     1      66.157   6.599   8.003  1.00  0.00     0.105 A 
HETATM    5  C   UNL     1      67.772   5.799   6.431  1.00  0.00     0.021 A 
HETATM    6  C   UNL     1      67.081   4.507   8.315  1.00  0.00     0.087 A 
HETATM    7  C   UNL     1      67.868   4.628   7.181  1.00  0.00     0.018 A 
ENDROOT
BRANCH   1   8
HETATM    8  C   UNL     1      66.736   8.073   6.113  1.00  0.00     0.210 C 
HETATM    9  O   UNL     1      65.896   8.904   6.402  1.00  0.00    -0.644 OA
HETATM   10  O   UNL     1      67.597   8.211   5.081  1.00  0.00    -0.644 OA
ENDBRANCH   1   8
TORSDOF 1
ENDMDL
