MODEL 1
REMARK VINA RESULT:      -5.5      0.000      0.000
REMARK  1 active torsions:
REMARK  status: ('A' for Active; 'I' for Inactive)
REMARK    1  A    between atoms: CA_3  and  C_4 
ROOT
HETATM    1  N   UNL     1      63.956   8.808   5.801  1.00  0.00    -0.350 N 
ATOM      2  HN  UNL     1      64.140   9.236   6.708  1.00  0.00     0.166 HD
HETATM    3  CA  UNL     1      64.410   7.560   5.508  1.00  0.00     0.110 A 
HETATM    4  C   UNL     1      63.256   9.460   4.857  1.00  0.00     0.043 A 
HETATM    5  C   UNL     1      64.184   6.926   4.294  1.00  0.00     0.037 A 
HETATM    6  C   UNL     1      62.982   8.898   3.590  1.00  0.00    -0.009 A 
HETATM    7  C   UNL     1      63.459   7.608   3.323  1.00  0.00     0.016 A 
HETATM    8  C   UNL     1      62.777  10.737   5.120  1.00  0.00     0.030 A 
HETATM    9  C   UNL     1      62.251   9.623   2.634  1.00  0.00     0.013 A 
HETATM   10  C   UNL     1      62.049  11.461   4.171  1.00  0.00     0.002 A 
HETATM   11  C   UNL     1      61.787  10.903   2.925  1.00  0.00     0.001 A 
ENDROOT
BRANCH   3  12
HETATM   12  C   UNL     1      65.195   6.832   6.551  1.00  0.00     0.226 C 
HETATM   13  O   UNL     1      65.050   6.952   7.757  1.00  0.00    -0.643 OA
HETATM   14  OXT UNL     1      66.118   5.990   6.047  1.00  0.00    -0.643 OA
ENDBRANCH   3  12
TORSDOF 1
ENDMDL
MODEL 2
REMARK VINA RESULT:      -5.4      2.591      4.694
REMARK  1 active torsions:
REMARK  status: ('A' for Active; 'I' for Inactive)
REMARK    1  A    between atoms: CA_3  and  C_4 
ROOT
HETATM    1  N   UNL     1      64.768   9.157   5.562  1.00  0.00    -0.350 N 
ATOM      2  HN  UNL     1      65.019   9.827   6.290  1.00  0.00     0.166 HD
HETATM    3  CA  UNL     1      63.643   9.320   4.817  1.00  0.00     0.110 A 
HETATM    4  C   UNL     1      65.541   8.086   5.311  1.00  0.00     0.043 A 
HETATM    5  C   UNL     1      63.255   8.445   3.812  1.00  0.00     0.037 A 
HETATM    6  C   UNL     1      65.223   7.139   4.312  1.00  0.00    -0.009 A 
HETATM    7  C   UNL     1      64.060   7.339   3.558  1.00  0.00     0.016 A 
HETATM    8  C   UNL     1      66.697   7.887   6.054  1.00  0.00     0.030 A 
HETATM    9  C   UNL     1      66.060   6.032   4.091  1.00  0.00     0.013 A 
HETATM   10  C   UNL     1      67.532   6.787   5.837  1.00  0.00     0.002 A 
HETATM   11  C   UNL     1      67.211   5.857   4.855  1.00  0.00     0.001 A 
ENDROOT
BRANCH   3  12
HETATM   12  C   UNL     1      62.776  10.505   5.096  1.00  0.00     0.226 C 
HETATM   13  O   UNL     1      61.863  10.896   4.387  1.00  0.00    -0.643 OA
HETATM   14  OXT UNL     1      63.083  11.144   6.242  1.00  0.00    -0.643 OA
ENDBRANCH   3  12
TORSDOF 1
ENDMDL
MODEL 3
REMARK VINA RESULT:      -5.1      1.664      2.874
REMARK  1 active torsions:
REMARK  status: ('A' for Active; 'I' for Inactive)
REMARK    1  A    between atoms: CA_3  and  C_4 
ROOT
HETATM    1  N   UNL     1      63.834   7.566   3.905  1.00  0.00    -0.350 N 
ATOM      2  HN  UNL     1      64.364   6.695   3.918  1.00  0.00     0.166 HD
HETATM    3  CA  UNL     1      63.860   8.419   4.963  1.00  0.00     0.110 A 
HETATM    4  C   UNL     1      63.086   7.906   2.840  1.00  0.00     0.043 A 
HETATM    5  C   UNL     1      63.163   9.619   4.999  1.00  0.00     0.037 A 
HETATM    6  C   UNL     1      62.339   9.103   2.789  1.00  0.00    -0.009 A 
HETATM    7  C   UNL     1      62.393   9.963   3.894  1.00  0.00     0.016 A 
HETATM    8  C   UNL     1      63.035   7.058   1.742  1.00  0.00     0.030 A 
HETATM    9  C   UNL     1      61.568   9.412   1.656  1.00  0.00     0.013 A 
HETATM   10  C   UNL     1      62.269   7.361   0.612  1.00  0.00     0.002 A 
HETATM   11  C   UNL     1      61.533   8.540   0.570  1.00  0.00     0.001 A 
ENDROOT
BRANCH   3  12
HETATM   12  C   UNL     1      64.683   8.044   6.152  1.00  0.00     0.226 C 
HETATM   13  O   UNL     1      64.356   7.244   7.015  1.00  0.00    -0.643 OA
HETATM   14  OXT UNL     1      65.872   8.676   6.212  1.00  0.00    -0.643 OA
ENDBRANCH   3  12
TORSDOF 1
ENDMDL
MODEL 4
REMARK VINA RESULT:      -4.6      2.218      3.216
REMARK  1 active torsions:
REMARK  status: ('A' for Active; 'I' for Inactive)
REMARK    1  A    between atoms: CA_3  and  C_4 
ROOT
HETATM    1  N   UNL     1      64.728   6.324   7.210  1.00  0.00    -0.350 N 
ATOM      2  HN  UNL     1      64.260   5.602   7.758  1.00  0.00     0.166 HD
HETATM    3  CA  UNL     1      66.025   6.656   7.450  1.00  0.00     0.110 A 
HETATM    4  C   UNL     1      64.082   6.977   6.229  1.00  0.00     0.043 A 
HETATM    5  C   UNL     1      66.714   7.626   6.733  1.00  0.00     0.037 A 
HETATM    6  C   UNL     1      64.699   7.982   5.451  1.00  0.00    -0.009 A 
HETATM    7  C   UNL     1      66.038   8.296   5.720  1.00  0.00     0.016 A 
HETATM    8  C   UNL     1      62.757   6.665   5.957  1.00  0.00     0.030 A 
HETATM    9  C   UNL     1      63.980   8.641   4.440  1.00  0.00     0.013 A 
HETATM   10  C   UNL     1      62.037   7.318   4.951  1.00  0.00     0.002 A 
HETATM   11  C   UNL     1      62.650   8.309   4.193  1.00  0.00     0.001 A 
ENDROOT
BRANCH   3  12
HETATM   12  C   UNL     1      66.747   5.939   8.544  1.00  0.00     0.226 C 
HETATM   13  O   UNL     1      67.654   6.404   9.216  1.00  0.00    -0.643 OA
HETATM   14  OXT UNL     1      66.306   4.683   8.753  1.00  0.00    -0.643 OA
ENDBRANCH   3  12
TORSDOF 1
ENDMDL
MODEL 5
REMARK VINA RESULT:      -4.6      2.296      3.169
REMARK  1 active torsions:
REMARK  status: ('A' for Active; 'I' for Inactive)
REMARK    1  A    between atoms: CA_3  and  C_4 
ROOT
HETATM    1  N   UNL     1      63.668   7.566   3.634  1.00  0.00    -0.350 N 
ATOM      2  HN  UNL     1      64.245   7.086   4.325  1.00  0.00     0.166 HD
HETATM    3  CA  UNL     1      63.358   6.978   2.448  1.00  0.00     0.110 A 
HETATM    4  C   UNL     1      63.192   8.802   3.868  1.00  0.00     0.043 A 
HETATM    5  C   UNL     1      62.573   7.581   1.475  1.00  0.00     0.037 A 
HETATM    6  C   UNL     1      62.391   9.495   2.934  1.00  0.00    -0.009 A 
HETATM    7  C   UNL     1      62.085   8.858   1.724  1.00  0.00     0.016 A 
HETATM    8  C   UNL     1      63.490   9.434   5.068  1.00  0.00     0.030 A 
HETATM    9  C   UNL     1      61.922  10.788   3.222  1.00  0.00     0.013 A 
HETATM   10  C   UNL     1      63.025  10.720   5.358  1.00  0.00     0.002 A 
HETATM   11  C   UNL     1      62.241  11.399   4.432  1.00  0.00     0.001 A 
ENDROOT
BRANCH   3  12
HETATM   12  C   UNL     1      63.890   5.608   2.180  1.00  0.00     0.226 C 
HETATM   13  O   UNL     1      64.266   5.195   1.094  1.00  0.00    -0.643 OA
HETATM   14  OXT UNL     1      63.932   4.817   3.270  1.00  0.00    -0.643 OA
ENDBRANCH   3  12
TORSDOF 1
ENDMDL
MODEL 6
REMARK VINA RESULT:      -4.5      2.799      3.577
REMARK  1 active torsions:
REMARK  status: ('A' for Active; 'I' for Inactive)
REMARK    1  A    between atoms: CA_3  and  C_4 
ROOT
HETATM    1  N   UNL     1      60.907   7.132   4.392  1.00  0.00    -0.350 N 
ATOM      2  HN  UNL     1      60.291   6.552   4.962  1.00  0.00     0.166 HD
HETATM    3  CA  UNL     1      62.095   7.581   4.876  1.00  0.00     0.110 A 
HETATM    4  C   UNL     1      60.568   7.476   3.137  1.00  0.00     0.043 A 
HETATM    5  C   UNL     1      62.975   8.366   4.143  1.00  0.00     0.037 A 
HETATM    6  C   UNL     1      61.396   8.277   2.320  1.00  0.00    -0.009 A 
HETATM    7  C   UNL     1      62.616   8.718   2.847  1.00  0.00     0.016 A 
HETATM    8  C   UNL     1      59.361   7.036   2.610  1.00  0.00     0.030 A 
HETATM    9  C   UNL     1      60.994   8.615   1.016  1.00  0.00     0.013 A 
HETATM   10  C   UNL     1      58.957   7.370   1.313  1.00  0.00     0.002 A 
HETATM   11  C   UNL     1      59.776   8.162   0.516  1.00  0.00     0.001 A 
ENDROOT
BRANCH   3  12
HETATM   12  C   UNL     1      62.475   7.207   6.272  1.00  0.00     0.226 C 
HETATM   13  O   UNL     1      63.549   7.448   6.801  1.00  0.00    -0.643 OA
HETATM   14  OXT UNL     1      61.505   6.558   6.944  1.00  0.00    -0.643 OA
ENDBRANCH   3  12
TORSDOF 1
ENDMDL
MODEL 7
REMARK VINA RESULT:      -4.2      2.062      2.733
REMARK  1 active torsions:
REMARK  status: ('A' for Active; 'I' for Inactive)
REMARK    1  A    between atoms: CA_3  and  C_4 
ROOT
HETATM    1  N   UNL     1      63.721   8.448   3.575  1.00  0.00    -0.350 N 
ATOM      2  HN  UNL     1      64.502   8.929   3.129  1.00  0.00     0.166 HD
HETATM    3  CA  UNL     1      63.821   7.978   4.847  1.00  0.00     0.110 A 
HETATM    4  C   UNL     1      62.562   8.257   2.922  1.00  0.00     0.043 A 
HETATM    5  C   UNL     1      62.790   7.321   5.505  1.00  0.00     0.037 A 
HETATM    6  C   UNL     1      61.461   7.594   3.508  1.00  0.00    -0.009 A 
HETATM    7  C   UNL     1      61.594   7.128   4.822  1.00  0.00     0.016 A 
HETATM    8  C   UNL     1      62.425   8.723   1.621  1.00  0.00     0.030 A 
HETATM    9  C   UNL     1      60.271   7.414   2.783  1.00  0.00     0.013 A 
HETATM   10  C   UNL     1      61.243   8.546   0.895  1.00  0.00     0.002 A 
HETATM   11  C   UNL     1      60.164   7.889   1.477  1.00  0.00     0.001 A 
ENDROOT
BRANCH   3  12
HETATM   12  C   UNL     1      65.110   8.180   5.575  1.00  0.00     0.226 C 
HETATM   13  O   UNL     1      65.543   9.255   5.962  1.00  0.00    -0.643 OA
HETATM   14  OXT UNL     1      65.797   7.041   5.791  1.00  0.00    -0.643 OA
ENDBRANCH   3  12
TORSDOF 1
ENDMDL
MODEL 8
REMARK VINA RESULT:      -4.2      2.933      6.027
REMARK  1 active torsions:
REMARK  status: ('A' for Active; 'I' for Inactive)
REMARK    1  A    between atoms: CA_3  and  C_4 
ROOT
HETATM    1  N   UNL     1      64.973   6.403   5.964  1.00  0.00    -0.350 N 
ATOM      2  HN  UNL     1      63.962   6.319   6.071  1.00  0.00     0.166 HD
HETATM    3  CA  UNL     1      65.534   7.536   5.461  1.00  0.00     0.110 A 
HETATM    4  C   UNL     1      65.793   5.398   6.316  1.00  0.00     0.043 A 
HETATM    5  C   UNL     1      66.901   7.708   5.299  1.00  0.00     0.037 A 
HETATM    6  C   UNL     1      67.197   5.481   6.182  1.00  0.00    -0.009 A 
HETATM    7  C   UNL     1      67.742   6.664   5.666  1.00  0.00     0.016 A 
HETATM    8  C   UNL     1      65.256   4.226   6.833  1.00  0.00     0.030 A 
HETATM    9  C   UNL     1      68.012   4.400   6.559  1.00  0.00     0.013 A 
HETATM   10  C   UNL     1      66.064   3.149   7.209  1.00  0.00     0.002 A 
HETATM   11  C   UNL     1      67.445   3.236   7.070  1.00  0.00     0.001 A 
ENDROOT
BRANCH   3  12
HETATM   12  C   UNL     1      64.627   8.654   5.061  1.00  0.00     0.226 C 
HETATM   13  O   UNL     1      63.824   8.619   4.142  1.00  0.00    -0.643 OA
HETATM   14  OXT UNL     1      64.759   9.759   5.821  1.00  0.00    -0.643 OA
ENDBRANCH   3  12
TORSDOF 1
ENDMDL
MODEL 9
REMARK VINA RESULT:      -4.2      4.235      5.092
REMARK  1 active torsions:
REMARK  status: ('A' for Active; 'I' for Inactive)
REMARK    1  A    between atoms: CA_3  and  C_4 
ROOT
HETATM    1  N   UNL     1      60.612   8.742   2.594  1.00  0.00    -0.350 N 
ATOM      2  HN  UNL     1      59.881   9.453   2.592  1.00  0.00     0.166 HD
HETATM    3  CA  UNL     1      60.509   7.628   1.821  1.00  0.00     0.110 A 
HETATM    4  C   UNL     1      61.707   8.877   3.362  1.00  0.00     0.043 A 
HETATM    5  C   UNL     1      61.475   6.632   1.778  1.00  0.00     0.037 A 
HETATM    6  C   UNL     1      62.739   7.912   3.389  1.00  0.00    -0.009 A 
HETATM    7  C   UNL     1      62.605   6.779   2.575  1.00  0.00     0.016 A 
HETATM    8  C   UNL     1      61.845  10.001   4.165  1.00  0.00     0.030 A 
HETATM    9  C   UNL     1      63.862   8.095   4.213  1.00  0.00     0.013 A 
HETATM   10  C   UNL     1      62.961  10.187   4.987  1.00  0.00     0.002 A 
HETATM   11  C   UNL     1      63.971   9.231   5.011  1.00  0.00     0.001 A 
ENDROOT
BRANCH   3  12
HETATM   12  C   UNL     1      59.291   7.469   0.970  1.00  0.00     0.226 C 
HETATM   13  O   UNL     1      58.346   8.242   0.936  1.00  0.00    -0.643 OA
HETATM   14  OXT UNL     1      59.305   6.362   0.203  1.00  0.00    -0.643 OA
ENDBRANCH   3  12
TORSDOF 1
ENDMDL
