MODEL 1
REMARK VINA RESULT:      -4.3      0.000      0.000
REMARK  1 active torsions:
REMARK  status: ('A' for Active; 'I' for Inactive)
REMARK    1  A    between atoms: C_1  and  CA_2 
ROOT
ATOM      1  CA  LYS A   1      62.410  10.029   3.684  1.00  0.00     0.109 A 
ATOM      2  N   LYS A   1      61.690  10.484   2.614  1.00  0.00    -0.360 N 
ATOM      3  HN  LYS A   1      61.241  11.400   2.613  1.00  0.00     0.165 HD
ATOM      4  CE  LYS A   1      61.611   9.644   1.558  1.00  0.00     0.088 A 
ATOM      5  CB  LYS A   1      63.035   8.792   3.741  1.00  0.00     0.037 A 
ATOM      6  CD  LYS A   1      62.201   8.388   1.523  1.00  0.00     0.017 A 
ATOM      7  CG  LYS A   1      62.922   7.957   2.633  1.00  0.00     0.004 A 
ENDROOT
BRANCH   1   8
ATOM      8  C   LYS A   1      62.492  10.965   4.841  1.00  0.00     0.226 C 
ATOM      9  O   LYS A   1      63.023  10.715   5.909  1.00  0.00    -0.643 OA
ATOM     10  OXT LYS A   1      61.885  12.140   4.541  1.00  0.00    -0.643 OA
ENDBRANCH   1   8
TORSDOF 1
ENDMDL
MODEL 2
REMARK VINA RESULT:      -4.3      1.274      2.143
REMARK  1 active torsions:
REMARK  status: ('A' for Active; 'I' for Inactive)
REMARK    1  A    between atoms: C_1  and  CA_2 
ROOT
ATOM      1  CA  LYS A   1      62.573   9.943   3.996  1.00  0.00     0.109 A 
ATOM      2  N   LYS A   1      62.834   8.723   3.436  1.00  0.00    -0.360 N 
ATOM      3  HN  LYS A   1      63.241   7.956   3.971  1.00  0.00     0.165 HD
ATOM      4  CE  LYS A   1      62.520   8.599   2.127  1.00  0.00     0.088 A 
ATOM      5  CB  LYS A   1      62.027  11.021   3.314  1.00  0.00     0.037 A 
ATOM      6  CD  LYS A   1      61.973   9.620   1.362  1.00  0.00     0.017 A 
ATOM      7  CG  LYS A   1      61.725  10.849   1.967  1.00  0.00     0.004 A 
ENDROOT
BRANCH   1   8
ATOM      8  C   LYS A   1      62.921  10.068   5.441  1.00  0.00     0.226 C 
ATOM      9  O   LYS A   1      63.106  11.119   6.030  1.00  0.00    -0.643 OA
ATOM     10  OXT LYS A   1      63.010   8.841   6.012  1.00  0.00    -0.643 OA
ENDBRANCH   1   8
TORSDOF 1
ENDMDL
MODEL 3
REMARK VINA RESULT:      -4.3      1.661      2.129
REMARK  1 active torsions:
REMARK  status: ('A' for Active; 'I' for Inactive)
REMARK    1  A    between atoms: C_1  and  CA_2 
ROOT
ATOM      1  CA  LYS A   1      61.650   9.893   2.449  1.00  0.00     0.109 A 
ATOM      2  N   LYS A   1      60.969   9.037   3.270  1.00  0.00    -0.360 N 
ATOM      3  HN  LYS A   1      60.617   9.326   4.182  1.00  0.00     0.165 HD
ATOM      4  CE  LYS A   1      60.792   7.784   2.795  1.00  0.00     0.088 A 
ATOM      5  CB  LYS A   1      62.156   9.551   1.203  1.00  0.00     0.037 A 
ATOM      6  CD  LYS A   1      61.262   7.349   1.563  1.00  0.00     0.017 A 
ATOM      7  CG  LYS A   1      61.956   8.248   0.757  1.00  0.00     0.004 A 
ENDROOT
BRANCH   1   8
ATOM      8  C   LYS A   1      61.837  11.272   2.982  1.00  0.00     0.226 C 
ATOM      9  O   LYS A   1      61.890  11.566   4.164  1.00  0.00    -0.643 OA
ATOM     10  OXT LYS A   1      61.934  12.163   1.964  1.00  0.00    -0.643 OA
ENDBRANCH   1   8
TORSDOF 1
ENDMDL
MODEL 4
REMARK VINA RESULT:      -4.3      1.838      2.507
REMARK  1 active torsions:
REMARK  status: ('A' for Active; 'I' for Inactive)
REMARK    1  A    between atoms: C_1  and  CA_2 
ROOT
ATOM      1  CA  LYS A   1      63.315   9.708   4.858  1.00  0.00     0.109 A 
ATOM      2  N   LYS A   1      64.363   9.086   5.478  1.00  0.00    -0.360 N 
ATOM      3  HN  LYS A   1      64.822   9.484   6.297  1.00  0.00     0.165 HD
ATOM      4  CE  LYS A   1      64.753   7.911   4.937  1.00  0.00     0.088 A 
ATOM      5  CB  LYS A   1      62.660   9.216   3.739  1.00  0.00     0.037 A 
ATOM      6  CD  LYS A   1      64.160   7.340   3.819  1.00  0.00     0.017 A 
ATOM      7  CG  LYS A   1      63.099   8.005   3.211  1.00  0.00     0.004 A 
ENDROOT
BRANCH   1   8
ATOM      8  C   LYS A   1      62.893  11.003   5.466  1.00  0.00     0.226 C 
ATOM      9  O   LYS A   1      63.227  11.402   6.568  1.00  0.00    -0.643 OA
ATOM     10  OXT LYS A   1      62.077  11.677   4.619  1.00  0.00    -0.643 OA
ENDBRANCH   1   8
TORSDOF 1
ENDMDL
MODEL 5
REMARK VINA RESULT:      -4.2      2.843      3.570
REMARK  1 active torsions:
REMARK  status: ('A' for Active; 'I' for Inactive)
REMARK    1  A    between atoms: C_1  and  CA_2 
ROOT
ATOM      1  CA  LYS A   1      64.071   9.079   5.006  1.00  0.00     0.109 A 
ATOM      2  N   LYS A   1      63.739  10.229   5.668  1.00  0.00    -0.360 N 
ATOM      3  HN  LYS A   1      64.237  10.538   6.502  1.00  0.00     0.165 HD
ATOM      4  CE  LYS A   1      62.708  10.930   5.146  1.00  0.00     0.088 A 
ATOM      5  CB  LYS A   1      63.423   8.609   3.873  1.00  0.00     0.037 A 
ATOM      6  CD  LYS A   1      62.000  10.541   4.017  1.00  0.00     0.017 A 
ATOM      7  CG  LYS A   1      62.363   9.361   3.374  1.00  0.00     0.004 A 
ENDROOT
BRANCH   1   8
ATOM      8  C   LYS A   1      65.210   8.315   5.590  1.00  0.00     0.226 C 
ATOM      9  O   LYS A   1      66.368   8.386   5.215  1.00  0.00    -0.643 OA
ATOM     10  OXT LYS A   1      64.778   7.520   6.600  1.00  0.00    -0.643 OA
ENDBRANCH   1   8
TORSDOF 1
ENDMDL
MODEL 6
REMARK VINA RESULT:      -4.2      1.674      2.172
REMARK  1 active torsions:
REMARK  status: ('A' for Active; 'I' for Inactive)
REMARK    1  A    between atoms: C_1  and  CA_2 
ROOT
ATOM      1  CA  LYS A   1      61.878   9.821   3.546  1.00  0.00     0.109 A 
ATOM      2  N   LYS A   1      60.683   9.204   3.295  1.00  0.00    -0.360 N 
ATOM      3  HN  LYS A   1      59.878   9.711   2.928  1.00  0.00     0.165 HD
ATOM      4  CE  LYS A   1      60.637   7.881   3.566  1.00  0.00     0.088 A 
ATOM      5  CB  LYS A   1      63.001   9.183   4.051  1.00  0.00     0.037 A 
ATOM      6  CD  LYS A   1      61.707   7.157   4.074  1.00  0.00     0.017 A 
ATOM      7  CG  LYS A   1      62.906   7.821   4.321  1.00  0.00     0.004 A 
ENDROOT
BRANCH   1   8
ATOM      8  C   LYS A   1      61.917  11.280   3.241  1.00  0.00     0.226 C 
ATOM      9  O   LYS A   1      61.992  11.761   2.124  1.00  0.00    -0.643 OA
ATOM     10  OXT LYS A   1      61.863  12.003   4.387  1.00  0.00    -0.643 OA
ENDBRANCH   1   8
TORSDOF 1
ENDMDL
MODEL 7
REMARK VINA RESULT:      -3.8      4.506      5.475
REMARK  1 active torsions:
REMARK  status: ('A' for Active; 'I' for Inactive)
REMARK    1  A    between atoms: C_1  and  CA_2 
ROOT
ATOM      1  CA  LYS A   1      65.672   7.946   5.706  1.00  0.00     0.109 A 
ATOM      2  N   LYS A   1      65.420   7.380   6.925  1.00  0.00    -0.360 N 
ATOM      3  HN  LYS A   1      64.554   7.553   7.435  1.00  0.00     0.165 HD
ATOM      4  CE  LYS A   1      66.391   6.575   7.411  1.00  0.00     0.088 A 
ATOM      5  CB  LYS A   1      66.833   7.750   4.973  1.00  0.00     0.037 A 
ATOM      6  CD  LYS A   1      67.585   6.318   6.752  1.00  0.00     0.017 A 
ATOM      7  CG  LYS A   1      67.809   6.918   5.515  1.00  0.00     0.004 A 
ENDROOT
BRANCH   1   8
ATOM      8  C   LYS A   1      64.593   8.830   5.180  1.00  0.00     0.226 C 
ATOM      9  O   LYS A   1      64.306   9.928   5.625  1.00  0.00    -0.643 OA
ATOM     10  OXT LYS A   1      63.966   8.238   4.134  1.00  0.00    -0.643 OA
ENDBRANCH   1   8
TORSDOF 1
ENDMDL
MODEL 8
REMARK VINA RESULT:      -3.7      2.567      3.520
REMARK  1 active torsions:
REMARK  status: ('A' for Active; 'I' for Inactive)
REMARK    1  A    between atoms: C_1  and  CA_2 
ROOT
ATOM      1  CA  LYS A   1      62.153   9.592   2.808  1.00  0.00     0.109 A 
ATOM      2  N   LYS A   1      61.716  10.867   3.039  1.00  0.00    -0.360 N 
ATOM      3  HN  LYS A   1      61.158  11.381   2.358  1.00  0.00     0.165 HD
ATOM      4  CE  LYS A   1      62.071  11.404   4.228  1.00  0.00     0.088 A 
ATOM      5  CB  LYS A   1      62.920   8.851   3.695  1.00  0.00     0.037 A 
ATOM      6  CD  LYS A   1      62.836  10.741   5.178  1.00  0.00     0.017 A 
ATOM      7  CG  LYS A   1      63.268   9.446   4.905  1.00  0.00     0.004 A 
ENDROOT
BRANCH   1   8
ATOM      8  C   LYS A   1      61.754   9.011   1.495  1.00  0.00     0.226 C 
ATOM      9  O   LYS A   1      62.389   9.113   0.460  1.00  0.00    -0.643 OA
ATOM     10  OXT LYS A   1      60.574   8.352   1.610  1.00  0.00    -0.643 OA
ENDBRANCH   1   8
TORSDOF 1
ENDMDL
MODEL 9
REMARK VINA RESULT:      -3.6      2.766      3.841
REMARK  1 active torsions:
REMARK  status: ('A' for Active; 'I' for Inactive)
REMARK    1  A    between atoms: C_1  and  CA_2 
ROOT
ATOM      1  CA  LYS A   1      62.157   9.602   2.647  1.00  0.00     0.109 A 
ATOM      2  N   LYS A   1      62.824   8.715   3.447  1.00  0.00    -0.360 N 
ATOM      3  HN  LYS A   1      63.050   7.770   3.138  1.00  0.00     0.165 HD
ATOM      4  CE  LYS A   1      63.164   9.171   4.673  1.00  0.00     0.088 A 
ATOM      5  CB  LYS A   1      61.819  10.895   3.019  1.00  0.00     0.037 A 
ATOM      6  CD  LYS A   1      62.869  10.447   5.134  1.00  0.00     0.017 A 
ATOM      7  CG  LYS A   1      62.184  11.320   4.293  1.00  0.00     0.004 A 
ENDROOT
BRANCH   1   8
ATOM      8  C   LYS A   1      61.789   9.089   1.297  1.00  0.00     0.226 C 
ATOM      9  O   LYS A   1      62.534   9.055   0.332  1.00  0.00    -0.643 OA
ATOM     10  OXT LYS A   1      60.501   8.666   1.288  1.00  0.00    -0.643 OA
ENDBRANCH   1   8
TORSDOF 1
ENDMDL
