MODEL 1
REMARK VINA RESULT:      -4.9      0.000      0.000
REMARK  1 active torsions:
REMARK  status: ('A' for Active; 'I' for Inactive)
REMARK    1  A    between atoms: C_1  and  C_5 
ROOT
HETATM    1  C   UNL     1      62.611  10.012   4.041  1.00  0.00     0.084 A 
HETATM    2  S   UNL     1      63.386   8.510   4.317  1.00  0.00    -0.065 SA
HETATM    3  C   UNL     1      63.042   7.962   2.742  1.00  0.00     0.085 A 
HETATM    4  C   UNL     1      62.080  10.076   2.764  1.00  0.00     0.040 A 
HETATM    5  C   UNL     1      62.330   8.895   1.996  1.00  0.00    -0.001 A 
HETATM    6  N   UNL     1      63.449   6.743   2.330  1.00  0.00    -0.360 N 
ATOM      7  HN  UNL     1      63.966   6.098   2.927  1.00  0.00     0.166 HD
HETATM    8  C   UNL     1      62.000   8.535   0.673  1.00  0.00     0.015 A 
HETATM    9  C   UNL     1      63.111   6.455   1.056  1.00  0.00     0.089 A 
HETATM   10  C   UNL     1      62.406   7.289   0.204  1.00  0.00     0.018 A 
ENDROOT
BRANCH   1  11
HETATM   11  C   UNL     1      62.588  11.002   5.088  1.00  0.00     0.216 C 
HETATM   12  O   UNL     1      63.086  10.956   6.203  1.00  0.00    -0.643 OA
HETATM   13  O   UNL     1      61.909  12.109   4.706  1.00  0.00    -0.643 OA
ENDBRANCH   1  11
TORSDOF 1
ENDMDL
MODEL 2
REMARK VINA RESULT:      -4.7      2.819      3.793
REMARK  1 active torsions:
REMARK  status: ('A' for Active; 'I' for Inactive)
REMARK    1  A    between atoms: C_1  and  C_5 
ROOT
HETATM    1  C   UNL     1      63.671   7.779   5.230  1.00  0.00     0.084 A 
HETATM    2  S   UNL     1      63.531   7.278   3.598  1.00  0.00    -0.065 SA
HETATM    3  C   UNL     1      62.830   8.757   3.130  1.00  0.00     0.085 A 
HETATM    4  C   UNL     1      63.166   9.055   5.409  1.00  0.00     0.040 A 
HETATM    5  C   UNL     1      62.682   9.639   4.195  1.00  0.00    -0.001 A 
HETATM    6  N   UNL     1      62.484   8.982   1.845  1.00  0.00    -0.360 N 
ATOM      7  HN  UNL     1      62.613   8.292   1.106  1.00  0.00     0.166 HD
HETATM    8  C   UNL     1      62.113  10.897   3.907  1.00  0.00     0.015 A 
HETATM    9  C   UNL     1      61.951  10.202   1.627  1.00  0.00     0.089 A 
HETATM   10  C   UNL     1      61.746  11.173   2.593  1.00  0.00     0.018 A 
ENDROOT
BRANCH   1  11
HETATM   11  C   UNL     1      64.264   6.890   6.197  1.00  0.00     0.216 C 
HETATM   12  O   UNL     1      64.632   7.126   7.338  1.00  0.00    -0.643 OA
HETATM   13  O   UNL     1      64.389   5.636   5.702  1.00  0.00    -0.643 OA
ENDBRANCH   1  11
TORSDOF 1
ENDMDL
MODEL 3
REMARK VINA RESULT:      -4.6      2.547      3.393
REMARK  1 active torsions:
REMARK  status: ('A' for Active; 'I' for Inactive)
REMARK    1  A    between atoms: C_1  and  C_5 
ROOT
HETATM    1  C   UNL     1      62.074  10.013   3.844  1.00  0.00     0.084 A 
HETATM    2  S   UNL     1      63.118   9.898   5.196  1.00  0.00    -0.065 SA
HETATM    3  C   UNL     1      62.840   8.226   5.359  1.00  0.00     0.085 A 
HETATM    4  C   UNL     1      61.508   8.786   3.541  1.00  0.00     0.040 A 
HETATM    5  C   UNL     1      61.951   7.738   4.408  1.00  0.00    -0.001 A 
HETATM    6  N   UNL     1      63.454   7.515   6.327  1.00  0.00    -0.360 N 
ATOM      7  HN  UNL     1      64.095   7.931   7.002  1.00  0.00     0.166 HD
HETATM    8  C   UNL     1      61.659   6.359   4.456  1.00  0.00     0.015 A 
HETATM    9  C   UNL     1      63.142   6.202   6.323  1.00  0.00     0.089 A 
HETATM   10  C   UNL     1      62.275   5.585   5.436  1.00  0.00     0.018 A 
ENDROOT
BRANCH   1  11
HETATM   11  C   UNL     1      61.897  11.285   3.190  1.00  0.00     0.216 C 
HETATM   12  O   UNL     1      61.750  11.527   2.002  1.00  0.00    -0.643 OA
HETATM   13  O   UNL     1      61.895  12.303   4.084  1.00  0.00    -0.643 OA
ENDBRANCH   1  11
TORSDOF 1
ENDMDL
MODEL 4
REMARK VINA RESULT:      -4.5      2.423      3.067
REMARK  1 active torsions:
REMARK  status: ('A' for Active; 'I' for Inactive)
REMARK    1  A    between atoms: C_1  and  C_5 
ROOT
HETATM    1  C   UNL     1      63.978   8.161   4.935  1.00  0.00     0.084 A 
HETATM    2  S   UNL     1      62.963   9.532   4.790  1.00  0.00    -0.065 SA
HETATM    3  C   UNL     1      62.466   9.087   3.224  1.00  0.00     0.085 A 
HETATM    4  C   UNL     1      63.947   7.389   3.787  1.00  0.00     0.040 A 
HETATM    5  C   UNL     1      63.066   7.911   2.787  1.00  0.00    -0.001 A 
HETATM    6  N   UNL     1      61.580   9.841   2.540  1.00  0.00    -0.360 N 
ATOM      7  HN  UNL     1      61.177  10.700   2.911  1.00  0.00     0.166 HD
HETATM    8  C   UNL     1      62.714   7.455   1.501  1.00  0.00     0.015 A 
HETATM    9  C   UNL     1      61.276   9.354   1.318  1.00  0.00     0.089 A 
HETATM   10  C   UNL     1      61.798   8.199   0.761  1.00  0.00     0.018 A 
ENDROOT
BRANCH   1  11
HETATM   11  C   UNL     1      64.716   7.950   6.155  1.00  0.00     0.216 C 
HETATM   12  O   UNL     1      64.478   7.185   7.078  1.00  0.00    -0.643 OA
HETATM   13  O   UNL     1      65.816   8.738   6.209  1.00  0.00    -0.643 OA
ENDBRANCH   1  11
TORSDOF 1
ENDMDL
MODEL 5
REMARK VINA RESULT:      -4.2      3.858      5.016
REMARK  1 active torsions:
REMARK  status: ('A' for Active; 'I' for Inactive)
REMARK    1  A    between atoms: C_1  and  C_5 
ROOT
HETATM    1  C   UNL     1      65.212   6.817   4.418  1.00  0.00     0.084 A 
HETATM    2  S   UNL     1      65.472   7.998   5.630  1.00  0.00    -0.065 SA
HETATM    3  C   UNL     1      64.180   8.957   5.073  1.00  0.00     0.085 A 
HETATM    4  C   UNL     1      64.161   7.170   3.589  1.00  0.00     0.040 A 
HETATM    5  C   UNL     1      63.547   8.408   3.963  1.00  0.00    -0.001 A 
HETATM    6  N   UNL     1      63.859  10.112   5.692  1.00  0.00    -0.360 N 
ATOM      7  HN  UNL     1      64.366  10.469   6.502  1.00  0.00     0.166 HD
HETATM    8  C   UNL     1      62.458   9.126   3.429  1.00  0.00     0.015 A 
HETATM    9  C   UNL     1      62.808  10.755   5.142  1.00  0.00     0.089 A 
HETATM   10  C   UNL     1      62.089  10.322   4.041  1.00  0.00     0.018 A 
ENDROOT
BRANCH   1  11
HETATM   11  C   UNL     1      66.049   5.645   4.378  1.00  0.00     0.216 C 
HETATM   12  O   UNL     1      65.729   4.472   4.252  1.00  0.00    -0.643 OA
HETATM   13  O   UNL     1      67.359   5.970   4.494  1.00  0.00    -0.643 OA
ENDBRANCH   1  11
TORSDOF 1
ENDMDL
MODEL 6
REMARK VINA RESULT:      -4.2      2.276      2.799
REMARK  1 active torsions:
REMARK  status: ('A' for Active; 'I' for Inactive)
REMARK    1  A    between atoms: C_1  and  C_5 
ROOT
HETATM    1  C   UNL     1      64.415   8.001   4.892  1.00  0.00     0.084 A 
HETATM    2  S   UNL     1      64.563   6.678   3.815  1.00  0.00    -0.065 SA
HETATM    3  C   UNL     1      63.539   7.406   2.667  1.00  0.00     0.085 A 
HETATM    4  C   UNL     1      63.574   8.974   4.380  1.00  0.00     0.040 A 
HETATM    5  C   UNL     1      63.064   8.645   3.083  1.00  0.00    -0.001 A 
HETATM    6  N   UNL     1      63.263   6.791   1.498  1.00  0.00    -0.360 N 
ATOM      7  HN  UNL     1      63.638   5.876   1.249  1.00  0.00     0.166 HD
HETATM    8  C   UNL     1      62.210   9.332   2.197  1.00  0.00     0.015 A 
HETATM    9  C   UNL     1      62.446   7.495   0.688  1.00  0.00     0.089 A 
HETATM   10  C   UNL     1      61.904   8.736   0.976  1.00  0.00     0.018 A 
ENDROOT
BRANCH   1  11
HETATM   11  C   UNL     1      65.133   7.983   6.142  1.00  0.00     0.216 C 
HETATM   12  O   UNL     1      65.036   7.201   7.075  1.00  0.00    -0.643 OA
HETATM   13  O   UNL     1      66.025   8.999   6.213  1.00  0.00    -0.643 OA
ENDBRANCH   1  11
TORSDOF 1
ENDMDL
MODEL 7
REMARK VINA RESULT:      -4.0      2.646      3.044
REMARK  1 active torsions:
REMARK  status: ('A' for Active; 'I' for Inactive)
REMARK    1  A    between atoms: C_1  and  C_5 
ROOT
HETATM    1  C   UNL     1      62.164   7.431   4.941  1.00  0.00     0.084 A 
HETATM    2  S   UNL     1      61.015   6.422   4.171  1.00  0.00    -0.065 SA
HETATM    3  C   UNL     1      61.211   7.217   2.678  1.00  0.00     0.085 A 
HETATM    4  C   UNL     1      62.671   8.375   4.065  1.00  0.00     0.040 A 
HETATM    5  C   UNL     1      62.132   8.257   2.744  1.00  0.00    -0.001 A 
HETATM    6  N   UNL     1      60.517   6.825   1.590  1.00  0.00    -0.360 N 
ATOM      7  HN  UNL     1      59.848   6.056   1.604  1.00  0.00     0.166 HD
HETATM    8  C   UNL     1      62.370   8.975   1.555  1.00  0.00     0.015 A 
HETATM    9  C   UNL     1      60.787   7.544   0.480  1.00  0.00     0.089 A 
HETATM   10  C   UNL     1      61.679   8.601   0.405  1.00  0.00     0.018 A 
ENDROOT
BRANCH   1  11
HETATM   11  C   UNL     1      62.478   7.217   6.331  1.00  0.00     0.216 C 
HETATM   12  O   UNL     1      63.486   7.523   6.950  1.00  0.00    -0.643 OA
HETATM   13  O   UNL     1      61.464   6.592   6.975  1.00  0.00    -0.643 OA
ENDBRANCH   1  11
TORSDOF 1
ENDMDL
MODEL 8
REMARK VINA RESULT:      -3.9      3.570      5.030
REMARK  1 active torsions:
REMARK  status: ('A' for Active; 'I' for Inactive)
REMARK    1  A    between atoms: C_1  and  C_5 
ROOT
HETATM    1  C   UNL     1      63.313   7.027   2.512  1.00  0.00     0.084 A 
HETATM    2  S   UNL     1      62.310   8.106   1.638  1.00  0.00    -0.065 SA
HETATM    3  C   UNL     1      62.367   9.274   2.874  1.00  0.00     0.085 A 
HETATM    4  C   UNL     1      63.665   7.555   3.742  1.00  0.00     0.040 A 
HETATM    5  C   UNL     1      63.129   8.864   3.963  1.00  0.00    -0.001 A 
HETATM    6  N   UNL     1      61.721  10.451   2.744  1.00  0.00    -0.360 N 
ATOM      7  HN  UNL     1      61.170  10.695   1.921  1.00  0.00     0.166 HD
HETATM    8  C   UNL     1      63.243   9.766   5.040  1.00  0.00     0.015 A 
HETATM    9  C   UNL     1      61.868  11.277   3.800  1.00  0.00     0.089 A 
HETATM   10  C   UNL     1      62.596  10.996   4.944  1.00  0.00     0.018 A 
ENDROOT
BRANCH   1  11
HETATM   11  C   UNL     1      63.675   5.762   1.925  1.00  0.00     0.216 C 
HETATM   12  O   UNL     1      63.927   5.496   0.759  1.00  0.00    -0.643 OA
HETATM   13  O   UNL     1      63.732   4.783   2.859  1.00  0.00    -0.643 OA
ENDBRANCH   1  11
TORSDOF 1
ENDMDL
MODEL 9
REMARK VINA RESULT:      -3.9      7.322      8.352
REMARK  1 active torsions:
REMARK  status: ('A' for Active; 'I' for Inactive)
REMARK    1  A    between atoms: C_1  and  C_5 
ROOT
HETATM    1  C   UNL     1      67.429   3.874   7.923  1.00  0.00     0.084 A 
HETATM    2  S   UNL     1      67.433   5.340   8.809  1.00  0.00    -0.065 SA
HETATM    3  C   UNL     1      67.147   6.269   7.411  1.00  0.00     0.085 A 
HETATM    4  C   UNL     1      67.231   4.104   6.572  1.00  0.00     0.040 A 
HETATM    5  C   UNL     1      67.058   5.490   6.261  1.00  0.00    -0.001 A 
HETATM    6  N   UNL     1      67.028   7.611   7.484  1.00  0.00    -0.360 N 
ATOM      7  HN  UNL     1      67.109   8.129   8.359  1.00  0.00     0.166 HD
HETATM    8  C   UNL     1      66.817   6.168   5.049  1.00  0.00     0.015 A 
HETATM    9  C   UNL     1      66.793   8.205   6.296  1.00  0.00     0.089 A 
HETATM   10  C   UNL     1      66.681   7.553   5.080  1.00  0.00     0.018 A 
ENDROOT
BRANCH   1  11
HETATM   11  C   UNL     1      67.614   2.625   8.618  1.00  0.00     0.216 C 
HETATM   12  O   UNL     1      67.413   2.359   9.793  1.00  0.00    -0.643 OA
HETATM   13  O   UNL     1      68.067   1.660   7.784  1.00  0.00    -0.643 OA
ENDBRANCH   1  11
TORSDOF 1
ENDMDL
