MODEL 1
REMARK VINA RESULT:      -4.1      0.000      0.000
REMARK  2 active torsions:
REMARK  status: ('A' for Active; 'I' for Inactive)
REMARK    1  A    between atoms: C_3  and  C_7 
REMARK    2  A    between atoms: C_7  and  O_10 
ROOT
HETATM    1  N   UNL     1      63.071   8.532   3.230  1.00  0.00    -0.357 N 
ATOM      2  HN  UNL     1      63.380   7.632   2.861  1.00  0.00     0.166 HD
HETATM    3  C   UNL     1      62.848  10.267   4.777  1.00  0.00     0.030 A 
HETATM    4  S   UNL     1      61.944  10.830   3.431  1.00  0.00    -0.078 SA
HETATM    5  C   UNL     1      63.382   9.020   4.490  1.00  0.00     0.021 A 
HETATM    6  C   UNL     1      62.321   9.393   2.577  1.00  0.00     0.047 A 
HETATM    7  C   UNL     1      64.224   8.172   5.374  1.00  0.00     0.069 C 
HETATM    8  C   UNL     1      61.816   9.169   1.195  1.00  0.00     0.076 C 
ENDROOT
BRANCH   3   9
HETATM    9  C   UNL     1      62.977  11.097   6.005  1.00  0.00     0.212 C 
BRANCH   9  10
HETATM   10  O   UNL     1      64.355  11.402   6.182  1.00  0.00    -0.396 OA
HETATM   11  H   UNL     1      64.806  11.371   5.325  1.00  0.00     0.209 HD
ENDBRANCH   9  10
ENDBRANCH   3   9
TORSDOF 2
ENDMDL
MODEL 2
REMARK VINA RESULT:      -4.1      1.713      2.404
REMARK  2 active torsions:
REMARK  status: ('A' for Active; 'I' for Inactive)
REMARK    1  A    between atoms: C_3  and  C_7 
REMARK    2  A    between atoms: C_7  and  O_10 
ROOT
HETATM    1  N   UNL     1      62.499   9.050   2.729  1.00  0.00    -0.357 N 
ATOM      2  HN  UNL     1      62.182   8.929   1.767  1.00  0.00     0.166 HD
HETATM    3  C   UNL     1      62.883  10.154   4.751  1.00  0.00     0.030 A 
HETATM    4  S   UNL     1      63.519   8.586   5.040  1.00  0.00    -0.078 SA
HETATM    5  C   UNL     1      62.378  10.221   3.462  1.00  0.00     0.021 A 
HETATM    6  C   UNL     1      63.082   8.117   3.450  1.00  0.00     0.047 A 
HETATM    7  C   UNL     1      61.743  11.390   2.800  1.00  0.00     0.069 C 
HETATM    8  C   UNL     1      63.360   6.741   2.955  1.00  0.00     0.076 C 
ENDROOT
BRANCH   3   9
HETATM    9  C   UNL     1      62.917  11.194   5.814  1.00  0.00     0.212 C 
BRANCH   9  10
HETATM   10  O   UNL     1      64.272  11.379   6.202  1.00  0.00    -0.396 OA
HETATM   11  H   UNL     1      64.366  11.197   7.149  1.00  0.00     0.209 HD
ENDBRANCH   9  10
ENDBRANCH   3   9
TORSDOF 2
ENDMDL
MODEL 3
REMARK VINA RESULT:      -3.7      2.340      2.844
REMARK  2 active torsions:
REMARK  status: ('A' for Active; 'I' for Inactive)
REMARK    1  A    between atoms: C_3  and  C_7 
REMARK    2  A    between atoms: C_7  and  O_10 
ROOT
HETATM    1  N   UNL     1      61.111   9.125   3.076  1.00  0.00    -0.357 N 
ATOM      2  HN  UNL     1      60.428   9.104   2.319  1.00  0.00     0.166 HD
HETATM    3  C   UNL     1      62.352   8.320   4.884  1.00  0.00     0.030 A 
HETATM    4  S   UNL     1      62.919   9.931   4.712  1.00  0.00    -0.078 SA
HETATM    5  C   UNL     1      61.387   8.062   3.923  1.00  0.00     0.021 A 
HETATM    6  C   UNL     1      61.854  10.164   3.390  1.00  0.00     0.047 A 
HETATM    7  C   UNL     1      60.633   6.798   3.716  1.00  0.00     0.069 C 
HETATM    8  C   UNL     1      61.799  11.467   2.672  1.00  0.00     0.076 C 
ENDROOT
BRANCH   3   9
HETATM    9  C   UNL     1      62.905   7.429   5.939  1.00  0.00     0.212 C 
BRANCH   9  10
HETATM   10  O   UNL     1      62.560   7.982   7.202  1.00  0.00    -0.396 OA
HETATM   11  H   UNL     1      61.927   8.705   7.077  1.00  0.00     0.209 HD
ENDBRANCH   9  10
ENDBRANCH   3   9
TORSDOF 2
ENDMDL
MODEL 4
REMARK VINA RESULT:      -3.6      1.563      2.266
REMARK  2 active torsions:
REMARK  status: ('A' for Active; 'I' for Inactive)
REMARK    1  A    between atoms: C_3  and  C_7 
REMARK    2  A    between atoms: C_7  and  O_10 
ROOT
HETATM    1  N   UNL     1      62.086  10.203   3.350  1.00  0.00    -0.357 N 
ATOM      2  HN  UNL     1      61.557  11.056   3.164  1.00  0.00     0.166 HD
HETATM    3  C   UNL     1      63.461   8.733   4.535  1.00  0.00     0.030 A 
HETATM    4  S   UNL     1      63.127   7.870   3.090  1.00  0.00    -0.078 SA
HETATM    5  C   UNL     1      62.820   9.962   4.502  1.00  0.00     0.021 A 
HETATM    6  C   UNL     1      62.168   9.177   2.532  1.00  0.00     0.047 A 
HETATM    7  C   UNL     1      62.844  11.023   5.543  1.00  0.00     0.069 C 
HETATM    8  C   UNL     1      61.492   9.118   1.207  1.00  0.00     0.076 C 
ENDROOT
BRANCH   3   9
HETATM    9  C   UNL     1      64.314   8.135   5.597  1.00  0.00     0.212 C 
BRANCH   9  10
HETATM   10  O   UNL     1      65.439   8.984   5.783  1.00  0.00    -0.396 OA
HETATM   11  H   UNL     1      65.136   9.885   5.974  1.00  0.00     0.209 HD
ENDBRANCH   9  10
ENDBRANCH   3   9
TORSDOF 2
ENDMDL
MODEL 5
REMARK VINA RESULT:      -3.4      2.467      3.765
REMARK  2 active torsions:
REMARK  status: ('A' for Active; 'I' for Inactive)
REMARK    1  A    between atoms: C_3  and  C_7 
REMARK    2  A    between atoms: C_7  and  O_10 
ROOT
HETATM    1  N   UNL     1      64.390   9.053   5.646  1.00  0.00    -0.357 N 
ATOM      2  HN  UNL     1      64.854   9.392   6.489  1.00  0.00     0.166 HD
HETATM    3  C   UNL     1      62.886   9.063   3.859  1.00  0.00     0.030 A 
HETATM    4  S   UNL     1      63.741   7.592   3.636  1.00  0.00    -0.078 SA
HETATM    5  C   UNL     1      63.368   9.716   4.983  1.00  0.00     0.021 A 
HETATM    6  C   UNL     1      64.677   7.925   5.033  1.00  0.00     0.047 A 
HETATM    7  C   UNL     1      62.909  11.014   5.541  1.00  0.00     0.069 C 
HETATM    8  C   UNL     1      65.730   6.978   5.491  1.00  0.00     0.076 C 
ENDROOT
BRANCH   3   9
HETATM    9  C   UNL     1      61.818   9.472   2.907  1.00  0.00     0.212 C 
BRANCH   9  10
HETATM   10  O   UNL     1      60.569   9.067   3.454  1.00  0.00    -0.396 OA
HETATM   11  H   UNL     1      60.134   9.828   3.867  1.00  0.00     0.209 HD
ENDBRANCH   9  10
ENDBRANCH   3   9
TORSDOF 2
ENDMDL
MODEL 6
REMARK VINA RESULT:      -3.4     12.343     13.065
REMARK  2 active torsions:
REMARK  status: ('A' for Active; 'I' for Inactive)
REMARK    1  A    between atoms: C_3  and  C_7 
REMARK    2  A    between atoms: C_7  and  O_10 
ROOT
HETATM    1  N   UNL     1      56.994   1.725  14.156  1.00  0.00    -0.357 N 
ATOM      2  HN  UNL     1      57.149   1.397  15.110  1.00  0.00     0.166 HD
HETATM    3  C   UNL     1      57.547   2.390  11.987  1.00  0.00     0.030 A 
HETATM    4  S   UNL     1      55.838   2.541  12.013  1.00  0.00    -0.078 SA
HETATM    5  C   UNL     1      57.994   1.939  13.220  1.00  0.00     0.021 A 
HETATM    6  C   UNL     1      55.816   2.004  13.641  1.00  0.00     0.047 A 
HETATM    7  C   UNL     1      59.397   1.677  13.632  1.00  0.00     0.069 C 
HETATM    8  C   UNL     1      54.535   1.878  14.388  1.00  0.00     0.076 C 
ENDROOT
BRANCH   3   9
HETATM    9  C   UNL     1      58.319   2.711  10.756  1.00  0.00     0.212 C 
BRANCH   9  10
HETATM   10  O   UNL     1      58.352   4.126  10.619  1.00  0.00    -0.396 OA
HETATM   11  H   UNL     1      57.451   4.478  10.685  1.00  0.00     0.209 HD
ENDBRANCH   9  10
ENDBRANCH   3   9
TORSDOF 2
ENDMDL
MODEL 7
REMARK VINA RESULT:      -3.3      5.343      6.048
REMARK  2 active torsions:
REMARK  status: ('A' for Active; 'I' for Inactive)
REMARK    1  A    between atoms: C_3  and  C_7 
REMARK    2  A    between atoms: C_7  and  O_10 
ROOT
HETATM    1  N   UNL     1      65.736   4.905   8.213  1.00  0.00    -0.357 N 
ATOM      2  HN  UNL     1      65.731   4.333   9.058  1.00  0.00     0.166 HD
HETATM    3  C   UNL     1      66.257   6.723   6.842  1.00  0.00     0.030 A 
HETATM    4  S   UNL     1      65.290   5.736   5.824  1.00  0.00    -0.078 SA
HETATM    5  C   UNL     1      66.391   6.121   8.083  1.00  0.00     0.021 A 
HETATM    6  C   UNL     1      65.122   4.594   7.092  1.00  0.00     0.047 A 
HETATM    7  C   UNL     1      67.140   6.633   9.261  1.00  0.00     0.069 C 
HETATM    8  C   UNL     1      64.326   3.351   6.901  1.00  0.00     0.076 C 
ENDROOT
BRANCH   3   9
HETATM    9  C   UNL     1      66.821   8.006   6.342  1.00  0.00     0.212 C 
BRANCH   9  10
HETATM   10  O   UNL     1      65.760   8.950   6.270  1.00  0.00    -0.396 OA
HETATM   11  H   UNL     1      64.914   8.497   6.407  1.00  0.00     0.209 HD
ENDBRANCH   9  10
ENDBRANCH   3   9
TORSDOF 2
ENDMDL
MODEL 8
REMARK VINA RESULT:      -3.3      2.481      3.035
REMARK  2 active torsions:
REMARK  status: ('A' for Active; 'I' for Inactive)
REMARK    1  A    between atoms: C_3  and  C_7 
REMARK    2  A    between atoms: C_7  and  O_10 
ROOT
HETATM    1  N   UNL     1      60.476   8.851   3.305  1.00  0.00    -0.357 N 
ATOM      2  HN  UNL     1      59.709   9.299   2.802  1.00  0.00     0.166 HD
HETATM    3  C   UNL     1      62.593   8.643   4.269  1.00  0.00     0.030 A 
HETATM    4  S   UNL     1      61.870   7.120   4.591  1.00  0.00    -0.078 SA
HETATM    5  C   UNL     1      61.700   9.444   3.573  1.00  0.00     0.021 A 
HETATM    6  C   UNL     1      60.442   7.629   3.791  1.00  0.00     0.047 A 
HETATM    7  C   UNL     1      61.918  10.832   3.090  1.00  0.00     0.069 C 
HETATM    8  C   UNL     1      59.267   6.723   3.673  1.00  0.00     0.076 C 
ENDROOT
BRANCH   3   9
HETATM    9  C   UNL     1      63.974   8.942   4.735  1.00  0.00     0.212 C 
BRANCH   9  10
HETATM   10  O   UNL     1      63.887   9.935   5.749  1.00  0.00    -0.396 OA
HETATM   11  H   UNL     1      63.427  10.714   5.400  1.00  0.00     0.209 HD
ENDBRANCH   9  10
ENDBRANCH   3   9
TORSDOF 2
ENDMDL
MODEL 9
REMARK VINA RESULT:      -3.2      4.719      6.387
REMARK  2 active torsions:
REMARK  status: ('A' for Active; 'I' for Inactive)
REMARK    1  A    between atoms: C_3  and  C_7 
REMARK    2  A    between atoms: C_7  and  O_10 
ROOT
HETATM    1  N   UNL     1      67.683   5.188   6.444  1.00  0.00    -0.357 N 
ATOM      2  HN  UNL     1      68.359   4.484   6.145  1.00  0.00     0.166 HD
HETATM    3  C   UNL     1      66.065   6.857   6.220  1.00  0.00     0.030 A 
HETATM    4  S   UNL     1      66.239   6.714   7.921  1.00  0.00    -0.078 SA
HETATM    5  C   UNL     1      66.915   5.962   5.588  1.00  0.00     0.021 A 
HETATM    6  C   UNL     1      67.417   5.489   7.697  1.00  0.00     0.047 A 
HETATM    7  C   UNL     1      67.088   5.758   4.126  1.00  0.00     0.069 C 
HETATM    8  C   UNL     1      68.073   4.836   8.862  1.00  0.00     0.076 C 
ENDROOT
BRANCH   3   9
HETATM    9  C   UNL     1      65.099   7.825   5.634  1.00  0.00     0.212 C 
BRANCH   9  10
HETATM   10  O   UNL     1      65.540   9.136   5.966  1.00  0.00    -0.396 OA
HETATM   11  H   UNL     1      65.183   9.769   5.325  1.00  0.00     0.209 HD
ENDBRANCH   9  10
ENDBRANCH   3   9
TORSDOF 2
ENDMDL
