MODEL 1
REMARK VINA RESULT:      -4.0      0.000      0.000
REMARK  1 active torsions:
REMARK  status: ('A' for Active; 'I' for Inactive)
REMARK    1  A    between atoms: C_1  and  C_5 
ROOT
HETATM    1  C   UNK     1      62.300   9.896   3.778  1.00  0.00     0.117 A 
HETATM    2  N   UNK     1      61.371   9.867   2.736  1.00  0.00    -0.348 N 
ATOM      3  HN  UNK     1      60.692  10.602   2.541  1.00  0.00     0.166 HD
HETATM    4  C   UNK     1      63.116   8.780   3.836  1.00  0.00     0.088 A 
HETATM    5  C   UNK     1      61.496   8.756   2.044  1.00  0.00     0.047 A 
HETATM    6  S   UNK     1      62.723   7.682   2.583  1.00  0.00    -0.086 SA
HETATM    7  C   UNK     1      60.658   8.397   0.867  1.00  0.00     0.076 C 
ENDROOT
BRANCH   1   8
HETATM    8  C   UNK     1      62.398  11.006   4.722  1.00  0.00     0.227 C 
HETATM    9  O   UNK     1      61.912  12.118   4.559  1.00  0.00    -0.643 OA
HETATM   10  O   UNK     1      63.093  10.735   5.851  1.00  0.00    -0.643 OA
ENDBRANCH   1   8
TORSDOF 1
ENDMDL
MODEL 2
REMARK VINA RESULT:      -4.0      2.126      3.147
REMARK  1 active torsions:
REMARK  status: ('A' for Active; 'I' for Inactive)
REMARK    1  A    between atoms: C_1  and  C_5 
ROOT
HETATM    1  C   UNK     1      63.325   9.729   4.887  1.00  0.00     0.117 A 
HETATM    2  N   UNK     1      64.445   9.112   5.450  1.00  0.00    -0.348 N 
ATOM      3  HN  UNK     1      64.999   9.497   6.215  1.00  0.00     0.166 HD
HETATM    4  C   UNK     1      62.742   9.008   3.861  1.00  0.00     0.088 A 
HETATM    5  C   UNK     1      64.683   7.966   4.852  1.00  0.00     0.047 A 
HETATM    6  S   UNK     1      63.594   7.548   3.592  1.00  0.00    -0.086 SA
HETATM    7  C   UNK     1      65.806   7.052   5.198  1.00  0.00     0.076 C 
ENDROOT
BRANCH   1   8
HETATM    8  C   UNK     1      62.819  11.021   5.342  1.00  0.00     0.227 C 
HETATM    9  O   UNK     1      62.076  11.754   4.703  1.00  0.00    -0.643 OA
HETATM   10  O   UNK     1      63.235  11.395   6.574  1.00  0.00    -0.643 OA
ENDBRANCH   1   8
TORSDOF 1
ENDMDL
MODEL 3
REMARK VINA RESULT:      -3.8      1.818      2.887
REMARK  1 active torsions:
REMARK  status: ('A' for Active; 'I' for Inactive)
REMARK    1  A    between atoms: C_1  and  C_5 
ROOT
HETATM    1  C   UNK     1      61.992   9.858   3.905  1.00  0.00     0.117 A 
HETATM    2  N   UNK     1      62.846   9.400   4.911  1.00  0.00    -0.348 N 
ATOM      3  HN  UNK     1      63.506   9.983   5.426  1.00  0.00     0.166 HD
HETATM    4  C   UNK     1      61.189   8.875   3.357  1.00  0.00     0.088 A 
HETATM    5  C   UNK     1      62.679   8.109   5.099  1.00  0.00     0.047 A 
HETATM    6  S   UNK     1      61.498   7.363   4.099  1.00  0.00    -0.086 SA
HETATM    7  C   UNK     1      63.433   7.297   6.092  1.00  0.00     0.076 C 
ENDROOT
BRANCH   1   8
HETATM    8  C   UNK     1      61.955  11.252   3.472  1.00  0.00     0.227 C 
HETATM    9  O   UNK     1      62.008  11.633   2.309  1.00  0.00    -0.643 OA
HETATM   10  O   UNK     1      61.855  12.159   4.471  1.00  0.00    -0.643 OA
ENDBRANCH   1   8
TORSDOF 1
ENDMDL
MODEL 4
REMARK VINA RESULT:      -3.6      5.553      6.589
REMARK  1 active torsions:
REMARK  status: ('A' for Active; 'I' for Inactive)
REMARK    1  A    between atoms: C_1  and  C_5 
ROOT
HETATM    1  C   UNK     1      66.463   6.629   7.271  1.00  0.00     0.117 A 
HETATM    2  N   UNK     1      65.326   7.344   6.889  1.00  0.00    -0.348 N 
ATOM      3  HN  UNK     1      64.473   7.421   7.443  1.00  0.00     0.166 HD
HETATM    4  C   UNK     1      67.494   6.677   6.349  1.00  0.00     0.088 A 
HETATM    5  C   UNK     1      65.512   7.905   5.715  1.00  0.00     0.047 A 
HETATM    6  S   UNK     1      67.045   7.621   4.994  1.00  0.00    -0.086 SA
HETATM    7  C   UNK     1      64.500   8.735   5.007  1.00  0.00     0.076 C 
ENDROOT
BRANCH   1   8
HETATM    8  C   UNK     1      66.552   5.894   8.529  1.00  0.00     0.227 C 
HETATM    9  O   UNK     1      66.095   4.776   8.729  1.00  0.00    -0.643 OA
HETATM   10  O   UNK     1      67.199   6.543   9.525  1.00  0.00    -0.643 OA
ENDBRANCH   1   8
TORSDOF 1
ENDMDL
MODEL 5
REMARK VINA RESULT:      -3.6      4.751      5.969
REMARK  1 active torsions:
REMARK  status: ('A' for Active; 'I' for Inactive)
REMARK    1  A    between atoms: C_1  and  C_5 
ROOT
HETATM    1  C   UNK     1      65.694   7.732   5.707  1.00  0.00     0.117 A 
HETATM    2  N   UNK     1      65.896   7.598   7.082  1.00  0.00    -0.348 N 
ATOM      3  HN  UNK     1      65.382   8.110   7.799  1.00  0.00     0.166 HD
HETATM    4  C   UNK     1      66.514   6.927   4.937  1.00  0.00     0.088 A 
HETATM    5  C   UNK     1      66.843   6.718   7.321  1.00  0.00     0.047 A 
HETATM    6  S   UNK     1      67.548   5.994   5.933  1.00  0.00    -0.086 SA
HETATM    7  C   UNK     1      67.317   6.337   8.680  1.00  0.00     0.076 C 
ENDROOT
BRANCH   1   8
HETATM    8  C   UNK     1      64.706   8.643   5.136  1.00  0.00     0.227 C 
HETATM    9  O   UNK     1      63.993   8.398   4.171  1.00  0.00    -0.643 OA
HETATM   10  O   UNK     1      64.609   9.842   5.756  1.00  0.00    -0.643 OA
ENDBRANCH   1   8
TORSDOF 1
ENDMDL
MODEL 6
REMARK VINA RESULT:      -3.5      2.485      2.974
REMARK  1 active torsions:
REMARK  status: ('A' for Active; 'I' for Inactive)
REMARK    1  A    between atoms: C_1  and  C_5 
ROOT
HETATM    1  C   UNK     1      63.024   8.644   4.556  1.00  0.00     0.117 A 
HETATM    2  N   UNK     1      62.873   8.247   3.226  1.00  0.00    -0.348 N 
ATOM      3  HN  UNK     1      63.135   7.332   2.858  1.00  0.00     0.166 HD
HETATM    4  C   UNK     1      62.593   9.934   4.810  1.00  0.00     0.088 A 
HETATM    5  C   UNK     1      62.345   9.219   2.516  1.00  0.00     0.047 A 
HETATM    6  S   UNK     1      61.993  10.660   3.381  1.00  0.00    -0.086 SA
HETATM    7  C   UNK     1      62.054   9.137   1.059  1.00  0.00     0.076 C 
ENDROOT
BRANCH   1   8
HETATM    8  C   UNK     1      63.590   7.775   5.584  1.00  0.00     0.227 C 
HETATM    9  O   UNK     1      64.553   7.035   5.433  1.00  0.00    -0.643 OA
HETATM   10  O   UNK     1      62.963   7.826   6.782  1.00  0.00    -0.643 OA
ENDBRANCH   1   8
TORSDOF 1
ENDMDL
MODEL 7
REMARK VINA RESULT:      -3.4      5.318      6.533
REMARK  1 active torsions:
REMARK  status: ('A' for Active; 'I' for Inactive)
REMARK    1  A    between atoms: C_1  and  C_5 
ROOT
HETATM    1  C   UNK     1      64.630   6.438   6.761  1.00  0.00     0.117 A 
HETATM    2  N   UNK     1      65.526   6.984   7.681  1.00  0.00    -0.348 N 
ATOM      3  HN  UNK     1      65.536   7.961   7.976  1.00  0.00     0.166 HD
HETATM    4  C   UNK     1      64.817   5.087   6.527  1.00  0.00     0.088 A 
HETATM    5  C   UNK     1      66.356   6.061   8.115  1.00  0.00     0.047 A 
HETATM    6  S   UNK     1      66.122   4.491   7.461  1.00  0.00    -0.086 SA
HETATM    7  C   UNK     1      67.445   6.302   9.100  1.00  0.00     0.076 C 
ENDROOT
BRANCH   1   8
HETATM    8  C   UNK     1      63.590   7.224   6.104  1.00  0.00     0.227 C 
HETATM    9  O   UNK     1      63.504   7.415   4.897  1.00  0.00    -0.643 OA
HETATM   10  O   UNK     1      62.673   7.767   6.936  1.00  0.00    -0.643 OA
ENDBRANCH   1   8
TORSDOF 1
ENDMDL
MODEL 8
REMARK VINA RESULT:      -3.2      1.897      2.149
REMARK  1 active torsions:
REMARK  status: ('A' for Active; 'I' for Inactive)
REMARK    1  A    between atoms: C_1  and  C_5 
ROOT
HETATM    1  C   UNK     1      62.614   9.292   4.455  1.00  0.00     0.117 A 
HETATM    2  N   UNK     1      62.162   7.998   4.720  1.00  0.00    -0.348 N 
ATOM      3  HN  UNK     1      62.345   7.482   5.581  1.00  0.00     0.166 HD
HETATM    4  C   UNK     1      62.235   9.778   3.217  1.00  0.00     0.088 A 
HETATM    5  C   UNK     1      61.468   7.539   3.702  1.00  0.00     0.047 A 
HETATM    6  S   UNK     1      61.307   8.613   2.372  1.00  0.00    -0.086 SA
HETATM    7  C   UNK     1      60.846   6.188   3.647  1.00  0.00     0.076 C 
ENDROOT
BRANCH   1   8
HETATM    8  C   UNK     1      63.417  10.061   5.402  1.00  0.00     0.227 C 
HETATM    9  O   UNK     1      63.049  11.074   5.982  1.00  0.00    -0.643 OA
HETATM   10  O   UNK     1      64.661   9.577   5.620  1.00  0.00    -0.643 OA
ENDBRANCH   1   8
TORSDOF 1
ENDMDL
MODEL 9
REMARK VINA RESULT:      -3.2      4.810      5.007
REMARK  1 active torsions:
REMARK  status: ('A' for Active; 'I' for Inactive)
REMARK    1  A    between atoms: C_1  and  C_5 
ROOT
HETATM    1  C   UNK     1      65.234   7.202   5.927  1.00  0.00     0.117 A 
HETATM    2  N   UNK     1      63.917   7.532   6.256  1.00  0.00    -0.348 N 
ATOM      3  HN  UNK     1      63.604   8.460   6.541  1.00  0.00     0.166 HD
HETATM    4  C   UNK     1      65.408   5.877   5.570  1.00  0.00     0.088 A 
HETATM    5  C   UNK     1      63.140   6.478   6.146  1.00  0.00     0.047 A 
HETATM    6  S   UNK     1      63.921   5.033   5.644  1.00  0.00    -0.086 SA
HETATM    7  C   UNK     1      61.679   6.474   6.428  1.00  0.00     0.076 C 
ENDROOT
BRANCH   1   8
HETATM    8  C   UNK     1      66.326   8.170   5.961  1.00  0.00     0.227 C 
HETATM    9  O   UNK     1      66.586   8.911   6.900  1.00  0.00    -0.643 OA
HETATM   10  O   UNK     1      67.083   8.216   4.840  1.00  0.00    -0.643 OA
ENDBRANCH   1   8
TORSDOF 1
ENDMDL
