MODEL 1
REMARK VINA RESULT:      -4.9      0.000      0.000
REMARK  2 active torsions:
REMARK  status: ('A' for Active; 'I' for Inactive)
REMARK    1  A    between atoms: C_4  and  C_7 
REMARK    2  A    between atoms: C_7  and  N_9 
ROOT
HETATM    1  N   UNL     1      63.430   9.264   5.590  1.00  0.00    -0.300 N 
ATOM      2  HN  UNL     1      63.705   9.449   6.555  1.00  0.00     0.187 HD
HETATM    3  N   UNL     1      62.792  10.085   4.736  1.00  0.00    -0.296 N 
HETATM    4  C   UNL     1      63.622   8.144   4.875  1.00  0.00     0.064 A 
HETATM    5  C   UNL     1      63.076   8.253   3.566  1.00  0.00     0.018 A 
HETATM    6  C   UNL     1      62.538   9.536   3.504  1.00  0.00     0.062 A 
HETATM    7  C   UNL     1      62.481  11.433   5.150  1.00  0.00     0.178 C 
HETATM    8  C   UNL     1      63.010   7.424   2.431  1.00  0.00     0.016 A 
HETATM    9  C   UNL     1      61.918  10.036   2.352  1.00  0.00     0.032 A 
HETATM   10  C   UNL     1      62.395   7.909   1.270  1.00  0.00     0.001 A 
HETATM   11  C   UNL     1      61.856   9.194   1.236  1.00  0.00     0.002 A 
ENDROOT
BRANCH   4  12
HETATM   12  C   UNL     1      64.374   6.988   5.464  1.00  0.00     0.291 C 
BRANCH  12  13
HETATM   13  N   UNL     1      64.513   7.110   6.926  1.00  0.00    -0.074 N 
HETATM   14  C   UNL     1      65.679   6.385   7.422  1.00  0.00     0.267 C 
HETATM   15  H   UNL     1      63.676   6.732   7.369  1.00  0.00     0.277 HD
HETATM   16  H   UNL     1      64.635   8.098   7.152  1.00  0.00     0.277 HD
ENDBRANCH  12  13
ENDBRANCH   4  12
TORSDOF 2
ENDMDL
MODEL 2
REMARK VINA RESULT:      -4.8      1.729      2.833
REMARK  2 active torsions:
REMARK  status: ('A' for Active; 'I' for Inactive)
REMARK    1  A    between atoms: C_4  and  C_7 
REMARK    2  A    between atoms: C_7  and  N_9 
ROOT
HETATM    1  N   UNL     1      63.586   6.883   3.306  1.00  0.00    -0.300 N 
ATOM      2  HN  UNL     1      63.982   5.946   3.390  1.00  0.00     0.187 HD
HETATM    3  N   UNL     1      63.068   7.470   2.211  1.00  0.00    -0.296 N 
HETATM    4  C   UNL     1      63.458   7.817   4.261  1.00  0.00     0.064 A 
HETATM    5  C   UNL     1      62.878   9.014   3.757  1.00  0.00     0.018 A 
HETATM    6  C   UNL     1      62.633   8.757   2.410  1.00  0.00     0.062 A 
HETATM    7  C   UNL     1      62.973   6.717   0.983  1.00  0.00     0.178 C 
HETATM    8  C   UNL     1      62.508  10.260   4.297  1.00  0.00     0.016 A 
HETATM    9  C   UNL     1      62.040   9.699   1.561  1.00  0.00     0.032 A 
HETATM   10  C   UNL     1      61.912  11.212   3.462  1.00  0.00     0.001 A 
HETATM   11  C   UNL     1      61.686  10.935   2.115  1.00  0.00     0.002 A 
ENDROOT
BRANCH   4  12
HETATM   12  C   UNL     1      63.869   7.520   5.672  1.00  0.00     0.291 C 
BRANCH  12  13
HETATM   13  N   UNL     1      65.087   8.255   6.058  1.00  0.00    -0.074 N 
HETATM   14  C   UNL     1      66.151   7.354   6.489  1.00  0.00     0.267 C 
HETATM   15  H   UNL     1      64.859   8.889   6.825  1.00  0.00     0.277 HD
HETATM   16  H   UNL     1      65.419   8.770   5.242  1.00  0.00     0.277 HD
ENDBRANCH  12  13
ENDBRANCH   4  12
TORSDOF 2
ENDMDL
MODEL 3
REMARK VINA RESULT:      -4.3      1.882      4.078
REMARK  2 active torsions:
REMARK  status: ('A' for Active; 'I' for Inactive)
REMARK    1  A    between atoms: C_4  and  C_7 
REMARK    2  A    between atoms: C_7  and  N_9 
ROOT
HETATM    1  N   UNL     1      61.569  10.176   3.372  1.00  0.00    -0.300 N 
ATOM      2  HN  UNL     1      60.853  10.892   3.241  1.00  0.00     0.187 HD
HETATM    3  N   UNL     1      62.542  10.135   4.301  1.00  0.00    -0.296 N 
HETATM    4  C   UNL     1      61.759   9.055   2.658  1.00  0.00     0.064 A 
HETATM    5  C   UNL     1      62.879   8.314   3.127  1.00  0.00     0.018 A 
HETATM    6  C   UNL     1      63.373   9.047   4.203  1.00  0.00     0.062 A 
HETATM    7  C   UNL     1      62.603  11.168   5.307  1.00  0.00     0.178 C 
HETATM    8  C   UNL     1      63.500   7.100   2.779  1.00  0.00     0.016 A 
HETATM    9  C   UNL     1      64.478   8.628   4.954  1.00  0.00     0.032 A 
HETATM   10  C   UNL     1      64.605   6.665   3.521  1.00  0.00     0.001 A 
HETATM   11  C   UNL     1      65.086   7.421   4.589  1.00  0.00     0.002 A 
ENDROOT
BRANCH   4  12
HETATM   12  C   UNL     1      60.820   8.695   1.547  1.00  0.00     0.291 C 
BRANCH  12  13
HETATM   13  N   UNL     1      59.546   8.154   2.056  1.00  0.00    -0.074 N 
HETATM   14  C   UNL     1      59.618   6.712   2.274  1.00  0.00     0.267 C 
HETATM   15  H   UNL     1      58.811   8.349   1.377  1.00  0.00     0.277 HD
HETATM   16  H   UNL     1      59.347   8.600   2.952  1.00  0.00     0.277 HD
ENDBRANCH  12  13
ENDBRANCH   4  12
TORSDOF 2
ENDMDL
MODEL 4
REMARK VINA RESULT:      -4.2      2.004      3.217
REMARK  2 active torsions:
REMARK  status: ('A' for Active; 'I' for Inactive)
REMARK    1  A    between atoms: C_4  and  C_7 
REMARK    2  A    between atoms: C_7  and  N_9 
ROOT
HETATM    1  N   UNL     1      63.127   7.276   2.273  1.00  0.00    -0.300 N 
ATOM      2  HN  UNL     1      63.260   6.445   1.696  1.00  0.00     0.187 HD
HETATM    3  N   UNL     1      62.455   8.401   1.966  1.00  0.00    -0.296 N 
HETATM    4  C   UNL     1      63.581   7.504   3.515  1.00  0.00     0.064 A 
HETATM    5  C   UNL     1      63.213   8.794   3.985  1.00  0.00     0.018 A 
HETATM    6  C   UNL     1      62.476   9.360   2.948  1.00  0.00     0.062 A 
HETATM    7  C   UNL     1      61.759   8.487   0.704  1.00  0.00     0.178 C 
HETATM    8  C   UNL     1      63.395   9.522   5.176  1.00  0.00     0.016 A 
HETATM    9  C   UNL     1      61.913  10.639   3.036  1.00  0.00     0.032 A 
HETATM   10  C   UNL     1      62.837  10.802   5.282  1.00  0.00     0.001 A 
HETATM   11  C   UNL     1      62.111  11.350   4.225  1.00  0.00     0.002 A 
ENDROOT
BRANCH   4  12
HETATM   12  C   UNL     1      64.339   6.440   4.251  1.00  0.00     0.291 C 
BRANCH  12  13
HETATM   13  N   UNL     1      63.446   5.573   5.040  1.00  0.00    -0.074 N 
HETATM   14  C   UNL     1      63.603   4.166   4.686  1.00  0.00     0.267 C 
HETATM   15  H   UNL     1      62.480   5.852   4.868  1.00  0.00     0.277 HD
HETATM   16  H   UNL     1      63.689   5.680   6.026  1.00  0.00     0.277 HD
ENDBRANCH  12  13
ENDBRANCH   4  12
TORSDOF 2
ENDMDL
MODEL 5
REMARK VINA RESULT:      -4.1      2.235      3.898
REMARK  2 active torsions:
REMARK  status: ('A' for Active; 'I' for Inactive)
REMARK    1  A    between atoms: C_4  and  C_7 
REMARK    2  A    between atoms: C_7  and  N_9 
ROOT
HETATM    1  N   UNL     1      64.007   6.877   3.669  1.00  0.00    -0.300 N 
ATOM      2  HN  UNL     1      64.433   5.951   3.623  1.00  0.00     0.187 HD
HETATM    3  N   UNL     1      64.083   7.778   4.665  1.00  0.00    -0.296 N 
HETATM    4  C   UNL     1      63.239   7.481   2.748  1.00  0.00     0.064 A 
HETATM    5  C   UNL     1      62.806   8.765   3.181  1.00  0.00     0.018 A 
HETATM    6  C   UNL     1      63.375   8.932   4.441  1.00  0.00     0.062 A 
HETATM    7  C   UNL     1      64.904   7.490   5.817  1.00  0.00     0.178 C 
HETATM    8  C   UNL     1      62.031   9.804   2.634  1.00  0.00     0.016 A 
HETATM    9  C   UNL     1      63.196  10.097   5.198  1.00  0.00     0.032 A 
HETATM   10  C   UNL     1      61.844  10.976   3.376  1.00  0.00     0.001 A 
HETATM   11  C   UNL     1      62.416  11.116   4.639  1.00  0.00     0.002 A 
ENDROOT
BRANCH   4  12
HETATM   12  C   UNL     1      62.965   6.815   1.434  1.00  0.00     0.291 C 
BRANCH  12  13
HETATM   13  N   UNL     1      63.131   5.352   1.513  1.00  0.00    -0.074 N 
HETATM   14  C   UNL     1      64.069   4.857   0.510  1.00  0.00     0.267 C 
HETATM   15  H   UNL     1      62.224   4.909   1.364  1.00  0.00     0.277 HD
HETATM   16  H   UNL     1      63.504   5.124   2.435  1.00  0.00     0.277 HD
ENDBRANCH  12  13
ENDBRANCH   4  12
TORSDOF 2
ENDMDL
MODEL 6
REMARK VINA RESULT:      -3.9      1.859      4.906
REMARK  2 active torsions:
REMARK  status: ('A' for Active; 'I' for Inactive)
REMARK    1  A    between atoms: C_4  and  C_7 
REMARK    2  A    between atoms: C_7  and  N_9 
ROOT
HETATM    1  N   UNL     1      61.337   7.329   4.673  1.00  0.00    -0.300 N 
ATOM      2  HN  UNL     1      60.366   7.248   4.369  1.00  0.00     0.187 HD
HETATM    3  N   UNL     1      61.976   6.609   5.613  1.00  0.00    -0.296 N 
HETATM    4  C   UNL     1      62.276   8.179   4.227  1.00  0.00     0.064 A 
HETATM    5  C   UNL     1      63.511   8.009   4.911  1.00  0.00     0.018 A 
HETATM    6  C   UNL     1      63.284   6.974   5.814  1.00  0.00     0.062 A 
HETATM    7  C   UNL     1      61.280   5.530   6.272  1.00  0.00     0.178 C 
HETATM    8  C   UNL     1      64.790   8.592   4.840  1.00  0.00     0.016 A 
HETATM    9  C   UNL     1      64.282   6.492   6.672  1.00  0.00     0.032 A 
HETATM   10  C   UNL     1      65.799   8.120   5.688  1.00  0.00     0.001 A 
HETATM   11  C   UNL     1      65.545   7.089   6.591  1.00  0.00     0.002 A 
ENDROOT
BRANCH   4  12
HETATM   12  C   UNL     1      61.970   9.125   3.105  1.00  0.00     0.291 C 
BRANCH  12  13
HETATM   13  N   UNL     1      62.007  10.531   3.545  1.00  0.00    -0.074 N 
HETATM   14  C   UNL     1      61.782  11.453   2.436  1.00  0.00     0.267 C 
HETATM   15  H   UNL     1      62.921  10.724   3.955  1.00  0.00     0.277 HD
HETATM   16  H   UNL     1      61.262  10.670   4.229  1.00  0.00     0.277 HD
ENDBRANCH  12  13
ENDBRANCH   4  12
TORSDOF 2
ENDMDL
MODEL 7
REMARK VINA RESULT:      -3.9      2.507      6.346
REMARK  2 active torsions:
REMARK  status: ('A' for Active; 'I' for Inactive)
REMARK    1  A    between atoms: C_4  and  C_7 
REMARK    2  A    between atoms: C_7  and  N_9 
ROOT
HETATM    1  N   UNL     1      65.668   7.189   7.678  1.00  0.00    -0.300 N 
ATOM      2  HN  UNL     1      65.200   8.010   8.062  1.00  0.00     0.187 HD
HETATM    3  N   UNL     1      66.424   6.285   8.329  1.00  0.00    -0.296 N 
HETATM    4  C   UNL     1      65.675   6.757   6.407  1.00  0.00     0.064 A 
HETATM    5  C   UNL     1      66.463   5.583   6.252  1.00  0.00     0.018 A 
HETATM    6  C   UNL     1      66.942   5.298   7.528  1.00  0.00     0.062 A 
HETATM    7  C   UNL     1      66.583   6.395   9.760  1.00  0.00     0.178 C 
HETATM    8  C   UNL     1      66.792   4.724   5.187  1.00  0.00     0.016 A 
HETATM    9  C   UNL     1      67.754   4.188   7.796  1.00  0.00     0.032 A 
HETATM   10  C   UNL     1      67.600   3.609   5.437  1.00  0.00     0.001 A 
HETATM   11  C   UNL     1      68.075   3.350   6.722  1.00  0.00     0.002 A 
ENDROOT
BRANCH   4  12
HETATM   12  C   UNL     1      64.876   7.472   5.360  1.00  0.00     0.291 C 
BRANCH  12  13
HETATM   13  N   UNL     1      64.693   8.898   5.686  1.00  0.00    -0.074 N 
HETATM   14  C   UNL     1      63.499   9.450   5.052  1.00  0.00     0.267 C 
HETATM   15  H   UNL     1      65.509   9.417   5.363  1.00  0.00     0.277 HD
HETATM   16  H   UNL     1      64.581   8.981   6.697  1.00  0.00     0.277 HD
ENDBRANCH  12  13
ENDBRANCH   4  12
TORSDOF 2
ENDMDL
MODEL 8
REMARK VINA RESULT:      -3.8      2.174      5.310
REMARK  2 active torsions:
REMARK  status: ('A' for Active; 'I' for Inactive)
REMARK    1  A    between atoms: C_4  and  C_7 
REMARK    2  A    between atoms: C_7  and  N_9 
ROOT
HETATM    1  N   UNL     1      65.338   7.586   6.971  1.00  0.00    -0.300 N 
ATOM      2  HN  UNL     1      64.950   8.215   7.675  1.00  0.00     0.187 HD
HETATM    3  N   UNL     1      66.066   6.471   7.164  1.00  0.00    -0.296 N 
HETATM    4  C   UNL     1      65.240   7.678   5.635  1.00  0.00     0.064 A 
HETATM    5  C   UNL     1      65.935   6.624   4.981  1.00  0.00     0.018 A 
HETATM    6  C   UNL     1      66.467   5.849   6.008  1.00  0.00     0.062 A 
HETATM    7  C   UNL     1      66.316   6.014   8.511  1.00  0.00     0.178 C 
HETATM    8  C   UNL     1      66.141   6.230   3.645  1.00  0.00     0.016 A 
HETATM    9  C   UNL     1      67.214   4.689   5.765  1.00  0.00     0.032 A 
HETATM   10  C   UNL     1      66.884   5.072   3.385  1.00  0.00     0.001 A 
HETATM   11  C   UNL     1      67.414   4.318   4.431  1.00  0.00     0.002 A 
ENDROOT
BRANCH   4  12
HETATM   12  C   UNL     1      64.433   8.775   5.008  1.00  0.00     0.291 C 
BRANCH  12  13
HETATM   13  N   UNL     1      63.115   8.297   4.553  1.00  0.00    -0.074 N 
HETATM   14  C   UNL     1      62.922   8.519   3.123  1.00  0.00     0.267 C 
HETATM   15  H   UNL     1      62.389   8.796   5.066  1.00  0.00     0.277 HD
HETATM   16  H   UNL     1      63.063   7.293   4.727  1.00  0.00     0.277 HD
ENDBRANCH  12  13
ENDBRANCH   4  12
TORSDOF 2
ENDMDL
MODEL 9
REMARK VINA RESULT:      -3.8      2.166      6.282
REMARK  2 active torsions:
REMARK  status: ('A' for Active; 'I' for Inactive)
REMARK    1  A    between atoms: C_4  and  C_7 
REMARK    2  A    between atoms: C_7  and  N_9 
ROOT
HETATM    1  N   UNL     1      65.184   6.153   4.588  1.00  0.00    -0.300 N 
ATOM      2  HN  UNL     1      64.668   6.209   3.709  1.00  0.00     0.187 HD
HETATM    3  N   UNL     1      66.369   5.560   4.820  1.00  0.00    -0.296 N 
HETATM    4  C   UNL     1      64.837   6.655   5.784  1.00  0.00     0.064 A 
HETATM    5  C   UNL     1      65.802   6.353   6.784  1.00  0.00     0.018 A 
HETATM    6  C   UNL     1      66.795   5.634   6.122  1.00  0.00     0.062 A 
HETATM    7  C   UNL     1      67.087   4.961   3.719  1.00  0.00     0.178 C 
HETATM    8  C   UNL     1      65.956   6.636   8.154  1.00  0.00     0.016 A 
HETATM    9  C   UNL     1      67.944   5.166   6.772  1.00  0.00     0.032 A 
HETATM   10  C   UNL     1      67.100   6.178   8.818  1.00  0.00     0.001 A 
HETATM   11  C   UNL     1      68.075   5.452   8.136  1.00  0.00     0.002 A 
ENDROOT
BRANCH   4  12
HETATM   12  C   UNL     1      63.583   7.462   5.932  1.00  0.00     0.291 C 
BRANCH  12  13
HETATM   13  N   UNL     1      63.814   8.894   5.666  1.00  0.00    -0.074 N 
HETATM   14  C   UNL     1      62.955   9.392   4.596  1.00  0.00     0.267 C 
HETATM   15  H   UNL     1      64.789   9.025   5.395  1.00  0.00     0.277 HD
HETATM   16  H   UNL     1      63.596   9.414   6.516  1.00  0.00     0.277 HD
ENDBRANCH  12  13
ENDBRANCH   4  12
TORSDOF 2
ENDMDL
