MODEL 1
REMARK VINA RESULT:      -5.7      0.000      0.000
REMARK  2 active torsions:
REMARK  status: ('A' for Active; 'I' for Inactive)
REMARK    1  A    between atoms: C_4  and  C_7 
REMARK    2  A    between atoms: C_7  and  O_11 
ROOT
HETATM    1  N   UNL     1      63.523   9.038   5.714  1.00  0.00    -0.300 N 
ATOM      2  HN  UNL     1      63.928   8.836   6.629  1.00  0.00     0.187 HD
HETATM    3  N   UNL     1      63.364   8.201   4.670  1.00  0.00    -0.296 N 
HETATM    4  C   UNL     1      63.022  10.203   5.267  1.00  0.00     0.061 A 
HETATM    5  C   UNL     1      62.578  10.110   3.920  1.00  0.00     0.018 A 
HETATM    6  C   UNL     1      62.817   8.788   3.556  1.00  0.00     0.062 A 
HETATM    7  C   UNL     1      63.746   6.814   4.802  1.00  0.00     0.178 C 
HETATM    8  C   UNL     1      62.009  10.989   2.980  1.00  0.00     0.016 A 
HETATM    9  C   UNL     1      62.510   8.291   2.280  1.00  0.00     0.032 A 
HETATM   10  C   UNL     1      61.700  10.509   1.702  1.00  0.00     0.001 A 
HETATM   11  C   UNL     1      61.947   9.181   1.360  1.00  0.00     0.002 A 
ENDROOT
BRANCH   4  12
HETATM   12  C   UNL     1      63.008  11.395   6.164  1.00  0.00     0.223 C 
BRANCH  12  13
HETATM   13  O   UNL     1      64.325  11.763   6.575  1.00  0.00    -0.395 OA
HETATM   14  H   UNL     1      64.958  11.095   6.268  1.00  0.00     0.209 HD
ENDBRANCH  12  13
ENDBRANCH   4  12
TORSDOF 2
ENDMDL
MODEL 2
REMARK VINA RESULT:      -5.0      1.443      3.044
REMARK  2 active torsions:
REMARK  status: ('A' for Active; 'I' for Inactive)
REMARK    1  A    between atoms: C_4  and  C_7 
REMARK    2  A    between atoms: C_7  and  O_11 
ROOT
HETATM    1  N   UNL     1      62.067  10.541   3.747  1.00  0.00    -0.300 N 
ATOM      2  HN  UNL     1      61.471  11.361   3.630  1.00  0.00     0.187 HD
HETATM    3  N   UNL     1      62.229   9.502   2.904  1.00  0.00    -0.296 N 
HETATM    4  C   UNL     1      62.877  10.243   4.778  1.00  0.00     0.061 A 
HETATM    5  C   UNL     1      63.526   8.991   4.602  1.00  0.00     0.018 A 
HETATM    6  C   UNL     1      63.079   8.529   3.366  1.00  0.00     0.062 A 
HETATM    7  C   UNL     1      61.543   9.500   1.633  1.00  0.00     0.178 C 
HETATM    8  C   UNL     1      64.429   8.206   5.342  1.00  0.00     0.016 A 
HETATM    9  C   UNL     1      63.498   7.304   2.825  1.00  0.00     0.032 A 
HETATM   10  C   UNL     1      64.853   6.980   4.818  1.00  0.00     0.001 A 
HETATM   11  C   UNL     1      64.394   6.539   3.578  1.00  0.00     0.002 A 
ENDROOT
BRANCH   4  12
HETATM   12  C   UNL     1      62.984  11.184   5.931  1.00  0.00     0.223 C 
BRANCH  12  13
HETATM   13  O   UNL     1      64.345  11.453   6.270  1.00  0.00    -0.395 OA
HETATM   14  H   UNL     1      64.916  10.777   5.873  1.00  0.00     0.209 HD
ENDBRANCH  12  13
ENDBRANCH   4  12
TORSDOF 2
ENDMDL
MODEL 3
REMARK VINA RESULT:      -4.9      1.833      2.656
REMARK  2 active torsions:
REMARK  status: ('A' for Active; 'I' for Inactive)
REMARK    1  A    between atoms: C_4  and  C_7 
REMARK    2  A    between atoms: C_7  and  O_11 
ROOT
HETATM    1  N   UNL     1      63.344   6.978   3.513  1.00  0.00    -0.300 N 
ATOM      2  HN  UNL     1      63.700   6.027   3.617  1.00  0.00     0.187 HD
HETATM    3  N   UNL     1      62.862   7.569   2.401  1.00  0.00    -0.296 N 
HETATM    4  C   UNL     1      63.246   7.936   4.451  1.00  0.00     0.061 A 
HETATM    5  C   UNL     1      62.734   9.151   3.920  1.00  0.00     0.018 A 
HETATM    6  C   UNL     1      62.494   8.880   2.576  1.00  0.00     0.062 A 
HETATM    7  C   UNL     1      62.759   6.810   1.176  1.00  0.00     0.178 C 
HETATM    8  C   UNL     1      62.451  10.434   4.423  1.00  0.00     0.016 A 
HETATM    9  C   UNL     1      61.977   9.842   1.695  1.00  0.00     0.032 A 
HETATM   10  C   UNL     1      61.938  11.406   3.556  1.00  0.00     0.001 A 
HETATM   11  C   UNL     1      61.705  11.112   2.214  1.00  0.00     0.002 A 
ENDROOT
BRANCH   4  12
HETATM   12  C   UNL     1      63.679   7.649   5.849  1.00  0.00     0.223 C 
BRANCH  12  13
HETATM   13  O   UNL     1      62.603   7.798   6.777  1.00  0.00    -0.395 OA
HETATM   14  H   UNL     1      62.928   8.233   7.581  1.00  0.00     0.209 HD
ENDBRANCH  12  13
ENDBRANCH   4  12
TORSDOF 2
ENDMDL
MODEL 4
REMARK VINA RESULT:      -4.8      1.635      2.948
REMARK  2 active torsions:
REMARK  status: ('A' for Active; 'I' for Inactive)
REMARK    1  A    between atoms: C_4  and  C_7 
REMARK    2  A    between atoms: C_7  and  O_11 
ROOT
HETATM    1  N   UNL     1      63.144   9.251   5.664  1.00  0.00    -0.300 N 
ATOM      2  HN  UNL     1      63.334   9.421   6.652  1.00  0.00     0.187 HD
HETATM    3  N   UNL     1      62.677  10.118   4.744  1.00  0.00    -0.296 N 
HETATM    4  C   UNL     1      63.301   8.108   4.974  1.00  0.00     0.061 A 
HETATM    5  C   UNL     1      62.896   8.244   3.619  1.00  0.00     0.018 A 
HETATM    6  C   UNL     1      62.490   9.571   3.499  1.00  0.00     0.062 A 
HETATM    7  C   UNL     1      62.438  11.493   5.115  1.00  0.00     0.178 C 
HETATM    8  C   UNL     1      62.827   7.401   2.494  1.00  0.00     0.016 A 
HETATM    9  C   UNL     1      62.013  10.106   2.293  1.00  0.00     0.032 A 
HETATM   10  C   UNL     1      62.350   7.920   1.284  1.00  0.00     0.001 A 
HETATM   11  C   UNL     1      61.950   9.251   1.188  1.00  0.00     0.002 A 
ENDROOT
BRANCH   4  12
HETATM   12  C   UNL     1      63.826   6.893   5.663  1.00  0.00     0.223 C 
BRANCH  12  13
HETATM   13  O   UNL     1      64.147   7.157   7.029  1.00  0.00    -0.395 OA
HETATM   14  H   UNL     1      64.572   6.376   7.418  1.00  0.00     0.209 HD
ENDBRANCH  12  13
ENDBRANCH   4  12
TORSDOF 2
ENDMDL
MODEL 5
REMARK VINA RESULT:      -4.4      2.130      3.417
REMARK  2 active torsions:
REMARK  status: ('A' for Active; 'I' for Inactive)
REMARK    1  A    between atoms: C_4  and  C_7 
REMARK    2  A    between atoms: C_7  and  O_11 
ROOT
HETATM    1  N   UNL     1      60.683   9.144   3.425  1.00  0.00    -0.300 N 
ATOM      2  HN  UNL     1      59.835   9.513   2.994  1.00  0.00     0.187 HD
HETATM    3  N   UNL     1      60.930   7.882   3.829  1.00  0.00    -0.296 N 
HETATM    4  C   UNL     1      61.816   9.801   3.724  1.00  0.00     0.061 A 
HETATM    5  C   UNL     1      62.771   8.958   4.354  1.00  0.00     0.018 A 
HETATM    6  C   UNL     1      62.161   7.708   4.410  1.00  0.00     0.062 A 
HETATM    7  C   UNL     1      59.937   6.855   3.613  1.00  0.00     0.178 C 
HETATM    8  C   UNL     1      64.068   9.113   4.877  1.00  0.00     0.016 A 
HETATM    9  C   UNL     1      62.792   6.588   4.971  1.00  0.00     0.032 A 
HETATM   10  C   UNL     1      64.710   8.005   5.443  1.00  0.00     0.001 A 
HETATM   11  C   UNL     1      64.080   6.763   5.488  1.00  0.00     0.002 A 
ENDROOT
BRANCH   4  12
HETATM   12  C   UNL     1      61.935  11.254   3.406  1.00  0.00     0.223 C 
BRANCH  12  13
HETATM   13  O   UNL     1      62.061  12.046   4.588  1.00  0.00    -0.395 OA
HETATM   14  H   UNL     1      62.911  12.514   4.574  1.00  0.00     0.209 HD
ENDBRANCH  12  13
ENDBRANCH   4  12
TORSDOF 2
ENDMDL
MODEL 6
REMARK VINA RESULT:      -4.4      2.544      3.807
REMARK  2 active torsions:
REMARK  status: ('A' for Active; 'I' for Inactive)
REMARK    1  A    between atoms: C_4  and  C_7 
REMARK    2  A    between atoms: C_7  and  O_11 
ROOT
HETATM    1  N   UNL     1      62.601   7.216   2.316  1.00  0.00    -0.300 N 
ATOM      2  HN  UNL     1      62.578   6.354   1.770  1.00  0.00     0.187 HD
HETATM    3  N   UNL     1      63.262   7.456   3.465  1.00  0.00    -0.296 N 
HETATM    4  C   UNL     1      61.978   8.379   2.058  1.00  0.00     0.061 A 
HETATM    5  C   UNL     1      62.218   9.347   3.070  1.00  0.00     0.018 A 
HETATM    6  C   UNL     1      63.061   8.712   3.979  1.00  0.00     0.062 A 
HETATM    7  C   UNL     1      64.106   6.428   4.032  1.00  0.00     0.178 C 
HETATM    8  C   UNL     1      61.819  10.674   3.316  1.00  0.00     0.016 A 
HETATM    9  C   UNL     1      63.533   9.347   5.138  1.00  0.00     0.032 A 
HETATM   10  C   UNL     1      62.279  11.320   4.469  1.00  0.00     0.001 A 
HETATM   11  C   UNL     1      63.123  10.665   5.364  1.00  0.00     0.002 A 
ENDROOT
BRANCH   4  12
HETATM   12  C   UNL     1      61.139   8.513   0.833  1.00  0.00     0.223 C 
BRANCH  12  13
HETATM   13  O   UNL     1      59.756   8.667   1.153  1.00  0.00    -0.395 OA
HETATM   14  H   UNL     1      59.218   8.454   0.374  1.00  0.00     0.209 HD
ENDBRANCH  12  13
ENDBRANCH   4  12
TORSDOF 2
ENDMDL
MODEL 7
REMARK VINA RESULT:      -4.1      3.892      6.137
REMARK  2 active torsions:
REMARK  status: ('A' for Active; 'I' for Inactive)
REMARK    1  A    between atoms: C_4  and  C_7 
REMARK    2  A    between atoms: C_7  and  O_11 
ROOT
HETATM    1  N   UNL     1      65.938   7.574   7.218  1.00  0.00    -0.300 N 
ATOM      2  HN  UNL     1      65.611   8.398   7.724  1.00  0.00     0.187 HD
HETATM    3  N   UNL     1      66.579   6.495   7.710  1.00  0.00    -0.296 N 
HETATM    4  C   UNL     1      65.833   7.310   5.904  1.00  0.00     0.061 A 
HETATM    5  C   UNL     1      66.443   6.074   5.558  1.00  0.00     0.018 A 
HETATM    6  C   UNL     1      66.925   5.565   6.761  1.00  0.00     0.062 A 
HETATM    7  C   UNL     1      66.825   6.397   9.130  1.00  0.00     0.178 C 
HETATM    8  C   UNL     1      66.640   5.340   4.375  1.00  0.00     0.016 A 
HETATM    9  C   UNL     1      67.603   4.340   6.842  1.00  0.00     0.032 A 
HETATM   10  C   UNL     1      67.318   4.116   4.438  1.00  0.00     0.001 A 
HETATM   11  C   UNL     1      67.790   3.626   5.654  1.00  0.00     0.002 A 
ENDROOT
BRANCH   4  12
HETATM   12  C   UNL     1      65.153   8.287   5.005  1.00  0.00     0.223 C 
BRANCH  12  13
HETATM   13  O   UNL     1      64.852   9.508   5.682  1.00  0.00    -0.395 OA
HETATM   14  H   UNL     1      65.320   9.531   6.531  1.00  0.00     0.209 HD
ENDBRANCH  12  13
ENDBRANCH   4  12
TORSDOF 2
ENDMDL
MODEL 8
REMARK VINA RESULT:      -3.9      2.625      3.246
REMARK  2 active torsions:
REMARK  status: ('A' for Active; 'I' for Inactive)
REMARK    1  A    between atoms: C_4  and  C_7 
REMARK    2  A    between atoms: C_7  and  O_11 
ROOT
HETATM    1  N   UNL     1      60.769   6.505   5.183  1.00  0.00    -0.300 N 
ATOM      2  HN  UNL     1      60.553   5.945   6.008  1.00  0.00     0.187 HD
HETATM    3  N   UNL     1      60.016   6.687   4.079  1.00  0.00    -0.296 N 
HETATM    4  C   UNL     1      61.871   7.235   4.940  1.00  0.00     0.061 A 
HETATM    5  C   UNL     1      61.831   7.851   3.660  1.00  0.00     0.018 A 
HETATM    6  C   UNL     1      60.605   7.472   3.119  1.00  0.00     0.062 A 
HETATM    7  C   UNL     1      58.705   6.086   4.002  1.00  0.00     0.178 C 
HETATM    8  C   UNL     1      62.686   8.677   2.907  1.00  0.00     0.016 A 
HETATM    9  C   UNL     1      60.184   7.884   1.846  1.00  0.00     0.032 A 
HETATM   10  C   UNL     1      62.282   9.094   1.634  1.00  0.00     0.001 A 
HETATM   11  C   UNL     1      61.050   8.703   1.114  1.00  0.00     0.002 A 
ENDROOT
BRANCH   4  12
HETATM   12  C   UNL     1      62.958   7.297   5.960  1.00  0.00     0.223 C 
BRANCH  12  13
HETATM   13  O   UNL     1      62.567   8.059   7.103  1.00  0.00    -0.395 OA
HETATM   14  H   UNL     1      62.884   7.619   7.908  1.00  0.00     0.209 HD
ENDBRANCH  12  13
ENDBRANCH   4  12
TORSDOF 2
ENDMDL
MODEL 9
REMARK VINA RESULT:      -3.7      2.558      4.621
REMARK  2 active torsions:
REMARK  status: ('A' for Active; 'I' for Inactive)
REMARK    1  A    between atoms: C_4  and  C_7 
REMARK    2  A    between atoms: C_7  and  O_11 
ROOT
HETATM    1  N   UNL     1      63.079   7.153   5.772  1.00  0.00    -0.300 N 
ATOM      2  HN  UNL     1      62.075   7.298   5.879  1.00  0.00     0.187 HD
HETATM    3  N   UNL     1      63.781   6.017   5.956  1.00  0.00    -0.296 N 
HETATM    4  C   UNL     1      64.015   8.051   5.417  1.00  0.00     0.061 A 
HETATM    5  C   UNL     1      65.319   7.487   5.411  1.00  0.00     0.018 A 
HETATM    6  C   UNL     1      65.134   6.155   5.770  1.00  0.00     0.062 A 
HETATM    7  C   UNL     1      63.087   4.797   6.299  1.00  0.00     0.178 C 
HETATM    8  C   UNL     1      66.621   7.952   5.146  1.00  0.00     0.016 A 
HETATM    9  C   UNL     1      66.200   5.249   5.879  1.00  0.00     0.032 A 
HETATM   10  C   UNL     1      67.696   7.061   5.254  1.00  0.00     0.001 A 
HETATM   11  C   UNL     1      67.486   5.732   5.614  1.00  0.00     0.002 A 
ENDROOT
BRANCH   4  12
HETATM   12  C   UNL     1      63.615   9.455   5.109  1.00  0.00     0.223 C 
BRANCH  12  13
HETATM   13  O   UNL     1      64.338  10.397   5.902  1.00  0.00    -0.395 OA
HETATM   14  H   UNL     1      63.829  11.220   5.970  1.00  0.00     0.209 HD
ENDBRANCH  12  13
ENDBRANCH   4  12
TORSDOF 2
ENDMDL
