MODEL 1
REMARK VINA RESULT:      -5.1      0.000      0.000
REMARK  2 active torsions:
REMARK  status: ('A' for Active; 'I' for Inactive)
REMARK    1  A    between atoms: C_4  and  C_7 
REMARK    2  A    between atoms: C_7  and  O_8 
ROOT
HETATM    1  N   UNL     1      62.221  10.864   3.879  1.00  0.00    -0.351 N 
ATOM      2  HN  UNL     1      61.777  11.771   3.734  1.00  0.00     0.166 HD
HETATM    3  S   UNL     1      63.545   8.922   4.944  1.00  0.00    -0.072 SA
HETATM    4  C   UNL     1      62.858  10.499   4.975  1.00  0.00     0.075 A 
HETATM    5  C   UNL     1      62.246   9.829   2.955  1.00  0.00     0.050 A 
HETATM    6  C   UNL     1      62.929   8.680   3.353  1.00  0.00     0.033 A 
HETATM    7  C   UNL     1      61.652   9.848   1.675  1.00  0.00     0.031 A 
HETATM    8  C   UNL     1      63.044   7.551   2.521  1.00  0.00     0.021 A 
HETATM    9  C   UNL     1      62.450   7.599   1.256  1.00  0.00     0.002 A 
HETATM   10  C   UNL     1      61.760   8.733   0.836  1.00  0.00     0.002 A 
ENDROOT
BRANCH   4  11
HETATM   11  C   UNL     1      63.020  11.354   6.194  1.00  0.00     0.229 C 
BRANCH  11  12
HETATM   12  O   UNL     1      64.411  11.543   6.456  1.00  0.00    -0.394 OA
HETATM   13  H   UNL     1      64.901  10.750   6.186  1.00  0.00     0.209 HD
ENDBRANCH  11  12
ENDBRANCH   4  11
TORSDOF 2
ENDMDL
MODEL 2
REMARK VINA RESULT:      -4.8      1.558      2.419
REMARK  2 active torsions:
REMARK  status: ('A' for Active; 'I' for Inactive)
REMARK    1  A    between atoms: C_4  and  C_7 
REMARK    2  A    between atoms: C_7  and  O_8 
ROOT
HETATM    1  N   UNL     1      64.067   9.163   5.284  1.00  0.00    -0.351 N 
ATOM      2  HN  UNL     1      64.742   9.098   6.046  1.00  0.00     0.166 HD
HETATM    3  S   UNL     1      62.146   9.985   3.771  1.00  0.00    -0.072 SA
HETATM    4  C   UNL     1      63.193  10.138   5.126  1.00  0.00     0.075 A 
HETATM    5  C   UNL     1      63.929   8.239   4.258  1.00  0.00     0.050 A 
HETATM    6  C   UNL     1      62.924   8.512   3.330  1.00  0.00     0.033 A 
HETATM    7  C   UNL     1      64.703   7.071   4.084  1.00  0.00     0.031 A 
HETATM    8  C   UNL     1      62.662   7.664   2.237  1.00  0.00     0.021 A 
HETATM    9  C   UNL     1      63.442   6.513   2.093  1.00  0.00     0.002 A 
HETATM   10  C   UNL     1      64.452   6.218   3.004  1.00  0.00     0.002 A 
ENDROOT
BRANCH   4  11
HETATM   11  C   UNL     1      63.062  11.322   6.035  1.00  0.00     0.229 C 
BRANCH  11  12
HETATM   12  O   UNL     1      64.353  11.684   6.525  1.00  0.00    -0.394 OA
HETATM   13  H   UNL     1      64.274  12.016   7.433  1.00  0.00     0.209 HD
ENDBRANCH  11  12
ENDBRANCH   4  11
TORSDOF 2
ENDMDL
MODEL 3
REMARK VINA RESULT:      -4.7      2.268      3.060
REMARK  2 active torsions:
REMARK  status: ('A' for Active; 'I' for Inactive)
REMARK    1  A    between atoms: C_4  and  C_7 
REMARK    2  A    between atoms: C_7  and  O_8 
ROOT
HETATM    1  N   UNL     1      63.314   8.865   5.445  1.00  0.00    -0.351 N 
ATOM      2  HN  UNL     1      63.435   9.270   6.374  1.00  0.00     0.166 HD
HETATM    3  S   UNL     1      63.352   7.213   3.464  1.00  0.00    -0.072 SA
HETATM    4  C   UNL     1      63.628   7.629   5.109  1.00  0.00     0.075 A 
HETATM    5  C   UNL     1      62.795   9.532   4.344  1.00  0.00     0.050 A 
HETATM    6  C   UNL     1      62.738   8.795   3.162  1.00  0.00     0.033 A 
HETATM    7  C   UNL     1      62.334  10.866   4.326  1.00  0.00     0.031 A 
HETATM    8  C   UNL     1      62.241   9.338   1.963  1.00  0.00     0.021 A 
HETATM    9  C   UNL     1      61.796  10.663   1.973  1.00  0.00     0.002 A 
HETATM   10  C   UNL     1      61.839  11.421   3.141  1.00  0.00     0.002 A 
ENDROOT
BRANCH   4  11
HETATM   11  C   UNL     1      64.200   6.609   6.046  1.00  0.00     0.229 C 
BRANCH  11  12
HETATM   12  O   UNL     1      64.425   7.214   7.320  1.00  0.00    -0.394 OA
HETATM   13  H   UNL     1      64.737   8.124   7.195  1.00  0.00     0.209 HD
ENDBRANCH  11  12
ENDBRANCH   4  11
TORSDOF 2
ENDMDL
MODEL 4
REMARK VINA RESULT:      -4.2      3.077      4.447
REMARK  2 active torsions:
REMARK  status: ('A' for Active; 'I' for Inactive)
REMARK    1  A    between atoms: C_4  and  C_7 
REMARK    2  A    between atoms: C_7  and  O_8 
ROOT
HETATM    1  N   UNL     1      60.911   9.471   2.419  1.00  0.00    -0.351 N 
ATOM      2  HN  UNL     1      60.232  10.229   2.344  1.00  0.00     0.166 HD
HETATM    3  S   UNL     1      62.167   7.253   2.018  1.00  0.00    -0.072 SA
HETATM    4  C   UNL     1      60.933   8.394   1.656  1.00  0.00     0.075 A 
HETATM    5  C   UNL     1      61.950   9.416   3.337  1.00  0.00     0.050 A 
HETATM    6  C   UNL     1      62.749   8.275   3.278  1.00  0.00     0.033 A 
HETATM    7  C   UNL     1      62.253  10.398   4.304  1.00  0.00     0.031 A 
HETATM    8  C   UNL     1      63.837   8.076   4.148  1.00  0.00     0.021 A 
HETATM    9  C   UNL     1      64.111   9.063   5.099  1.00  0.00     0.002 A 
HETATM   10  C   UNL     1      63.330  10.213   5.177  1.00  0.00     0.002 A 
ENDROOT
BRANCH   4  11
HETATM   11  C   UNL     1      59.970   8.118   0.542  1.00  0.00     0.229 C 
BRANCH  11  12
HETATM   12  O   UNL     1      58.653   8.481   0.958  1.00  0.00    -0.394 OA
HETATM   13  H   UNL     1      58.039   7.757   0.758  1.00  0.00     0.209 HD
ENDBRANCH  11  12
ENDBRANCH   4  11
TORSDOF 2
ENDMDL
MODEL 5
REMARK VINA RESULT:      -4.0     11.893     12.512
REMARK  2 active torsions:
REMARK  status: ('A' for Active; 'I' for Inactive)
REMARK    1  A    between atoms: C_4  and  C_7 
REMARK    2  A    between atoms: C_7  and  O_8 
ROOT
HETATM    1  N   UNL     1      58.189   3.142  11.696  1.00  0.00    -0.351 N 
ATOM      2  HN  UNL     1      57.810   4.018  12.057  1.00  0.00     0.166 HD
HETATM    3  S   UNL     1      59.113   1.344  10.093  1.00  0.00    -0.072 SA
HETATM    4  C   UNL     1      58.531   2.924  10.441  1.00  0.00     0.075 A 
HETATM    5  C   UNL     1      58.421   2.001  12.450  1.00  0.00     0.050 A 
HETATM    6  C   UNL     1      58.924   0.905  11.749  1.00  0.00     0.033 A 
HETATM    7  C   UNL     1      58.192   1.863  13.836  1.00  0.00     0.031 A 
HETATM    8  C   UNL     1      59.205  -0.322  12.377  1.00  0.00     0.021 A 
HETATM    9  C   UNL     1      58.964  -0.432  13.750  1.00  0.00     0.002 A 
HETATM   10  C   UNL     1      58.465   0.647  14.474  1.00  0.00     0.002 A 
ENDROOT
BRANCH   4  11
HETATM   11  C   UNL     1      58.434   3.938   9.342  1.00  0.00     0.229 C 
BRANCH  11  12
HETATM   12  O   UNL     1      58.711   5.235   9.872  1.00  0.00    -0.394 OA
HETATM   13  H   UNL     1      59.623   5.261  10.203  1.00  0.00     0.209 HD
ENDBRANCH  11  12
ENDBRANCH   4  11
TORSDOF 2
ENDMDL
MODEL 6
REMARK VINA RESULT:      -3.9      3.489      3.940
REMARK  2 active torsions:
REMARK  status: ('A' for Active; 'I' for Inactive)
REMARK    1  A    between atoms: C_4  and  C_7 
REMARK    2  A    between atoms: C_7  and  O_8 
ROOT
HETATM    1  N   UNL     1      65.235   8.149   6.365  1.00  0.00    -0.351 N 
ATOM      2  HN  UNL     1      65.279   8.842   7.112  1.00  0.00     0.166 HD
HETATM    3  S   UNL     1      65.697   6.057   4.927  1.00  0.00    -0.072 SA
HETATM    4  C   UNL     1      65.941   7.036   6.320  1.00  0.00     0.075 A 
HETATM    5  C   UNL     1      64.422   8.234   5.243  1.00  0.00     0.050 A 
HETATM    6  C   UNL     1      64.535   7.183   4.334  1.00  0.00     0.033 A 
HETATM    7  C   UNL     1      63.514   9.276   4.955  1.00  0.00     0.031 A 
HETATM    8  C   UNL     1      63.778   7.133   3.148  1.00  0.00     0.021 A 
HETATM    9  C   UNL     1      62.890   8.181   2.887  1.00  0.00     0.002 A 
HETATM   10  C   UNL     1      62.757   9.240   3.779  1.00  0.00     0.002 A 
ENDROOT
BRANCH   4  11
HETATM   11  C   UNL     1      66.916   6.600   7.371  1.00  0.00     0.229 C 
BRANCH  11  12
HETATM   12  O   UNL     1      67.327   7.738   8.130  1.00  0.00    -0.394 OA
HETATM   13  H   UNL     1      67.883   8.311   7.579  1.00  0.00     0.209 HD
ENDBRANCH  11  12
ENDBRANCH   4  11
TORSDOF 2
ENDMDL
MODEL 7
REMARK VINA RESULT:      -3.9      5.415      6.423
REMARK  2 active torsions:
REMARK  status: ('A' for Active; 'I' for Inactive)
REMARK    1  A    between atoms: C_4  and  C_7 
REMARK    2  A    between atoms: C_7  and  O_8 
ROOT
HETATM    1  N   UNL     1      65.074   7.636   6.894  1.00  0.00    -0.351 N 
ATOM      2  HN  UNL     1      64.461   8.142   7.534  1.00  0.00     0.166 HD
HETATM    3  S   UNL     1      66.179   6.754   4.736  1.00  0.00    -0.072 SA
HETATM    4  C   UNL     1      65.058   7.748   5.580  1.00  0.00     0.075 A 
HETATM    5  C   UNL     1      66.052   6.728   7.275  1.00  0.00     0.050 A 
HETATM    6  C   UNL     1      66.764   6.134   6.234  1.00  0.00     0.033 A 
HETATM    7  C   UNL     1      66.373   6.364   8.601  1.00  0.00     0.031 A 
HETATM    8  C   UNL     1      67.781   5.190   6.464  1.00  0.00     0.021 A 
HETATM    9  C   UNL     1      68.075   4.845   7.787  1.00  0.00     0.002 A 
HETATM   10  C   UNL     1      67.381   5.425   8.845  1.00  0.00     0.002 A 
ENDROOT
BRANCH   4  11
HETATM   11  C   UNL     1      64.143   8.652   4.811  1.00  0.00     0.229 C 
BRANCH  11  12
HETATM   12  O   UNL     1      63.735   9.732   5.651  1.00  0.00    -0.394 OA
HETATM   13  H   UNL     1      64.408  10.430   5.630  1.00  0.00     0.209 HD
ENDBRANCH  11  12
ENDBRANCH   4  11
TORSDOF 2
ENDMDL
MODEL 8
REMARK VINA RESULT:      -3.9      2.920      4.068
REMARK  2 active torsions:
REMARK  status: ('A' for Active; 'I' for Inactive)
REMARK    1  A    between atoms: C_4  and  C_7 
REMARK    2  A    between atoms: C_7  and  O_8 
ROOT
HETATM    1  N   UNL     1      64.140   7.152   3.316  1.00  0.00    -0.351 N 
ATOM      2  HN  UNL     1      63.917   6.546   2.526  1.00  0.00     0.166 HD
HETATM    3  S   UNL     1      65.242   8.101   5.447  1.00  0.00    -0.072 SA
HETATM    4  C   UNL     1      65.103   6.935   4.190  1.00  0.00     0.075 A 
HETATM    5  C   UNL     1      63.475   8.328   3.633  1.00  0.00     0.050 A 
HETATM    6  C   UNL     1      63.931   8.992   4.771  1.00  0.00     0.033 A 
HETATM    7  C   UNL     1      62.399   8.891   2.914  1.00  0.00     0.031 A 
HETATM    8  C   UNL     1      63.353  10.194   5.220  1.00  0.00     0.021 A 
HETATM    9  C   UNL     1      62.286  10.726   4.491  1.00  0.00     0.002 A 
HETATM   10  C   UNL     1      61.813  10.085   3.349  1.00  0.00     0.002 A 
ENDROOT
BRANCH   4  11
HETATM   11  C   UNL     1      66.041   5.767   4.155  1.00  0.00     0.229 C 
BRANCH  11  12
HETATM   12  O   UNL     1      67.328   6.210   3.723  1.00  0.00    -0.394 OA
HETATM   13  H   UNL     1      67.322   7.175   3.627  1.00  0.00     0.209 HD
ENDBRANCH  11  12
ENDBRANCH   4  11
TORSDOF 2
ENDMDL
MODEL 9
REMARK VINA RESULT:      -3.8      3.102      4.226
REMARK  2 active torsions:
REMARK  status: ('A' for Active; 'I' for Inactive)
REMARK    1  A    between atoms: C_4  and  C_7 
REMARK    2  A    between atoms: C_7  and  O_8 
ROOT
HETATM    1  N   UNL     1      63.320   7.654   3.243  1.00  0.00    -0.351 N 
ATOM      2  HN  UNL     1      62.978   7.134   2.435  1.00  0.00     0.166 HD
HETATM    3  S   UNL     1      63.502   9.377   5.155  1.00  0.00    -0.072 SA
HETATM    4  C   UNL     1      62.685   8.652   3.828  1.00  0.00     0.075 A 
HETATM    5  C   UNL     1      64.522   7.418   3.895  1.00  0.00     0.050 A 
HETATM    6  C   UNL     1      64.804   8.263   4.968  1.00  0.00     0.033 A 
HETATM    7  C   UNL     1      65.461   6.418   3.565  1.00  0.00     0.031 A 
HETATM    8  C   UNL     1      65.987   8.149   5.722  1.00  0.00     0.021 A 
HETATM    9  C   UNL     1      66.901   7.152   5.369  1.00  0.00     0.002 A 
HETATM   10  C   UNL     1      66.643   6.293   4.304  1.00  0.00     0.002 A 
ENDROOT
BRANCH   4  11
HETATM   11  C   UNL     1      61.345   9.175   3.405  1.00  0.00     0.229 C 
BRANCH  11  12
HETATM   12  O   UNL     1      61.237  10.548   3.783  1.00  0.00    -0.394 OA
HETATM   13  H   UNL     1      62.097  10.983   3.673  1.00  0.00     0.209 HD
ENDBRANCH  11  12
ENDBRANCH   4  11
TORSDOF 2
ENDMDL
