MODEL 1
REMARK VINA RESULT:      -5.3      0.000      0.000
REMARK  1 active torsions:
REMARK  status: ('A' for Active; 'I' for Inactive)
REMARK    1  A    between atoms: C_1  and  C_4 
ROOT
HETATM    1  C   UNL     1      63.739   9.616   5.043  1.00  0.00     0.153 A 
HETATM    2  O   UNL     1      64.949   9.437   5.662  1.00  0.00    -0.303 OA
HETATM    3  C   UNL     1      63.507   8.567   4.171  1.00  0.00     0.058 A 
HETATM    4  C   UNL     1      65.487   8.283   5.176  1.00  0.00     0.086 A 
HETATM    5  C   UNL     1      64.631   7.706   4.247  1.00  0.00     0.001 A 
HETATM    6  C   UNL     1      66.717   7.742   5.542  1.00  0.00     0.038 A 
HETATM    7  C   UNL     1      65.018   6.505   3.627  1.00  0.00     0.014 A 
HETATM    8  C   UNL     1      66.253   5.939   3.972  1.00  0.00     0.001 A 
HETATM    9  C   UNL     1      67.087   6.548   4.913  1.00  0.00     0.003 A 
ENDROOT
BRANCH   1  10
HETATM   10  C   UNL     1      62.928  10.766   5.340  1.00  0.00     0.234 C 
HETATM   11  O   UNL     1      62.051  11.253   4.639  1.00  0.00    -0.642 OA
HETATM   12  O   UNL     1      63.227  11.322   6.534  1.00  0.00    -0.642 OA
ENDBRANCH   1  10
TORSDOF 1
ENDMDL
MODEL 2
REMARK VINA RESULT:      -5.2      2.105      4.492
REMARK  1 active torsions:
REMARK  status: ('A' for Active; 'I' for Inactive)
REMARK    1  A    between atoms: C_1  and  C_4 
ROOT
HETATM    1  C   UNL     1      63.971   7.867   5.114  1.00  0.00     0.153 A 
HETATM    2  O   UNL     1      63.559   9.114   5.510  1.00  0.00    -0.303 OA
HETATM    3  C   UNL     1      63.623   7.665   3.790  1.00  0.00     0.058 A 
HETATM    4  C   UNL     1      62.943   9.695   4.443  1.00  0.00     0.086 A 
HETATM    5  C   UNL     1      62.955   8.835   3.351  1.00  0.00     0.001 A 
HETATM    6  C   UNL     1      62.373  10.966   4.426  1.00  0.00     0.038 A 
HETATM    7  C   UNL     1      62.356   9.259   2.152  1.00  0.00     0.014 A 
HETATM    8  C   UNL     1      61.770  10.531   2.106  1.00  0.00     0.001 A 
HETATM    9  C   UNL     1      61.778  11.369   3.224  1.00  0.00     0.003 A 
ENDROOT
BRANCH   1  10
HETATM   10  C   UNL     1      64.651   6.995   6.033  1.00  0.00     0.234 C 
HETATM   11  O   UNL     1      65.515   6.170   5.768  1.00  0.00    -0.642 OA
HETATM   12  O   UNL     1      64.233   7.153   7.309  1.00  0.00    -0.642 OA
ENDBRANCH   1  10
TORSDOF 1
ENDMDL
MODEL 3
REMARK VINA RESULT:      -5.0      2.692      4.734
REMARK  1 active torsions:
REMARK  status: ('A' for Active; 'I' for Inactive)
REMARK    1  A    between atoms: C_1  and  C_4 
ROOT
HETATM    1  C   UNL     1      63.548   7.921   5.125  1.00  0.00     0.153 A 
HETATM    2  O   UNL     1      63.389   7.545   3.816  1.00  0.00    -0.303 OA
HETATM    3  C   UNL     1      63.080   9.212   5.294  1.00  0.00     0.058 A 
HETATM    4  C   UNL     1      62.832   8.598   3.156  1.00  0.00     0.086 A 
HETATM    5  C   UNL     1      62.622   9.658   4.029  1.00  0.00     0.001 A 
HETATM    6  C   UNL     1      62.513   8.631   1.800  1.00  0.00     0.038 A 
HETATM    7  C   UNL     1      62.055  10.843   3.527  1.00  0.00     0.014 A 
HETATM    8  C   UNL     1      61.729  10.908   2.166  1.00  0.00     0.001 A 
HETATM    9  C   UNL     1      61.954   9.820   1.318  1.00  0.00     0.003 A 
ENDROOT
BRANCH   1  10
HETATM   10  C   UNL     1      64.131   7.018   6.081  1.00  0.00     0.234 C 
HETATM   11  O   UNL     1      64.388   7.249   7.255  1.00  0.00    -0.642 OA
HETATM   12  O   UNL     1      64.404   5.804   5.553  1.00  0.00    -0.642 OA
ENDBRANCH   1  10
TORSDOF 1
ENDMDL
MODEL 4
REMARK VINA RESULT:      -4.9      2.468      3.705
REMARK  1 active torsions:
REMARK  status: ('A' for Active; 'I' for Inactive)
REMARK    1  A    between atoms: C_1  and  C_4 
ROOT
HETATM    1  C   UNL     1      62.565   9.940   3.940  1.00  0.00     0.153 A 
HETATM    2  O   UNL     1      62.055  10.074   2.673  1.00  0.00    -0.303 OA
HETATM    3  C   UNL     1      63.157   8.697   4.071  1.00  0.00     0.058 A 
HETATM    4  C   UNL     1      62.315   8.914   2.008  1.00  0.00     0.086 A 
HETATM    5  C   UNL     1      62.995   8.026   2.832  1.00  0.00     0.001 A 
HETATM    6  C   UNL     1      61.956   8.635   0.691  1.00  0.00     0.038 A 
HETATM    7  C   UNL     1      63.348   6.765   2.321  1.00  0.00     0.014 A 
HETATM    8  C   UNL     1      62.996   6.453   1.001  1.00  0.00     0.001 A 
HETATM    9  C   UNL     1      62.312   7.373   0.201  1.00  0.00     0.003 A 
ENDROOT
BRANCH   1  10
HETATM   10  C   UNL     1      62.435  11.006   4.897  1.00  0.00     0.234 C 
HETATM   11  O   UNL     1      61.974  12.123   4.701  1.00  0.00    -0.642 OA
HETATM   12  O   UNL     1      62.899  10.669   6.121  1.00  0.00    -0.642 OA
ENDBRANCH   1  10
TORSDOF 1
ENDMDL
MODEL 5
REMARK VINA RESULT:      -4.7      0.713      1.299
REMARK  1 active torsions:
REMARK  status: ('A' for Active; 'I' for Inactive)
REMARK    1  A    between atoms: C_1  and  C_4 
ROOT
HETATM    1  C   UNL     1      63.545   9.503   4.807  1.00  0.00     0.153 A 
HETATM    2  O   UNL     1      64.781   9.048   5.193  1.00  0.00    -0.303 OA
HETATM    3  C   UNL     1      63.007   8.638   3.871  1.00  0.00     0.058 A 
HETATM    4  C   UNL     1      65.028   7.904   4.495  1.00  0.00     0.086 A 
HETATM    5  C   UNL     1      63.958   7.608   3.660  1.00  0.00     0.001 A 
HETATM    6  C   UNL     1      66.180   7.129   4.588  1.00  0.00     0.038 A 
HETATM    7  C   UNL     1      64.031   6.460   2.851  1.00  0.00     0.014 A 
HETATM    8  C   UNL     1      65.181   5.663   2.919  1.00  0.00     0.001 A 
HETATM    9  C   UNL     1      66.237   5.992   3.773  1.00  0.00     0.003 A 
ENDROOT
BRANCH   1  10
HETATM   10  C   UNL     1      63.005  10.714   5.364  1.00  0.00     0.234 C 
HETATM   11  O   UNL     1      63.362  11.280   6.388  1.00  0.00    -0.642 OA
HETATM   12  O   UNL     1      61.990  11.220   4.628  1.00  0.00    -0.642 OA
ENDBRANCH   1  10
TORSDOF 1
ENDMDL
MODEL 6
REMARK VINA RESULT:      -4.6      3.359      4.145
REMARK  1 active torsions:
REMARK  status: ('A' for Active; 'I' for Inactive)
REMARK    1  A    between atoms: C_1  and  C_4 
ROOT
HETATM    1  C   UNL     1      64.456   6.493   6.714  1.00  0.00     0.153 A 
HETATM    2  O   UNL     1      65.198   7.142   7.667  1.00  0.00    -0.303 OA
HETATM    3  C   UNL     1      64.962   5.219   6.524  1.00  0.00     0.058 A 
HETATM    4  C   UNL     1      66.177   6.286   8.072  1.00  0.00     0.086 A 
HETATM    5  C   UNL     1      66.074   5.079   7.391  1.00  0.00     0.001 A 
HETATM    6  C   UNL     1      67.153   6.560   9.027  1.00  0.00     0.038 A 
HETATM    7  C   UNL     1      67.007   4.064   7.671  1.00  0.00     0.014 A 
HETATM    8  C   UNL     1      68.004   4.313   8.624  1.00  0.00     0.001 A 
HETATM    9  C   UNL     1      68.075   5.540   9.290  1.00  0.00     0.003 A 
ENDROOT
BRANCH   1  10
HETATM   10  C   UNL     1      63.345   7.149   6.079  1.00  0.00     0.234 C 
HETATM   11  O   UNL     1      63.090   7.179   4.883  1.00  0.00    -0.642 OA
HETATM   12  O   UNL     1      62.542   7.787   6.960  1.00  0.00    -0.642 OA
ENDBRANCH   1  10
TORSDOF 1
ENDMDL
MODEL 7
REMARK VINA RESULT:      -4.4      2.806      4.624
REMARK  1 active torsions:
REMARK  status: ('A' for Active; 'I' for Inactive)
REMARK    1  A    between atoms: C_1  and  C_4 
ROOT
HETATM    1  C   UNL     1      65.640   6.486   7.265  1.00  0.00     0.153 A 
HETATM    2  O   UNL     1      64.445   7.160   7.287  1.00  0.00    -0.303 OA
HETATM    3  C   UNL     1      66.009   6.243   5.955  1.00  0.00     0.058 A 
HETATM    4  C   UNL     1      64.055   7.334   5.993  1.00  0.00     0.086 A 
HETATM    5  C   UNL     1      64.991   6.781   5.128  1.00  0.00     0.001 A 
HETATM    6  C   UNL     1      62.888   7.969   5.575  1.00  0.00     0.038 A 
HETATM    7  C   UNL     1      64.758   6.857   3.744  1.00  0.00     0.014 A 
HETATM    8  C   UNL     1      63.589   7.486   3.293  1.00  0.00     0.001 A 
HETATM    9  C   UNL     1      62.671   8.032   4.194  1.00  0.00     0.003 A 
ENDROOT
BRANCH   1  10
HETATM   10  C   UNL     1      66.306   6.139   8.492  1.00  0.00     0.234 C 
HETATM   11  O   UNL     1      66.950   6.883   9.219  1.00  0.00    -0.642 OA
HETATM   12  O   UNL     1      66.171   4.832   8.808  1.00  0.00    -0.642 OA
ENDBRANCH   1  10
TORSDOF 1
ENDMDL
MODEL 8
REMARK VINA RESULT:      -4.4      2.844      5.095
REMARK  1 active torsions:
REMARK  status: ('A' for Active; 'I' for Inactive)
REMARK    1  A    between atoms: C_1  and  C_4 
ROOT
HETATM    1  C   UNL     1      63.516   7.316   4.422  1.00  0.00     0.153 A 
HETATM    2  O   UNL     1      63.206   7.448   3.092  1.00  0.00    -0.303 OA
HETATM    3  C   UNL     1      63.216   8.492   5.085  1.00  0.00     0.058 A 
HETATM    4  C   UNL     1      62.721   8.708   2.913  1.00  0.00     0.086 A 
HETATM    5  C   UNL     1      62.708   9.397   4.120  1.00  0.00     0.001 A 
HETATM    6  C   UNL     1      62.295   9.250   1.703  1.00  0.00     0.038 A 
HETATM    7  C   UNL     1      62.243  10.724   4.135  1.00  0.00     0.014 A 
HETATM    8  C   UNL     1      61.813  11.298   2.931  1.00  0.00     0.001 A 
HETATM    9  C   UNL     1      61.839  10.574   1.736  1.00  0.00     0.003 A 
ENDROOT
BRANCH   1  10
HETATM   10  C   UNL     1      64.068   6.087   4.926  1.00  0.00     0.234 C 
HETATM   11  O   UNL     1      64.493   5.875   6.054  1.00  0.00    -0.642 OA
HETATM   12  O   UNL     1      64.097   5.107   3.996  1.00  0.00    -0.642 OA
ENDBRANCH   1  10
TORSDOF 1
ENDMDL
MODEL 9
REMARK VINA RESULT:      -4.3      2.905      5.119
REMARK  1 active torsions:
REMARK  status: ('A' for Active; 'I' for Inactive)
REMARK    1  A    between atoms: C_1  and  C_4 
ROOT
HETATM    1  C   UNL     1      63.092   7.050   3.518  1.00  0.00     0.153 A 
HETATM    2  O   UNL     1      62.944   8.066   4.429  1.00  0.00    -0.303 OA
HETATM    3  C   UNL     1      62.807   7.522   2.250  1.00  0.00     0.058 A 
HETATM    4  C   UNL     1      62.555   9.174   3.739  1.00  0.00     0.086 A 
HETATM    5  C   UNL     1      62.454   8.888   2.383  1.00  0.00     0.001 A 
HETATM    6  C   UNL     1      62.289  10.424   4.293  1.00  0.00     0.038 A 
HETATM    7  C   UNL     1      62.057   9.912   1.505  1.00  0.00     0.014 A 
HETATM    8  C   UNL     1      61.777  11.180   2.034  1.00  0.00     0.001 A 
HETATM    9  C   UNL     1      61.891  11.430   3.404  1.00  0.00     0.003 A 
ENDROOT
BRANCH   1  10
HETATM   10  C   UNL     1      63.488   5.735   3.947  1.00  0.00     0.234 C 
HETATM   11  O   UNL     1      62.806   4.919   4.553  1.00  0.00    -0.642 OA
HETATM   12  O   UNL     1      64.765   5.441   3.618  1.00  0.00    -0.642 OA
ENDBRANCH   1  10
TORSDOF 1
ENDMDL
