MODEL 1
REMARK VINA RESULT:      -4.7      0.000      0.000
REMARK  1 active torsions:
REMARK  status: ('A' for Active; 'I' for Inactive)
REMARK    1  A    between atoms: C_8  and  N_9 
ROOT
HETATM    1  C   UNL     1      62.179   9.868   2.886  1.00  0.00     0.002 A 
HETATM    2  C   UNL     1      62.848   8.654   2.977  1.00  0.00     0.085 A 
HETATM    3  C   UNL     1      61.909   8.685   1.004  1.00  0.00     0.143 A 
HETATM    4  O   UNL     1      62.680   7.934   1.834  1.00  0.00    -0.322 OA
HETATM    5  C   UNL     1      61.572   9.878   1.603  1.00  0.00     0.039 A 
HETATM    6  C   UNL     1      62.253  10.759   3.973  1.00  0.00     0.043 A 
HETATM    7  C   UNL     1      63.593   8.259   4.083  1.00  0.00     0.040 A 
HETATM    8  C   UNL     1      62.966  10.386   5.125  1.00  0.00     0.026 A 
HETATM    9  C   UNL     1      63.656   9.168   5.149  1.00  0.00     0.032 A 
ENDROOT
BRANCH   8  10
HETATM   10  N   UNL     1      63.181  11.329   6.142  1.00  0.00    -0.399 N 
HETATM   11  H   UNL     1      63.411  12.258   5.910  1.00  0.00     0.156 HD
HETATM   12  H   UNL     1      63.101  11.061   7.085  1.00  0.00     0.156 HD
ENDBRANCH   8  10
TORSDOF 1
ENDMDL
MODEL 2
REMARK VINA RESULT:      -4.7      2.622      4.050
REMARK  1 active torsions:
REMARK  status: ('A' for Active; 'I' for Inactive)
REMARK    1  A    between atoms: C_8  and  N_9 
ROOT
HETATM    1  C   UNL     1      62.685   9.510   3.893  1.00  0.00     0.002 A 
HETATM    2  C   UNL     1      62.154  10.608   3.230  1.00  0.00     0.085 A 
HETATM    3  C   UNL     1      62.587  11.278   5.265  1.00  0.00     0.143 A 
HETATM    4  O   UNL     1      62.091  11.682   4.066  1.00  0.00    -0.322 OA
HETATM    5  C   UNL     1      62.962   9.954   5.213  1.00  0.00     0.039 A 
HETATM    6  C   UNL     1      62.843   8.306   3.181  1.00  0.00     0.043 A 
HETATM    7  C   UNL     1      61.765  10.597   1.895  1.00  0.00     0.040 A 
HETATM    8  C   UNL     1      62.430   8.239   1.839  1.00  0.00     0.026 A 
HETATM    9  C   UNL     1      61.939   9.388   1.206  1.00  0.00     0.032 A 
ENDROOT
BRANCH   8  10
HETATM   10  N   UNL     1      62.733   7.100   1.078  1.00  0.00    -0.399 N 
HETATM   11  H   UNL     1      62.326   6.979   0.190  1.00  0.00     0.156 HD
HETATM   12  H   UNL     1      63.353   6.423   1.433  1.00  0.00     0.156 HD
ENDBRANCH   8  10
TORSDOF 1
ENDMDL
MODEL 3
REMARK VINA RESULT:      -4.6      2.184      3.362
REMARK  1 active torsions:
REMARK  status: ('A' for Active; 'I' for Inactive)
REMARK    1  A    between atoms: C_8  and  N_9 
ROOT
HETATM    1  C   UNL     1      63.171   8.681   3.831  1.00  0.00     0.002 A 
HETATM    2  C   UNL     1      63.332   9.315   5.056  1.00  0.00     0.085 A 
HETATM    3  C   UNL     1      64.376   7.401   5.218  1.00  0.00     0.143 A 
HETATM    4  O   UNL     1      64.062   8.533   5.900  1.00  0.00    -0.322 OA
HETATM    5  C   UNL     1      63.850   7.440   3.946  1.00  0.00     0.039 A 
HETATM    6  C   UNL     1      62.454   9.348   2.819  1.00  0.00     0.043 A 
HETATM    7  C   UNL     1      62.828  10.576   5.351  1.00  0.00     0.040 A 
HETATM    8  C   UNL     1      61.895  10.610   3.085  1.00  0.00     0.026 A 
HETATM    9  C   UNL     1      62.124  11.221   4.325  1.00  0.00     0.032 A 
ENDROOT
BRANCH   8  10
HETATM   10  N   UNL     1      61.324  11.348   2.038  1.00  0.00    -0.399 N 
HETATM   11  H   UNL     1      60.776  12.142   2.238  1.00  0.00     0.156 HD
HETATM   12  H   UNL     1      61.472  11.073   1.105  1.00  0.00     0.156 HD
ENDBRANCH   8  10
TORSDOF 1
ENDMDL
MODEL 4
REMARK VINA RESULT:      -4.6      0.983      2.095
REMARK  1 active torsions:
REMARK  status: ('A' for Active; 'I' for Inactive)
REMARK    1  A    between atoms: C_8  and  N_9 
ROOT
HETATM    1  C   UNL     1      63.275   8.687   3.926  1.00  0.00     0.002 A 
HETATM    2  C   UNL     1      62.440   9.273   2.984  1.00  0.00     0.085 A 
HETATM    3  C   UNL     1      62.951   7.297   2.200  1.00  0.00     0.143 A 
HETATM    4  O   UNL     1      62.247   8.429   1.932  1.00  0.00    -0.322 OA
HETATM    5  C   UNL     1      63.602   7.406   3.409  1.00  0.00     0.039 A 
HETATM    6  C   UNL     1      63.577   9.409   5.097  1.00  0.00     0.043 A 
HETATM    7  C   UNL     1      61.877  10.537   3.122  1.00  0.00     0.040 A 
HETATM    8  C   UNL     1      63.059  10.705   5.262  1.00  0.00     0.026 A 
HETATM    9  C   UNL     1      62.189  11.231   4.300  1.00  0.00     0.032 A 
ENDROOT
BRANCH   8  10
HETATM   10  N   UNL     1      63.219  11.361   6.491  1.00  0.00    -0.399 N 
HETATM   11  H   UNL     1      64.119  11.475   6.875  1.00  0.00     0.156 HD
HETATM   12  H   UNL     1      62.432  11.709   6.969  1.00  0.00     0.156 HD
ENDBRANCH   8  10
TORSDOF 1
ENDMDL
MODEL 5
REMARK VINA RESULT:      -4.5      2.384      3.810
REMARK  1 active torsions:
REMARK  status: ('A' for Active; 'I' for Inactive)
REMARK    1  A    between atoms: C_8  and  N_9 
ROOT
HETATM    1  C   UNL     1      63.891   8.356   4.168  1.00  0.00     0.002 A 
HETATM    2  C   UNL     1      63.951   9.394   5.088  1.00  0.00     0.085 A 
HETATM    3  C   UNL     1      65.618   8.062   5.564  1.00  0.00     0.143 A 
HETATM    4  O   UNL     1      64.999   9.213   5.939  1.00  0.00    -0.322 OA
HETATM    5  C   UNL     1      64.976   7.496   4.485  1.00  0.00     0.039 A 
HETATM    6  C   UNL     1      62.877   8.380   3.192  1.00  0.00     0.043 A 
HETATM    7  C   UNL     1      63.067  10.468   5.107  1.00  0.00     0.040 A 
HETATM    8  C   UNL     1      61.939   9.428   3.196  1.00  0.00     0.026 A 
HETATM    9  C   UNL     1      62.071  10.472   4.121  1.00  0.00     0.032 A 
ENDROOT
BRANCH   8  10
HETATM   10  N   UNL     1      61.031   9.547   2.134  1.00  0.00    -0.399 N 
HETATM   11  H   UNL     1      60.561   8.751   1.797  1.00  0.00     0.156 HD
HETATM   12  H   UNL     1      60.864  10.428   1.727  1.00  0.00     0.156 HD
ENDBRANCH   8  10
TORSDOF 1
ENDMDL
MODEL 6
REMARK VINA RESULT:      -4.5      2.206      2.809
REMARK  1 active torsions:
REMARK  status: ('A' for Active; 'I' for Inactive)
REMARK    1  A    between atoms: C_8  and  N_9 
ROOT
HETATM    1  C   UNL     1      62.323   9.671   2.812  1.00  0.00     0.002 A 
HETATM    2  C   UNL     1      62.365  10.550   3.885  1.00  0.00     0.085 A 
HETATM    3  C   UNL     1      61.662  11.713   2.173  1.00  0.00     0.143 A 
HETATM    4  O   UNL     1      61.967  11.793   3.495  1.00  0.00    -0.322 OA
HETATM    5  C   UNL     1      61.867  10.434   1.705  1.00  0.00     0.039 A 
HETATM    6  C   UNL     1      62.686   8.328   3.029  1.00  0.00     0.043 A 
HETATM    7  C   UNL     1      62.746  10.189   5.173  1.00  0.00     0.040 A 
HETATM    8  C   UNL     1      63.112   7.925   4.307  1.00  0.00     0.026 A 
HETATM    9  C   UNL     1      63.096   8.845   5.364  1.00  0.00     0.032 A 
ENDROOT
BRANCH   8  10
HETATM   10  N   UNL     1      63.316   6.563   4.571  1.00  0.00    -0.399 N 
HETATM   11  H   UNL     1      64.224   6.184   4.527  1.00  0.00     0.156 HD
HETATM   12  H   UNL     1      62.552   5.987   4.800  1.00  0.00     0.156 HD
ENDBRANCH   8  10
TORSDOF 1
ENDMDL
MODEL 7
REMARK VINA RESULT:      -4.3      1.685      2.217
REMARK  1 active torsions:
REMARK  status: ('A' for Active; 'I' for Inactive)
REMARK    1  A    between atoms: C_8  and  N_9 
ROOT
HETATM    1  C   UNL     1      62.418  10.072   3.887  1.00  0.00     0.002 A 
HETATM    2  C   UNL     1      62.459   9.285   2.744  1.00  0.00     0.085 A 
HETATM    3  C   UNL     1      61.730  11.245   2.107  1.00  0.00     0.143 A 
HETATM    4  O   UNL     1      62.037   9.998   1.662  1.00  0.00    -0.322 OA
HETATM    5  C   UNL     1      61.943  11.341   3.464  1.00  0.00     0.039 A 
HETATM    6  C   UNL     1      62.836   9.508   5.107  1.00  0.00     0.043 A 
HETATM    7  C   UNL     1      62.892   7.963   2.725  1.00  0.00     0.040 A 
HETATM    8  C   UNL     1      63.248   8.164   5.141  1.00  0.00     0.026 A 
HETATM    9  C   UNL     1      63.309   7.428   3.951  1.00  0.00     0.032 A 
ENDROOT
BRANCH   8  10
HETATM   10  N   UNL     1      63.819   7.645   6.313  1.00  0.00    -0.399 N 
HETATM   11  H   UNL     1      63.277   7.092   6.921  1.00  0.00     0.156 HD
HETATM   12  H   UNL     1      64.761   7.835   6.526  1.00  0.00     0.156 HD
ENDBRANCH   8  10
TORSDOF 1
ENDMDL
MODEL 8
REMARK VINA RESULT:      -4.1      2.937      3.814
REMARK  1 active torsions:
REMARK  status: ('A' for Active; 'I' for Inactive)
REMARK    1  A    between atoms: C_8  and  N_9 
ROOT
HETATM    1  C   UNL     1      63.090   9.090   4.104  1.00  0.00     0.002 A 
HETATM    2  C   UNL     1      64.164   9.099   4.983  1.00  0.00     0.085 A 
HETATM    3  C   UNL     1      62.993  10.888   5.436  1.00  0.00     0.143 A 
HETATM    4  O   UNL     1      64.107  10.194   5.790  1.00  0.00    -0.322 OA
HETATM    5  C   UNL     1      62.336  10.255   4.405  1.00  0.00     0.039 A 
HETATM    6  C   UNL     1      62.971   8.020   3.198  1.00  0.00     0.043 A 
HETATM    7  C   UNL     1      65.140   8.109   5.028  1.00  0.00     0.040 A 
HETATM    8  C   UNL     1      63.954   7.015   3.184  1.00  0.00     0.026 A 
HETATM    9  C   UNL     1      64.995   7.051   4.120  1.00  0.00     0.032 A 
ENDROOT
BRANCH   8  10
HETATM   10  N   UNL     1      63.758   5.866   2.403  1.00  0.00    -0.399 N 
HETATM   11  H   UNL     1      63.245   5.923   1.564  1.00  0.00     0.156 HD
HETATM   12  H   UNL     1      64.134   5.004   2.693  1.00  0.00     0.156 HD
ENDBRANCH   8  10
TORSDOF 1
ENDMDL
MODEL 9
REMARK VINA RESULT:      -4.1      1.813      3.118
REMARK  1 active torsions:
REMARK  status: ('A' for Active; 'I' for Inactive)
REMARK    1  A    between atoms: C_8  and  N_9 
ROOT
HETATM    1  C   UNL     1      62.553   9.025   4.042  1.00  0.00     0.002 A 
HETATM    2  C   UNL     1      62.632   8.073   3.035  1.00  0.00     0.085 A 
HETATM    3  C   UNL     1      63.108   7.030   4.896  1.00  0.00     0.143 A 
HETATM    4  O   UNL     1      62.973   6.861   3.554  1.00  0.00    -0.322 OA
HETATM    5  C   UNL     1      62.864   8.339   5.246  1.00  0.00     0.039 A 
HETATM    6  C   UNL     1      62.194  10.341   3.696  1.00  0.00     0.043 A 
HETATM    7  C   UNL     1      62.376   8.336   1.694  1.00  0.00     0.040 A 
HETATM    8  C   UNL     1      61.961  10.662   2.347  1.00  0.00     0.026 A 
HETATM    9  C   UNL     1      62.014   9.653   1.377  1.00  0.00     0.032 A 
ENDROOT
BRANCH   8  10
HETATM   10  N   UNL     1      61.446  11.923   2.015  1.00  0.00    -0.399 N 
HETATM   11  H   UNL     1      62.032  12.603   1.611  1.00  0.00     0.156 HD
HETATM   12  H   UNL     1      60.498  12.127   2.185  1.00  0.00     0.156 HD
ENDBRANCH   8  10
TORSDOF 1
ENDMDL
