MODEL 1
REMARK VINA RESULT:      -5.3      0.000      0.000
REMARK  2 active torsions:
REMARK  status: ('A' for Active; 'I' for Inactive)
REMARK    1  A    between atoms: C_8  and  C_11 
REMARK    2  A    between atoms: O_10  and  C_11 
ROOT
HETATM    1  C   UNL     1      62.154   9.670   2.756  1.00  0.00     0.000 A 
HETATM    2  C   UNL     1      62.884   8.496   2.877  1.00  0.00     0.085 A 
HETATM    3  C   UNL     1      61.877   8.391   0.940  1.00  0.00     0.143 A 
HETATM    4  O   UNL     1      62.717   7.719   1.770  1.00  0.00    -0.322 OA
HETATM    5  C   UNL     1      61.505   9.595   1.495  1.00  0.00     0.039 A 
HETATM    6  C   UNL     1      62.203  10.602   3.809  1.00  0.00     0.023 A 
HETATM    7  C   UNL     1      63.668   8.174   3.981  1.00  0.00     0.039 A 
HETATM    8  C   UNL     1      62.981  10.315   4.949  1.00  0.00    -0.034 A 
HETATM    9  C   UNL     1      63.698   9.110   5.023  1.00  0.00     0.012 A 
ENDROOT
BRANCH   8  10
HETATM   10  C   UNL     1      63.015  11.299   6.091  1.00  0.00     0.202 C 
BRANCH  10  11
HETATM   11  O   UNL     1      64.356  11.555   6.484  1.00  0.00    -0.396 OA
HETATM   12  H   UNL     1      64.846  10.719   6.524  1.00  0.00     0.209 HD
ENDBRANCH  10  11
ENDBRANCH   8  10
TORSDOF 2
ENDMDL
MODEL 2
REMARK VINA RESULT:      -5.1      0.913      1.938
REMARK  2 active torsions:
REMARK  status: ('A' for Active; 'I' for Inactive)
REMARK    1  A    between atoms: C_8  and  C_11 
REMARK    2  A    between atoms: O_10  and  C_11 
ROOT
HETATM    1  C   UNL     1      62.725   8.794   3.123  1.00  0.00     0.000 A 
HETATM    2  C   UNL     1      62.117   9.600   2.171  1.00  0.00     0.085 A 
HETATM    3  C   UNL     1      62.460   7.668   1.207  1.00  0.00     0.143 A 
HETATM    4  O   UNL     1      61.954   8.913   1.006  1.00  0.00    -0.322 OA
HETATM    5  C   UNL     1      62.943   7.542   2.491  1.00  0.00     0.039 A 
HETATM    6  C   UNL     1      62.978   9.336   4.398  1.00  0.00     0.023 A 
HETATM    7  C   UNL     1      61.738  10.921   2.391  1.00  0.00     0.039 A 
HETATM    8  C   UNL     1      62.615  10.672   4.664  1.00  0.00    -0.034 A 
HETATM    9  C   UNL     1      62.005  11.445   3.663  1.00  0.00     0.012 A 
ENDROOT
BRANCH   8  10
HETATM   10  C   UNL     1      62.908  11.264   6.020  1.00  0.00     0.202 C 
BRANCH  10  11
HETATM   11  O   UNL     1      64.309  11.372   6.219  1.00  0.00    -0.396 OA
HETATM   12  H   UNL     1      64.560  10.892   7.024  1.00  0.00     0.209 HD
ENDBRANCH  10  11
ENDBRANCH   8  10
TORSDOF 2
ENDMDL
MODEL 3
REMARK VINA RESULT:      -4.9      2.081      2.961
REMARK  2 active torsions:
REMARK  status: ('A' for Active; 'I' for Inactive)
REMARK    1  A    between atoms: C_8  and  C_11 
REMARK    2  A    between atoms: O_10  and  C_11 
ROOT
HETATM    1  C   UNL     1      62.310   9.820   3.061  1.00  0.00     0.000 A 
HETATM    2  C   UNL     1      62.307  10.927   3.899  1.00  0.00     0.085 A 
HETATM    3  C   UNL     1      61.623  11.636   1.948  1.00  0.00     0.143 A 
HETATM    4  O   UNL     1      61.886  12.031   3.221  1.00  0.00    -0.322 OA
HETATM    5  C   UNL     1      61.863  10.289   1.798  1.00  0.00     0.039 A 
HETATM    6  C   UNL     1      62.719   8.581   3.588  1.00  0.00     0.023 A 
HETATM    7  C   UNL     1      62.685  10.895   5.238  1.00  0.00     0.039 A 
HETATM    8  C   UNL     1      63.116   8.503   4.939  1.00  0.00    -0.034 A 
HETATM    9  C   UNL     1      63.097   9.655   5.743  1.00  0.00     0.012 A 
ENDROOT
BRANCH   8  10
HETATM   10  C   UNL     1      63.580   7.182   5.501  1.00  0.00     0.202 C 
BRANCH  10  11
HETATM   11  O   UNL     1      63.740   7.273   6.909  1.00  0.00    -0.396 OA
HETATM   12  H   UNL     1      63.087   7.893   7.269  1.00  0.00     0.209 HD
ENDBRANCH  10  11
ENDBRANCH   8  10
TORSDOF 2
ENDMDL
MODEL 4
REMARK VINA RESULT:      -4.9      1.063      2.494
REMARK  2 active torsions:
REMARK  status: ('A' for Active; 'I' for Inactive)
REMARK    1  A    between atoms: C_8  and  C_11 
REMARK    2  A    between atoms: O_10  and  C_11 
ROOT
HETATM    1  C   UNL     1      64.152   8.041   4.271  1.00  0.00     0.000 A 
HETATM    2  C   UNL     1      63.223   8.002   3.240  1.00  0.00     0.085 A 
HETATM    3  C   UNL     1      64.478   6.228   2.999  1.00  0.00     0.143 A 
HETATM    4  O   UNL     1      63.421   6.896   2.469  1.00  0.00    -0.322 OA
HETATM    5  C   UNL     1      64.961   6.886   4.109  1.00  0.00     0.039 A 
HETATM    6  C   UNL     1      64.104   9.118   5.176  1.00  0.00     0.023 A 
HETATM    7  C   UNL     1      62.238   8.964   3.038  1.00  0.00     0.039 A 
HETATM    8  C   UNL     1      63.125  10.119   5.007  1.00  0.00    -0.034 A 
HETATM    9  C   UNL     1      62.211  10.032   3.944  1.00  0.00     0.012 A 
ENDROOT
BRANCH   8  10
HETATM   10  C   UNL     1      63.087  11.288   5.959  1.00  0.00     0.202 C 
BRANCH  10  11
HETATM   11  O   UNL     1      64.389  11.565   6.452  1.00  0.00    -0.396 OA
HETATM   12  H   UNL     1      64.420  12.474   6.791  1.00  0.00     0.209 HD
ENDBRANCH  10  11
ENDBRANCH   8  10
TORSDOF 2
ENDMDL
MODEL 5
REMARK VINA RESULT:      -4.7      1.436      4.481
REMARK  2 active torsions:
REMARK  status: ('A' for Active; 'I' for Inactive)
REMARK    1  A    between atoms: C_8  and  C_11 
REMARK    2  A    between atoms: O_10  and  C_11 
ROOT
HETATM    1  C   UNL     1      62.701   9.515   3.894  1.00  0.00     0.000 A 
HETATM    2  C   UNL     1      62.166  10.607   3.226  1.00  0.00     0.085 A 
HETATM    3  C   UNL     1      62.566  11.277   5.268  1.00  0.00     0.143 A 
HETATM    4  O   UNL     1      62.087  11.680   4.063  1.00  0.00    -0.322 OA
HETATM    5  C   UNL     1      62.960   9.958   5.218  1.00  0.00     0.039 A 
HETATM    6  C   UNL     1      62.859   8.308   3.188  1.00  0.00     0.023 A 
HETATM    7  C   UNL     1      61.769  10.590   1.892  1.00  0.00     0.039 A 
HETATM    8  C   UNL     1      62.466   8.244   1.835  1.00  0.00    -0.034 A 
HETATM    9  C   UNL     1      61.926   9.378   1.208  1.00  0.00     0.012 A 
ENDROOT
BRANCH   8  10
HETATM   10  C   UNL     1      62.609   6.945   1.082  1.00  0.00     0.202 C 
BRANCH  10  11
HETATM   11  O   UNL     1      63.686   6.184   1.610  1.00  0.00    -0.396 OA
HETATM   12  H   UNL     1      63.334   5.428   2.107  1.00  0.00     0.209 HD
ENDBRANCH  10  11
ENDBRANCH   8  10
TORSDOF 2
ENDMDL
MODEL 6
REMARK VINA RESULT:      -4.7      1.868      2.687
REMARK  2 active torsions:
REMARK  status: ('A' for Active; 'I' for Inactive)
REMARK    1  A    between atoms: C_8  and  C_11 
REMARK    2  A    between atoms: O_10  and  C_11 
ROOT
HETATM    1  C   UNL     1      62.322  10.190   3.669  1.00  0.00     0.000 A 
HETATM    2  C   UNL     1      62.325   9.525   2.450  1.00  0.00     0.085 A 
HETATM    3  C   UNL     1      61.690  11.573   2.026  1.00  0.00     0.143 A 
HETATM    4  O   UNL     1      61.943  10.369   1.451  1.00  0.00    -0.322 OA
HETATM    5  C   UNL     1      61.910  11.519   3.385  1.00  0.00     0.039 A 
HETATM    6  C   UNL     1      62.690   9.475   4.824  1.00  0.00     0.023 A 
HETATM    7  C   UNL     1      62.670   8.186   2.291  1.00  0.00     0.039 A 
HETATM    8  C   UNL     1      63.043   8.115   4.710  1.00  0.00    -0.034 A 
HETATM    9  C   UNL     1      63.026   7.489   3.453  1.00  0.00     0.012 A 
ENDROOT
BRANCH   8  10
HETATM   10  C   UNL     1      63.413   7.338   5.949  1.00  0.00     0.202 C 
BRANCH  10  11
HETATM   11  O   UNL     1      62.643   7.780   7.057  1.00  0.00    -0.396 OA
HETATM   12  H   UNL     1      62.354   7.013   7.576  1.00  0.00     0.209 HD
ENDBRANCH  10  11
ENDBRANCH   8  10
TORSDOF 2
ENDMDL
MODEL 7
REMARK VINA RESULT:      -4.4      1.710      4.346
REMARK  2 active torsions:
REMARK  status: ('A' for Active; 'I' for Inactive)
REMARK    1  A    between atoms: C_8  and  C_11 
REMARK    2  A    between atoms: O_10  and  C_11 
ROOT
HETATM    1  C   UNL     1      64.350   7.927   4.320  1.00  0.00     0.000 A 
HETATM    2  C   UNL     1      64.267   9.047   5.136  1.00  0.00     0.085 A 
HETATM    3  C   UNL     1      66.126   8.033   5.679  1.00  0.00     0.143 A 
HETATM    4  O   UNL     1      65.350   9.112   5.961  1.00  0.00    -0.322 OA
HETATM    5  C   UNL     1      65.560   7.276   4.678  1.00  0.00     0.039 A 
HETATM    6  C   UNL     1      63.315   7.692   3.397  1.00  0.00     0.023 A 
HETATM    7  C   UNL     1      63.218   9.961   5.104  1.00  0.00     0.039 A 
HETATM    8  C   UNL     1      62.230   8.590   3.333  1.00  0.00    -0.034 A 
HETATM    9  C   UNL     1      62.193   9.706   4.185  1.00  0.00     0.012 A 
ENDROOT
BRANCH   8  10
HETATM   10  C   UNL     1      61.105   8.327   2.363  1.00  0.00     0.202 C 
BRANCH  10  11
HETATM   11  O   UNL     1      60.860   9.477   1.568  1.00  0.00    -0.396 OA
HETATM   12  H   UNL     1      61.136   9.304   0.654  1.00  0.00     0.209 HD
ENDBRANCH  10  11
ENDBRANCH   8  10
TORSDOF 2
ENDMDL
MODEL 8
REMARK VINA RESULT:      -4.3      1.719      2.541
REMARK  2 active torsions:
REMARK  status: ('A' for Active; 'I' for Inactive)
REMARK    1  A    between atoms: C_8  and  C_11 
REMARK    2  A    between atoms: O_10  and  C_11 
ROOT
HETATM    1  C   UNL     1      62.821   8.192   2.563  1.00  0.00     0.000 A 
HETATM    2  C   UNL     1      62.229   9.413   2.852  1.00  0.00     0.085 A 
HETATM    3  C   UNL     1      61.615   8.904   0.817  1.00  0.00     0.143 A 
HETATM    4  O   UNL     1      61.492   9.844   1.790  1.00  0.00    -0.322 OA
HETATM    5  C   UNL     1      62.417   7.868   1.241  1.00  0.00     0.039 A 
HETATM    6  C   UNL     1      63.627   7.587   3.546  1.00  0.00     0.023 A 
HETATM    7  C   UNL     1      62.378  10.088   4.060  1.00  0.00     0.039 A 
HETATM    8  C   UNL     1      63.810   8.238   4.783  1.00  0.00    -0.034 A 
HETATM    9  C   UNL     1      63.190   9.475   5.023  1.00  0.00     0.012 A 
ENDROOT
BRANCH   8  10
HETATM   10  C   UNL     1      64.693   7.606   5.830  1.00  0.00     0.202 C 
BRANCH  10  11
HETATM   11  O   UNL     1      63.943   7.319   7.001  1.00  0.00    -0.396 OA
HETATM   12  H   UNL     1      62.997   7.305   6.784  1.00  0.00     0.209 HD
ENDBRANCH  10  11
ENDBRANCH   8  10
TORSDOF 2
ENDMDL
MODEL 9
REMARK VINA RESULT:      -4.2      1.727      2.409
REMARK  2 active torsions:
REMARK  status: ('A' for Active; 'I' for Inactive)
REMARK    1  A    between atoms: C_8  and  C_11 
REMARK    2  A    between atoms: O_10  and  C_11 
ROOT
HETATM    1  C   UNL     1      61.991   8.200   1.229  1.00  0.00     0.000 A 
HETATM    2  C   UNL     1      62.501   7.508   2.320  1.00  0.00     0.085 A 
HETATM    3  C   UNL     1      62.231   6.030   0.732  1.00  0.00     0.143 A 
HETATM    4  O   UNL     1      62.649   6.189   2.015  1.00  0.00    -0.322 OA
HETATM    5  C   UNL     1      61.821   7.234   0.202  1.00  0.00     0.039 A 
HETATM    6  C   UNL     1      61.768   9.584   1.357  1.00  0.00     0.023 A 
HETATM    7  C   UNL     1      62.808   8.096   3.543  1.00  0.00     0.039 A 
HETATM    8  C   UNL     1      62.062  10.220   2.581  1.00  0.00    -0.034 A 
HETATM    9  C   UNL     1      62.572   9.472   3.654  1.00  0.00     0.012 A 
ENDROOT
BRANCH   8  10
HETATM   10  C   UNL     1      61.800  11.697   2.730  1.00  0.00     0.202 C 
BRANCH  10  11
HETATM   11  O   UNL     1      62.024  12.106   4.071  1.00  0.00    -0.396 OA
HETATM   12  H   UNL     1      62.223  11.329   4.617  1.00  0.00     0.209 HD
ENDBRANCH  10  11
ENDBRANCH   8  10
TORSDOF 2
ENDMDL
