MODEL 1
REMARK VINA RESULT:      -3.3      0.000      0.000
REMARK  0 active torsions:
REMARK  status: ('A' for Active; 'I' for Inactive)
ROOT
HETATM    1  C   UNL     1      62.940  10.824   5.267  1.00  0.00     0.158 A 
HETATM    2  S   UNL     1      63.034   9.127   5.007  1.00  0.00    -0.046 SA
HETATM    3  N   UNL     1      62.172  11.451   4.402  1.00  0.00    -0.280 N 
ATOM      4  HN  UNL     1      62.006  12.457   4.418  1.00  0.00     0.189 HD
HETATM    5  N   UNL     1      61.617  10.598   3.468  1.00  0.00    -0.303 N 
ATOM      6  HN  UNL     1      60.993  10.897   2.718  1.00  0.00     0.186 HD
HETATM    7  C   UNL     1      61.992   9.354   3.667  1.00  0.00     0.160 A 
HETATM    8  N   UNL     1      63.594  11.420   6.281  1.00  0.00    -0.379 N 
HETATM    9  H   UNL     1      64.152  10.884   6.889  1.00  0.00     0.158 HD
HETATM   10  H   UNL     1      63.514  12.392   6.414  1.00  0.00     0.158 HD
ENDROOT
TORSDOF 0
ENDMDL
MODEL 2
REMARK VINA RESULT:      -3.3      1.106      2.426
REMARK  0 active torsions:
REMARK  status: ('A' for Active; 'I' for Inactive)
ROOT
HETATM    1  C   UNL     1      62.100  10.892   3.684  1.00  0.00     0.158 A 
HETATM    2  S   UNL     1      62.662   9.277   3.874  1.00  0.00    -0.046 SA
HETATM    3  N   UNL     1      62.389  11.676   4.700  1.00  0.00    -0.280 N 
ATOM      4  HN  UNL     1      62.132  12.662   4.745  1.00  0.00     0.189 HD
HETATM    5  N   UNL     1      63.076  11.018   5.702  1.00  0.00    -0.303 N 
ATOM      6  HN  UNL     1      63.387  11.458   6.568  1.00  0.00     0.186 HD
HETATM    7  C   UNL     1      63.278   9.755   5.399  1.00  0.00     0.160 A 
HETATM    8  N   UNL     1      61.443  11.284   2.577  1.00  0.00    -0.379 N 
HETATM    9  H   UNL     1      61.263  10.638   1.857  1.00  0.00     0.158 HD
HETATM   10  H   UNL     1      61.143  12.218   2.489  1.00  0.00     0.158 HD
ENDROOT
TORSDOF 0
ENDMDL
MODEL 3
REMARK VINA RESULT:      -3.0      1.929      3.322
REMARK  0 active torsions:
REMARK  status: ('A' for Active; 'I' for Inactive)
ROOT
HETATM    1  C   UNL     1      62.014   9.682   1.807  1.00  0.00     0.158 A 
HETATM    2  S   UNL     1      62.488   8.975   3.302  1.00  0.00    -0.046 SA
HETATM    3  N   UNL     1      61.640  10.939   1.911  1.00  0.00    -0.280 N 
ATOM      4  HN  UNL     1      61.334  11.506   1.120  1.00  0.00     0.189 HD
HETATM    5  N   UNL     1      61.705  11.408   3.209  1.00  0.00    -0.303 N 
ATOM      6  HN  UNL     1      61.457  12.357   3.489  1.00  0.00     0.186 HD
HETATM    7  C   UNL     1      62.127  10.479   4.038  1.00  0.00     0.160 A 
HETATM    8  N   UNL     1      62.050   8.988   0.655  1.00  0.00    -0.379 N 
HETATM    9  H   UNL     1      62.342   8.048   0.656  1.00  0.00     0.158 HD
HETATM   10  H   UNL     1      61.785   9.421  -0.189  1.00  0.00     0.158 HD
ENDROOT
TORSDOF 0
ENDMDL
MODEL 4
REMARK VINA RESULT:      -2.9      2.753      2.947
REMARK  0 active torsions:
REMARK  status: ('A' for Active; 'I' for Inactive)
ROOT
HETATM    1  C   UNL     1      61.688  10.796   2.395  1.00  0.00     0.158 A 
HETATM    2  S   UNL     1      62.154  10.398   4.002  1.00  0.00    -0.046 SA
HETATM    3  N   UNL     1      61.071   9.819   1.765  1.00  0.00    -0.280 N 
ATOM      4  HN  UNL     1      60.725   9.892   0.808  1.00  0.00     0.189 HD
HETATM    5  N   UNL     1      60.944   8.683   2.541  1.00  0.00    -0.303 N 
ATOM      6  HN  UNL     1      60.494   7.822   2.228  1.00  0.00     0.186 HD
HETATM    7  C   UNL     1      61.475   8.849   3.732  1.00  0.00     0.160 A 
HETATM    8  N   UNL     1      61.934  12.010   1.869  1.00  0.00    -0.379 N 
HETATM    9  H   UNL     1      62.402  12.692   2.403  1.00  0.00     0.158 HD
HETATM   10  H   UNL     1      61.645  12.215   0.950  1.00  0.00     0.158 HD
ENDROOT
TORSDOF 0
ENDMDL
MODEL 5
REMARK VINA RESULT:      -2.8     13.098     13.401
REMARK  0 active torsions:
REMARK  status: ('A' for Active; 'I' for Inactive)
ROOT
HETATM    1  C   UNL     1      57.104   1.769  13.813  1.00  0.00     0.158 A 
HETATM    2  S   UNL     1      57.314   1.994  12.121  1.00  0.00    -0.046 SA
HETATM    3  N   UNL     1      58.230   1.782  14.493  1.00  0.00    -0.280 N 
ATOM      4  HN  UNL     1      58.282   1.668  15.505  1.00  0.00     0.189 HD
HETATM    5  N   UNL     1      59.337   1.967  13.686  1.00  0.00    -0.303 N 
ATOM      6  HN  UNL     1      60.297   2.007  14.030  1.00  0.00     0.186 HD
HETATM    7  C   UNL     1      58.998   2.085  12.421  1.00  0.00     0.160 A 
HETATM    8  N   UNL     1      55.884   1.613  14.358  1.00  0.00    -0.379 N 
HETATM    9  H   UNL     1      55.085   1.614  13.783  1.00  0.00     0.158 HD
HETATM   10  H   UNL     1      55.791   1.498  15.331  1.00  0.00     0.158 HD
ENDROOT
TORSDOF 0
ENDMDL
MODEL 6
REMARK VINA RESULT:      -2.7      4.249      4.552
REMARK  0 active torsions:
REMARK  status: ('A' for Active; 'I' for Inactive)
ROOT
HETATM    1  C   UNL     1      66.192   7.790   6.432  1.00  0.00     0.158 A 
HETATM    2  S   UNL     1      65.628   6.264   6.992  1.00  0.00    -0.046 SA
HETATM    3  N   UNL     1      65.241   8.562   5.953  1.00  0.00    -0.280 N 
ATOM      4  HN  UNL     1      65.405   9.500   5.586  1.00  0.00     0.189 HD
HETATM    5  N   UNL     1      63.996   7.966   6.001  1.00  0.00    -0.303 N 
ATOM      6  HN  UNL     1      63.136   8.408   5.676  1.00  0.00     0.186 HD
HETATM    7  C   UNL     1      64.058   6.758   6.516  1.00  0.00     0.160 A 
HETATM    8  N   UNL     1      67.491   8.132   6.508  1.00  0.00    -0.379 N 
HETATM    9  H   UNL     1      68.146   7.499   6.879  1.00  0.00     0.158 HD
HETATM   10  H   UNL     1      67.785   9.017   6.190  1.00  0.00     0.158 HD
ENDROOT
TORSDOF 0
ENDMDL
MODEL 7
REMARK VINA RESULT:      -2.7      6.370      7.016
REMARK  0 active torsions:
REMARK  status: ('A' for Active; 'I' for Inactive)
ROOT
HETATM    1  C   UNL     1      66.811   6.958   7.596  1.00  0.00     0.158 A 
HETATM    2  S   UNL     1      67.627   5.739   6.698  1.00  0.00    -0.046 SA
HETATM    3  N   UNL     1      66.154   6.498   8.638  1.00  0.00    -0.280 N 
ATOM      4  HN  UNL     1      65.622   7.088   9.277  1.00  0.00     0.189 HD
HETATM    5  N   UNL     1      66.262   5.127   8.773  1.00  0.00    -0.303 N 
ATOM      6  HN  UNL     1      65.823   4.588   9.519  1.00  0.00     0.186 HD
HETATM    7  C   UNL     1      67.001   4.605   7.819  1.00  0.00     0.160 A 
HETATM    8  N   UNL     1      66.875   8.255   7.243  1.00  0.00    -0.379 N 
HETATM    9  H   UNL     1      67.388   8.524   6.447  1.00  0.00     0.158 HD
HETATM   10  H   UNL     1      66.407   8.934   7.781  1.00  0.00     0.158 HD
ENDROOT
TORSDOF 0
ENDMDL
MODEL 8
REMARK VINA RESULT:      -2.7     13.041     13.265
REMARK  0 active torsions:
REMARK  status: ('A' for Active; 'I' for Inactive)
ROOT
HETATM    1  C   UNL     1      58.287   1.986  13.425  1.00  0.00     0.158 A 
HETATM    2  S   UNL     1      57.421   2.536  12.044  1.00  0.00    -0.046 SA
HETATM    3  N   UNL     1      57.525   1.769  14.475  1.00  0.00    -0.280 N 
ATOM      4  HN  UNL     1      57.880   1.436  15.372  1.00  0.00     0.189 HD
HETATM    5  N   UNL     1      56.193   2.042  14.232  1.00  0.00    -0.303 N 
ATOM      6  HN  UNL     1      55.450   1.934  14.923  1.00  0.00     0.186 HD
HETATM    7  C   UNL     1      56.002   2.458  13.000  1.00  0.00     0.160 A 
HETATM    8  N   UNL     1      59.618   1.792  13.392  1.00  0.00    -0.379 N 
HETATM    9  H   UNL     1      60.122   1.977  12.567  1.00  0.00     0.158 HD
HETATM   10  H   UNL     1      60.087   1.465  14.193  1.00  0.00     0.158 HD
ENDROOT
TORSDOF 0
ENDMDL
MODEL 9
REMARK VINA RESULT:      -2.6      2.627      3.081
REMARK  0 active torsions:
REMARK  status: ('A' for Active; 'I' for Inactive)
ROOT
HETATM    1  C   UNL     1      61.933  10.480   2.398  1.00  0.00     0.158 A 
HETATM    2  S   UNL     1      62.057   9.241   1.212  1.00  0.00    -0.046 SA
HETATM    3  N   UNL     1      62.304  10.100   3.602  1.00  0.00    -0.280 N 
ATOM      4  HN  UNL     1      62.296  10.713   4.417  1.00  0.00     0.189 HD
HETATM    5  N   UNL     1      62.706   8.779   3.642  1.00  0.00    -0.303 N 
ATOM      6  HN  UNL     1      63.030   8.303   4.485  1.00  0.00     0.186 HD
HETATM    7  C   UNL     1      62.620   8.211   2.460  1.00  0.00     0.160 A 
HETATM    8  N   UNL     1      61.505  11.716   2.085  1.00  0.00    -0.379 N 
HETATM    9  H   UNL     1      61.243  11.927   1.160  1.00  0.00     0.158 HD
HETATM   10  H   UNL     1      61.454  12.410   2.782  1.00  0.00     0.158 HD
ENDROOT
TORSDOF 0
ENDMDL
