MODEL 1
REMARK VINA RESULT:      -5.3      0.000      0.000
REMARK  2 active torsions:
REMARK  status: ('A' for Active; 'I' for Inactive)
REMARK    1  A    between atoms: C_10  and  C_12 
REMARK    2  A    between atoms: C_12  and  O_13 
ROOT
HETATM    1  C   UNL     1      62.033   9.775   2.867  1.00  0.00     0.067 A 
HETATM    2  S   UNL     1      61.561   8.535   0.854  1.00  0.00     0.068 SA
HETATM    3  C   UNL     1      62.820   8.493   2.911  1.00  0.00     0.067 A 
HETATM    4  N   UNL     1      61.290   9.904   1.757  1.00  0.00    -0.310 N 
ATOM      5  HN  UNL     1      60.680  10.686   1.517  1.00  0.00     0.176 HD
HETATM    6  N   UNL     1      62.629   7.719   1.833  1.00  0.00    -0.310 N 
ATOM      7  HN  UNL     1      63.055   6.810   1.649  1.00  0.00     0.176 HD
HETATM    8  C   UNL     1      62.113  10.715   3.923  1.00  0.00     0.041 A 
HETATM    9  C   UNL     1      63.656   8.196   4.012  1.00  0.00     0.033 A 
HETATM   10  C   UNL     1      62.961  10.382   5.005  1.00  0.00    -0.033 A 
HETATM   11  C   UNL     1      63.700   9.164   5.034  1.00  0.00     0.012 A 
ENDROOT
BRANCH  10  12
HETATM   12  C   UNL     1      63.097  11.352   6.156  1.00  0.00     0.203 C 
BRANCH  12  13
HETATM   13  O   UNL     1      64.466  11.532   6.488  1.00  0.00    -0.396 OA
HETATM   14  H   UNL     1      64.541  12.160   7.222  1.00  0.00     0.209 HD
ENDBRANCH  12  13
ENDBRANCH  10  12
TORSDOF 2
ENDMDL
MODEL 2
REMARK VINA RESULT:      -5.0      0.969      2.069
REMARK  2 active torsions:
REMARK  status: ('A' for Active; 'I' for Inactive)
REMARK    1  A    between atoms: C_10  and  C_12 
REMARK    2  A    between atoms: C_12  and  O_13 
ROOT
HETATM    1  C   UNL     1      62.712   8.742   3.051  1.00  0.00     0.067 A 
HETATM    2  S   UNL     1      62.477   7.394   1.066  1.00  0.00     0.068 SA
HETATM    3  C   UNL     1      62.077   9.590   1.982  1.00  0.00     0.067 A 
HETATM    4  N   UNL     1      62.980   7.491   2.647  1.00  0.00    -0.310 N 
ATOM      5  HN  UNL     1      63.408   6.749   3.200  1.00  0.00     0.176 HD
HETATM    6  N   UNL     1      61.900   8.935   0.824  1.00  0.00    -0.310 N 
ATOM      7  HN  UNL     1      61.492   9.308  -0.033  1.00  0.00     0.176 HD
HETATM    8  C   UNL     1      62.973   9.270   4.338  1.00  0.00     0.041 A 
HETATM    9  C   UNL     1      61.728  10.936   2.238  1.00  0.00     0.033 A 
HETATM   10  C   UNL     1      62.609  10.619   4.556  1.00  0.00    -0.033 A 
HETATM   11  C   UNL     1      62.008  11.410   3.534  1.00  0.00     0.012 A 
ENDROOT
BRANCH  10  12
HETATM   12  C   UNL     1      62.852  11.235   5.915  1.00  0.00     0.203 C 
BRANCH  12  13
HETATM   13  O   UNL     1      64.245  11.361   6.156  1.00  0.00    -0.396 OA
HETATM   14  H   UNL     1      64.388  11.799   7.009  1.00  0.00     0.209 HD
ENDBRANCH  12  13
ENDBRANCH  10  12
TORSDOF 2
ENDMDL
MODEL 3
REMARK VINA RESULT:      -4.5      2.922      3.772
REMARK  2 active torsions:
REMARK  status: ('A' for Active; 'I' for Inactive)
REMARK    1  A    between atoms: C_10  and  C_12 
REMARK    2  A    between atoms: C_12  and  O_13 
ROOT
HETATM    1  C   UNL     1      62.738   7.931   4.125  1.00  0.00     0.067 A 
HETATM    2  S   UNL     1      63.402   6.385   5.851  1.00  0.00     0.068 SA
HETATM    3  C   UNL     1      62.981   8.714   5.387  1.00  0.00     0.067 A 
HETATM    4  N   UNL     1      62.944   6.613   4.270  1.00  0.00    -0.310 N 
ATOM      5  HN  UNL     1      62.839   5.896   3.553  1.00  0.00     0.176 HD
HETATM    6  N   UNL     1      63.356   7.946   6.421  1.00  0.00    -0.310 N 
ATOM      7  HN  UNL     1      63.571   8.258   7.368  1.00  0.00     0.176 HD
HETATM    8  C   UNL     1      62.335   8.580   2.933  1.00  0.00     0.041 A 
HETATM    9  C   UNL     1      62.810  10.117   5.412  1.00  0.00     0.033 A 
HETATM   10  C   UNL     1      62.177   9.983   2.997  1.00  0.00    -0.033 A 
HETATM   11  C   UNL     1      62.411  10.713   4.199  1.00  0.00     0.012 A 
ENDROOT
BRANCH  10  12
HETATM   12  C   UNL     1      61.761  10.734   1.752  1.00  0.00     0.203 C 
BRANCH  12  13
HETATM   13  O   UNL     1      62.094  12.108   1.873  1.00  0.00    -0.396 OA
HETATM   14  H   UNL     1      61.284  12.640   1.865  1.00  0.00     0.209 HD
ENDBRANCH  12  13
ENDBRANCH  10  12
TORSDOF 2
ENDMDL
MODEL 4
REMARK VINA RESULT:      -4.4      1.185      2.444
REMARK  2 active torsions:
REMARK  status: ('A' for Active; 'I' for Inactive)
REMARK    1  A    between atoms: C_10  and  C_12 
REMARK    2  A    between atoms: C_12  and  O_13 
ROOT
HETATM    1  C   UNL     1      62.846   8.161   2.706  1.00  0.00     0.067 A 
HETATM    2  S   UNL     1      61.254   8.571   0.942  1.00  0.00     0.068 SA
HETATM    3  C   UNL     1      62.083   9.414   3.045  1.00  0.00     0.067 A 
HETATM    4  N   UNL     1      62.464   7.604   1.547  1.00  0.00    -0.310 N 
ATOM      5  HN  UNL     1      62.840   6.757   1.122  1.00  0.00     0.176 HD
HETATM    6  N   UNL     1      61.165   9.739   2.122  1.00  0.00    -0.310 N 
ATOM      7  HN  UNL     1      60.538  10.543   2.141  1.00  0.00     0.176 HD
HETATM    8  C   UNL     1      63.854   7.669   3.569  1.00  0.00     0.041 A 
HETATM    9  C   UNL     1      62.360  10.130   4.232  1.00  0.00     0.033 A 
HETATM   10  C   UNL     1      64.100   8.411   4.747  1.00  0.00    -0.033 A 
HETATM   11  C   UNL     1      63.371   9.596   5.055  1.00  0.00     0.012 A 
ENDROOT
BRANCH  10  12
HETATM   12  C   UNL     1      65.157   7.927   5.713  1.00  0.00     0.203 C 
BRANCH  12  13
HETATM   13  O   UNL     1      65.865   9.029   6.260  1.00  0.00    -0.396 OA
HETATM   14  H   UNL     1      65.409   9.344   7.055  1.00  0.00     0.209 HD
ENDBRANCH  12  13
ENDBRANCH  10  12
TORSDOF 2
ENDMDL
MODEL 5
REMARK VINA RESULT:      -4.3      3.020      3.478
REMARK  2 active torsions:
REMARK  status: ('A' for Active; 'I' for Inactive)
REMARK    1  A    between atoms: C_10  and  C_12 
REMARK    2  A    between atoms: C_12  and  O_13 
ROOT
HETATM    1  C   UNL     1      63.797   8.454   5.044  1.00  0.00     0.067 A 
HETATM    2  S   UNL     1      64.984   6.524   5.868  1.00  0.00     0.068 SA
HETATM    3  C   UNL     1      63.730   7.379   3.993  1.00  0.00     0.067 A 
HETATM    4  N   UNL     1      64.477   8.084   6.140  1.00  0.00    -0.310 N 
ATOM      5  HN  UNL     1      64.650   8.647   6.972  1.00  0.00     0.176 HD
HETATM    6  N   UNL     1      64.365   6.252   4.349  1.00  0.00    -0.310 N 
ATOM      7  HN  UNL     1      64.451   5.399   3.797  1.00  0.00     0.176 HD
HETATM    8  C   UNL     1      63.180   9.711   4.839  1.00  0.00     0.041 A 
HETATM    9  C   UNL     1      63.050   7.602   2.773  1.00  0.00     0.033 A 
HETATM   10  C   UNL     1      62.509   9.895   3.608  1.00  0.00    -0.033 A 
HETATM   11  C   UNL     1      62.453   8.868   2.621  1.00  0.00     0.012 A 
ENDROOT
BRANCH  10  12
HETATM   12  C   UNL     1      61.820  11.213   3.336  1.00  0.00     0.203 C 
BRANCH  12  13
HETATM   13  O   UNL     1      62.101  12.138   4.376  1.00  0.00    -0.396 OA
HETATM   14  H   UNL     1      62.257  11.658   5.203  1.00  0.00     0.209 HD
ENDBRANCH  12  13
ENDBRANCH  10  12
TORSDOF 2
ENDMDL
MODEL 6
REMARK VINA RESULT:      -4.1      5.765      6.640
REMARK  2 active torsions:
REMARK  status: ('A' for Active; 'I' for Inactive)
REMARK    1  A    between atoms: C_10  and  C_12 
REMARK    2  A    between atoms: C_12  and  O_13 
ROOT
HETATM    1  C   UNL     1      66.904   6.536   7.494  1.00  0.00     0.067 A 
HETATM    2  S   UNL     1      67.998   5.037   9.033  1.00  0.00     0.068 SA
HETATM    3  C   UNL     1      66.054   5.301   7.630  1.00  0.00     0.067 A 
HETATM    4  N   UNL     1      68.021   6.496   8.237  1.00  0.00    -0.310 N 
ATOM      5  HN  UNL     1      68.740   7.216   8.300  1.00  0.00     0.176 HD
HETATM    6  N   UNL     1      66.574   4.391   8.468  1.00  0.00    -0.310 N 
ATOM      7  HN  UNL     1      66.174   3.485   8.710  1.00  0.00     0.176 HD
HETATM    8  C   UNL     1      66.510   7.601   6.650  1.00  0.00     0.041 A 
HETATM    9  C   UNL     1      64.841   5.176   6.914  1.00  0.00     0.033 A 
HETATM   10  C   UNL     1      65.290   7.440   5.953  1.00  0.00    -0.033 A 
HETATM   11  C   UNL     1      64.494   6.266   6.091  1.00  0.00     0.012 A 
ENDROOT
BRANCH  10  12
HETATM   12  C   UNL     1      64.810   8.551   5.046  1.00  0.00     0.203 C 
BRANCH  12  13
HETATM   13  O   UNL     1      64.652   9.754   5.783  1.00  0.00    -0.396 OA
HETATM   14  H   UNL     1      63.840   9.706   6.310  1.00  0.00     0.209 HD
ENDBRANCH  12  13
ENDBRANCH  10  12
TORSDOF 2
ENDMDL
MODEL 7
REMARK VINA RESULT:      -4.1      3.438      4.578
REMARK  2 active torsions:
REMARK  status: ('A' for Active; 'I' for Inactive)
REMARK    1  A    between atoms: C_10  and  C_12 
REMARK    2  A    between atoms: C_12  and  O_13 
ROOT
HETATM    1  C   UNL     1      62.876   9.468   4.087  1.00  0.00     0.067 A 
HETATM    2  S   UNL     1      62.983  11.062   5.893  1.00  0.00     0.068 SA
HETATM    3  C   UNL     1      62.252  10.753   3.615  1.00  0.00     0.067 A 
HETATM    4  N   UNL     1      63.320   9.527   5.352  1.00  0.00    -0.310 N 
ATOM      5  HN  UNL     1      63.774   8.779   5.877  1.00  0.00     0.176 HD
HETATM    6  N   UNL     1      62.256  11.717   4.548  1.00  0.00    -0.310 N 
ATOM      7  HN  UNL     1      61.887  12.663   4.451  1.00  0.00     0.176 HD
HETATM    8  C   UNL     1      62.959   8.342   3.233  1.00  0.00     0.041 A 
HETATM    9  C   UNL     1      61.731  10.865   2.305  1.00  0.00     0.033 A 
HETATM   10  C   UNL     1      62.429   8.494   1.931  1.00  0.00    -0.033 A 
HETATM   11  C   UNL     1      61.841   9.717   1.496  1.00  0.00     0.012 A 
ENDROOT
BRANCH  10  12
HETATM   12  C   UNL     1      62.499   7.330   0.969  1.00  0.00     0.203 C 
BRANCH  12  13
HETATM   13  O   UNL     1      63.047   6.191   1.614  1.00  0.00    -0.396 OA
HETATM   14  H   UNL     1      62.391   5.817   2.222  1.00  0.00     0.209 HD
ENDBRANCH  12  13
ENDBRANCH  10  12
TORSDOF 2
ENDMDL
MODEL 8
REMARK VINA RESULT:      -4.1      3.546      4.278
REMARK  2 active torsions:
REMARK  status: ('A' for Active; 'I' for Inactive)
REMARK    1  A    between atoms: C_10  and  C_12 
REMARK    2  A    between atoms: C_12  and  O_13 
ROOT
HETATM    1  C   UNL     1      62.349  10.127   3.588  1.00  0.00     0.067 A 
HETATM    2  S   UNL     1      62.960  11.108   5.705  1.00  0.00     0.068 SA
HETATM    3  C   UNL     1      63.188   9.131   4.341  1.00  0.00     0.067 A 
HETATM    4  N   UNL     1      62.156  11.273   4.258  1.00  0.00    -0.310 N 
ATOM      5  HN  UNL     1      61.625  12.084   3.944  1.00  0.00     0.176 HD
HETATM    6  N   UNL     1      63.588   9.577   5.542  1.00  0.00    -0.310 N 
ATOM      7  HN  UNL     1      64.163   9.076   6.219  1.00  0.00     0.176 HD
HETATM    8  C   UNL     1      61.839   9.825   2.303  1.00  0.00     0.041 A 
HETATM    9  C   UNL     1      63.490   7.869   3.780  1.00  0.00     0.033 A 
HETATM   10  C   UNL     1      62.160   8.553   1.776  1.00  0.00    -0.033 A 
HETATM   11  C   UNL     1      62.957   7.618   2.500  1.00  0.00     0.012 A 
ENDROOT
BRANCH  10  12
HETATM   12  C   UNL     1      61.634   8.167   0.412  1.00  0.00     0.203 C 
BRANCH  12  13
HETATM   13  O   UNL     1      60.215   8.199   0.406  1.00  0.00    -0.396 OA
HETATM   14  H   UNL     1      59.906   8.963   0.917  1.00  0.00     0.209 HD
ENDBRANCH  12  13
ENDBRANCH  10  12
TORSDOF 2
ENDMDL
MODEL 9
REMARK VINA RESULT:      -4.0      3.839      4.462
REMARK  2 active torsions:
REMARK  status: ('A' for Active; 'I' for Inactive)
REMARK    1  A    between atoms: C_10  and  C_12 
REMARK    2  A    between atoms: C_12  and  O_13 
ROOT
HETATM    1  C   UNL     1      64.480   8.180   5.542  1.00  0.00     0.067 A 
HETATM    2  S   UNL     1      66.211   7.262   6.947  1.00  0.00     0.068 SA
HETATM    3  C   UNL     1      63.974   6.889   6.126  1.00  0.00     0.067 A 
HETATM    4  N   UNL     1      65.725   8.488   5.935  1.00  0.00    -0.310 N 
ATOM      5  HN  UNL     1      66.266   9.310   5.665  1.00  0.00     0.176 HD
HETATM    6  N   UNL     1      64.864   6.287   6.929  1.00  0.00    -0.310 N 
ATOM      7  HN  UNL     1      64.740   5.407   7.429  1.00  0.00     0.176 HD
HETATM    8  C   UNL     1      63.672   8.951   4.672  1.00  0.00     0.041 A 
HETATM    9  C   UNL     1      62.679   6.413   5.816  1.00  0.00     0.033 A 
HETATM   10  C   UNL     1      62.383   8.444   4.387  1.00  0.00    -0.033 A 
HETATM   11  C   UNL     1      61.917   7.219   4.948  1.00  0.00     0.012 A 
ENDROOT
BRANCH  10  12
HETATM   12  C   UNL     1      61.470   9.229   3.474  1.00  0.00     0.203 C 
BRANCH  12  13
HETATM   13  O   UNL     1      61.325  10.559   3.948  1.00  0.00    -0.396 OA
HETATM   14  H   UNL     1      60.589  10.989   3.487  1.00  0.00     0.209 HD
ENDBRANCH  12  13
ENDBRANCH  10  12
TORSDOF 2
ENDMDL
