MODEL 1
REMARK VINA RESULT:      -5.2      0.000      0.000
REMARK  2 active torsions:
REMARK  status: ('A' for Active; 'I' for Inactive)
REMARK    1  A    between atoms: C_4  and  C_7 
REMARK    2  A    between atoms: C_7  and  O_8 
ROOT
HETATM    1  N   UNL     1      63.296   9.272   4.826  1.00  0.00    -0.342 N 
ATOM      2  HN  UNL     1      63.822   8.710   5.495  1.00  0.00     0.167 HD
HETATM    3  N   UNL     1      62.161  10.928   3.882  1.00  0.00    -0.342 N 
HETATM    4  C   UNL     1      62.852  10.502   4.992  1.00  0.00     0.106 A 
HETATM    5  C   UNL     1      62.901   8.905   3.557  1.00  0.00     0.060 A 
HETATM    6  C   UNL     1      62.186   9.926   2.946  1.00  0.00     0.060 A 
HETATM    7  C   UNL     1      63.124   7.712   2.852  1.00  0.00     0.032 A 
HETATM    8  C   UNL     1      61.663   9.831   1.653  1.00  0.00     0.032 A 
HETATM    9  C   UNL     1      61.895   8.636   0.965  1.00  0.00     0.002 A 
HETATM   10  C   UNL     1      62.615   7.592   1.552  1.00  0.00     0.002 A 
HETATM   11  H   UNL     1      61.724  11.804   3.776  1.00  0.00     0.167 HD
ENDROOT
BRANCH   4  12
HETATM   12  C   UNL     1      63.042  11.375   6.185  1.00  0.00     0.240 C 
BRANCH  12  13
HETATM   13  O   UNL     1      64.435  11.504   6.443  1.00  0.00    -0.393 OA
HETATM   14  H   UNL     1      64.585  11.539   7.400  1.00  0.00     0.209 HD
ENDBRANCH  12  13
ENDBRANCH   4  12
TORSDOF 2
ENDMDL
MODEL 2
REMARK VINA RESULT:      -4.8      1.343      1.930
REMARK  2 active torsions:
REMARK  status: ('A' for Active; 'I' for Inactive)
REMARK    1  A    between atoms: C_4  and  C_7 
REMARK    2  A    between atoms: C_7  and  O_8 
ROOT
HETATM    1  N   UNL     1      64.329   9.086   5.399  1.00  0.00    -0.342 N 
ATOM      2  HN  UNL     1      65.009   9.108   6.160  1.00  0.00     0.167 HD
HETATM    3  N   UNL     1      62.640   9.599   4.054  1.00  0.00    -0.342 N 
HETATM    4  C   UNL     1      63.384   9.972   5.149  1.00  0.00     0.106 A 
HETATM    5  C   UNL     1      64.205   8.127   4.417  1.00  0.00     0.060 A 
HETATM    6  C   UNL     1      63.152   8.425   3.563  1.00  0.00     0.060 A 
HETATM    7  C   UNL     1      64.966   6.970   4.185  1.00  0.00     0.032 A 
HETATM    8  C   UNL     1      62.796   7.626   2.473  1.00  0.00     0.032 A 
HETATM    9  C   UNL     1      63.565   6.478   2.256  1.00  0.00     0.002 A 
HETATM   10  C   UNL     1      64.634   6.153   3.096  1.00  0.00     0.002 A 
HETATM   11  H   UNL     1      61.872  10.092   3.685  1.00  0.00     0.167 HD
ENDROOT
BRANCH   4  12
HETATM   12  C   UNL     1      63.107  11.230   5.899  1.00  0.00     0.240 C 
BRANCH  12  13
HETATM   13  O   UNL     1      64.309  11.669   6.520  1.00  0.00    -0.393 OA
HETATM   14  H   UNL     1      64.101  12.088   7.369  1.00  0.00     0.209 HD
ENDBRANCH  12  13
ENDBRANCH   4  12
TORSDOF 2
ENDMDL
MODEL 3
REMARK VINA RESULT:      -4.7      2.044      3.041
REMARK  2 active torsions:
REMARK  status: ('A' for Active; 'I' for Inactive)
REMARK    1  A    between atoms: C_4  and  C_7 
REMARK    2  A    between atoms: C_7  and  O_8 
ROOT
HETATM    1  N   UNL     1      63.386   9.026   5.509  1.00  0.00    -0.342 N 
ATOM      2  HN  UNL     1      63.513   9.430   6.438  1.00  0.00     0.167 HD
HETATM    3  N   UNL     1      63.415   7.626   3.787  1.00  0.00    -0.342 N 
HETATM    4  C   UNL     1      63.710   7.809   5.118  1.00  0.00     0.106 A 
HETATM    5  C   UNL     1      62.840   9.637   4.401  1.00  0.00     0.060 A 
HETATM    6  C   UNL     1      62.849   8.780   3.308  1.00  0.00     0.060 A 
HETATM    7  C   UNL     1      62.304  10.926   4.253  1.00  0.00     0.032 A 
HETATM    8  C   UNL     1      62.354   9.134   2.050  1.00  0.00     0.032 A 
HETATM    9  C   UNL     1      61.823  10.422   1.921  1.00  0.00     0.002 A 
HETATM   10  C   UNL     1      61.796  11.305   3.003  1.00  0.00     0.002 A 
HETATM   11  H   UNL     1      63.581   6.807   3.267  1.00  0.00     0.167 HD
ENDROOT
BRANCH   4  12
HETATM   12  C   UNL     1      64.309   6.725   5.948  1.00  0.00     0.240 C 
BRANCH  12  13
HETATM   13  O   UNL     1      64.378   7.166   7.299  1.00  0.00    -0.393 OA
HETATM   14  H   UNL     1      64.747   6.460   7.851  1.00  0.00     0.209 HD
ENDBRANCH  12  13
ENDBRANCH   4  12
TORSDOF 2
ENDMDL
MODEL 4
REMARK VINA RESULT:      -4.7      2.051      2.989
REMARK  2 active torsions:
REMARK  status: ('A' for Active; 'I' for Inactive)
REMARK    1  A    between atoms: C_4  and  C_7 
REMARK    2  A    between atoms: C_7  and  O_8 
ROOT
HETATM    1  N   UNL     1      63.461   7.613   3.787  1.00  0.00    -0.342 N 
ATOM      2  HN  UNL     1      63.605   6.777   3.219  1.00  0.00     0.167 HD
HETATM    3  N   UNL     1      63.421   9.035   5.490  1.00  0.00    -0.342 N 
HETATM    4  C   UNL     1      63.794   7.786   5.050  1.00  0.00     0.106 A 
HETATM    5  C   UNL     1      62.878   8.798   3.393  1.00  0.00     0.060 A 
HETATM    6  C   UNL     1      62.839   9.704   4.444  1.00  0.00     0.060 A 
HETATM    7  C   UNL     1      62.362   9.179   2.144  1.00  0.00     0.032 A 
HETATM    8  C   UNL     1      62.304  10.990   4.330  1.00  0.00     0.032 A 
HETATM    9  C   UNL     1      61.795  11.353   3.079  1.00  0.00     0.002 A 
HETATM   10  C   UNL     1      61.823  10.465   2.001  1.00  0.00     0.002 A 
HETATM   11  H   UNL     1      63.549   9.388   6.400  1.00  0.00     0.167 HD
ENDROOT
BRANCH   4  12
HETATM   12  C   UNL     1      64.490   6.813   5.941  1.00  0.00     0.240 C 
BRANCH  12  13
HETATM   13  O   UNL     1      64.241   7.170   7.295  1.00  0.00    -0.393 OA
HETATM   14  H   UNL     1      63.381   6.819   7.570  1.00  0.00     0.209 HD
ENDBRANCH  12  13
ENDBRANCH   4  12
TORSDOF 2
ENDMDL
MODEL 5
REMARK VINA RESULT:      -4.6      2.257      2.940
REMARK  2 active torsions:
REMARK  status: ('A' for Active; 'I' for Inactive)
REMARK    1  A    between atoms: C_4  and  C_7 
REMARK    2  A    between atoms: C_7  and  O_8 
ROOT
HETATM    1  N   UNL     1      64.756   7.565   4.394  1.00  0.00    -0.342 N 
ATOM      2  HN  UNL     1      65.104   6.704   3.970  1.00  0.00     0.167 HD
HETATM    3  N   UNL     1      64.475   9.287   5.765  1.00  0.00    -0.342 N 
HETATM    4  C   UNL     1      65.209   8.159   5.480  1.00  0.00     0.106 A 
HETATM    5  C   UNL     1      63.713   8.350   3.952  1.00  0.00     0.060 A 
HETATM    6  C   UNL     1      63.517   9.435   4.796  1.00  0.00     0.060 A 
HETATM    7  C   UNL     1      62.888   8.204   2.825  1.00  0.00     0.032 A 
HETATM    8  C   UNL     1      62.527  10.400   4.590  1.00  0.00     0.032 A 
HETATM    9  C   UNL     1      61.715  10.240   3.463  1.00  0.00     0.002 A 
HETATM   10  C   UNL     1      61.891   9.161   2.592  1.00  0.00     0.002 A 
HETATM   11  H   UNL     1      64.615   9.886   6.534  1.00  0.00     0.167 HD
ENDROOT
BRANCH   4  12
HETATM   12  C   UNL     1      66.359   7.732   6.328  1.00  0.00     0.240 C 
BRANCH  12  13
HETATM   13  O   UNL     1      66.876   8.870   7.007  1.00  0.00    -0.393 OA
HETATM   14  H   UNL     1      66.395   8.997   7.839  1.00  0.00     0.209 HD
ENDBRANCH  12  13
ENDBRANCH   4  12
TORSDOF 2
ENDMDL
MODEL 6
REMARK VINA RESULT:      -4.1      2.677      3.741
REMARK  2 active torsions:
REMARK  status: ('A' for Active; 'I' for Inactive)
REMARK    1  A    between atoms: C_4  and  C_7 
REMARK    2  A    between atoms: C_7  and  O_8 
ROOT
HETATM    1  N   UNL     1      64.011   9.575   5.416  1.00  0.00    -0.342 N 
ATOM      2  HN  UNL     1      64.076  10.276   6.154  1.00  0.00     0.167 HD
HETATM    3  N   UNL     1      63.329   8.417   3.650  1.00  0.00    -0.342 N 
HETATM    4  C   UNL     1      63.120   9.520   4.445  1.00  0.00     0.106 A 
HETATM    5  C   UNL     1      64.835   8.487   5.222  1.00  0.00     0.060 A 
HETATM    6  C   UNL     1      64.426   7.745   4.122  1.00  0.00     0.060 A 
HETATM    7  C   UNL     1      65.965   8.072   5.945  1.00  0.00     0.032 A 
HETATM    8  C   UNL     1      65.080   6.588   3.690  1.00  0.00     0.032 A 
HETATM    9  C   UNL     1      66.204   6.188   4.421  1.00  0.00     0.002 A 
HETATM   10  C   UNL     1      66.642   6.917   5.530  1.00  0.00     0.002 A 
HETATM   11  H   UNL     1      62.783   8.156   2.873  1.00  0.00     0.167 HD
ENDROOT
BRANCH   4  12
HETATM   12  C   UNL     1      62.017  10.487   4.178  1.00  0.00     0.240 C 
BRANCH  12  13
HETATM   13  O   UNL     1      62.322  11.720   4.818  1.00  0.00    -0.393 OA
HETATM   14  H   UNL     1      63.167  11.642   5.286  1.00  0.00     0.209 HD
ENDBRANCH  12  13
ENDBRANCH   4  12
TORSDOF 2
ENDMDL
MODEL 7
REMARK VINA RESULT:      -4.0      3.128      4.600
REMARK  2 active torsions:
REMARK  status: ('A' for Active; 'I' for Inactive)
REMARK    1  A    between atoms: C_4  and  C_7 
REMARK    2  A    between atoms: C_7  and  O_8 
ROOT
HETATM    1  N   UNL     1      60.924   9.211   2.589  1.00  0.00    -0.342 N 
ATOM      2  HN  UNL     1      60.255   9.971   2.712  1.00  0.00     0.167 HD
HETATM    3  N   UNL     1      61.948   7.392   1.835  1.00  0.00    -0.342 N 
HETATM    4  C   UNL     1      60.892   8.259   1.677  1.00  0.00     0.106 A 
HETATM    5  C   UNL     1      62.053   8.963   3.341  1.00  0.00     0.060 A 
HETATM    6  C   UNL     1      62.710   7.827   2.888  1.00  0.00     0.060 A 
HETATM    7  C   UNL     1      62.588   9.675   4.426  1.00  0.00     0.032 A 
HETATM    8  C   UNL     1      63.887   7.340   3.463  1.00  0.00     0.032 A 
HETATM    9  C   UNL     1      64.407   8.061   4.543  1.00  0.00     0.002 A 
HETATM   10  C   UNL     1      63.770   9.211   5.018  1.00  0.00     0.002 A 
HETATM   11  H   UNL     1      62.126   6.596   1.284  1.00  0.00     0.167 HD
ENDROOT
BRANCH   4  12
HETATM   12  C   UNL     1      59.886   8.087   0.589  1.00  0.00     0.240 C 
BRANCH  12  13
HETATM   13  O   UNL     1      58.628   8.568   1.046  1.00  0.00    -0.393 OA
HETATM   14  H   UNL     1      58.764   9.347   1.608  1.00  0.00     0.209 HD
ENDBRANCH  12  13
ENDBRANCH   4  12
TORSDOF 2
ENDMDL
MODEL 8
REMARK VINA RESULT:      -4.0     11.743     12.467
REMARK  2 active torsions:
REMARK  status: ('A' for Active; 'I' for Inactive)
REMARK    1  A    between atoms: C_4  and  C_7 
REMARK    2  A    between atoms: C_7  and  O_8 
ROOT
HETATM    1  N   UNL     1      59.014   1.602  10.426  1.00  0.00    -0.342 N 
ATOM      2  HN  UNL     1      59.309   1.113   9.580  1.00  0.00     0.167 HD
HETATM    3  N   UNL     1      58.328   3.177  11.831  1.00  0.00    -0.342 N 
HETATM    4  C   UNL     1      58.627   2.859  10.527  1.00  0.00     0.106 A 
HETATM    5  C   UNL     1      58.936   1.088  11.703  1.00  0.00     0.060 A 
HETATM    6  C   UNL     1      58.510   2.058  12.602  1.00  0.00     0.060 A 
HETATM    7  C   UNL     1      59.205  -0.207  12.172  1.00  0.00     0.032 A 
HETATM    8  C   UNL     1      58.338   1.816  13.967  1.00  0.00     0.032 A 
HETATM    9  C   UNL     1      58.611   0.521  14.418  1.00  0.00     0.002 A 
HETATM   10  C   UNL     1      59.036  -0.477  13.537  1.00  0.00     0.002 A 
HETATM   11  H   UNL     1      58.033   4.058  12.156  1.00  0.00     0.167 HD
ENDROOT
BRANCH   4  12
HETATM   12  C   UNL     1      58.498   3.853   9.423  1.00  0.00     0.240 C 
BRANCH  12  13
HETATM   13  O   UNL     1      58.691   5.158   9.956  1.00  0.00    -0.393 OA
HETATM   14  H   UNL     1      57.853   5.644   9.936  1.00  0.00     0.209 HD
ENDBRANCH  12  13
ENDBRANCH   4  12
TORSDOF 2
ENDMDL
MODEL 9
REMARK VINA RESULT:      -4.0      5.468      6.661
REMARK  2 active torsions:
REMARK  status: ('A' for Active; 'I' for Inactive)
REMARK    1  A    between atoms: C_4  and  C_7 
REMARK    2  A    between atoms: C_7  and  O_8 
ROOT
HETATM    1  N   UNL     1      66.131   6.371   5.267  1.00  0.00    -0.342 N 
ATOM      2  HN  UNL     1      66.109   5.945   4.340  1.00  0.00     0.167 HD
HETATM    3  N   UNL     1      65.821   7.768   6.964  1.00  0.00    -0.342 N 
HETATM    4  C   UNL     1      65.551   7.494   5.643  1.00  0.00     0.106 A 
HETATM    5  C   UNL     1      66.774   5.894   6.389  1.00  0.00     0.060 A 
HETATM    6  C   UNL     1      66.596   6.754   7.465  1.00  0.00     0.060 A 
HETATM    7  C   UNL     1      67.527   4.723   6.569  1.00  0.00     0.032 A 
HETATM    8  C   UNL     1      67.135   6.520   8.733  1.00  0.00     0.032 A 
HETATM    9  C   UNL     1      67.882   5.348   8.895  1.00  0.00     0.002 A 
HETATM   10  C   UNL     1      68.075   4.461   7.832  1.00  0.00     0.002 A 
HETATM   11  H   UNL     1      65.510   8.557   7.463  1.00  0.00     0.167 HD
ENDROOT
BRANCH   4  12
HETATM   12  C   UNL     1      64.697   8.390   4.811  1.00  0.00     0.240 C 
BRANCH  12  13
HETATM   13  O   UNL     1      64.564   9.642   5.473  1.00  0.00    -0.393 OA
HETATM   14  H   UNL     1      63.742   9.651   5.986  1.00  0.00     0.209 HD
ENDBRANCH  12  13
ENDBRANCH   4  12
TORSDOF 2
ENDMDL
