MODEL 1
REMARK VINA RESULT:      -3.6      0.000      0.000
REMARK  2 active torsions:
REMARK  status: ('A' for Active; 'I' for Inactive)
REMARK    1  A    between atoms: C_3  and  C_7 
REMARK    2  A    between atoms: C_7  and  O_8 
ROOT
HETATM    1  N   UNL     1      64.145   9.116   5.346  1.00  0.00    -0.361 N 
ATOM      2  HN  UNL     1      64.838   9.123   6.094  1.00  0.00     0.165 HD
HETATM    3  C   UNL     1      63.246  10.056   5.135  1.00  0.00     0.074 A 
HETATM    4  S   UNL     1      62.210   9.800   3.785  1.00  0.00    -0.085 SA
HETATM    5  C   UNL     1      64.005   8.120   4.399  1.00  0.00     0.096 A 
HETATM    6  C   UNL     1      63.010   8.320   3.466  1.00  0.00     0.068 A 
ENDROOT
BRANCH   3   7
HETATM    7  C   UNL     1      63.095  11.280   5.986  1.00  0.00     0.229 C 
BRANCH   7   8
HETATM    8  O   UNL     1      64.376  11.626   6.503  1.00  0.00    -0.394 OA
HETATM    9  H   UNL     1      64.306  11.794   7.456  1.00  0.00     0.209 HD
ENDBRANCH   7   8
ENDBRANCH   3   7
TORSDOF 2
ENDMDL
MODEL 2
REMARK VINA RESULT:      -3.2      1.718      2.472
REMARK  2 active torsions:
REMARK  status: ('A' for Active; 'I' for Inactive)
REMARK    1  A    between atoms: C_3  and  C_7 
REMARK    2  A    between atoms: C_7  and  O_8 
ROOT
HETATM    1  N   UNL     1      63.600  10.317   5.651  1.00  0.00    -0.361 N 
ATOM      2  HN  UNL     1      64.090  10.652   6.480  1.00  0.00     0.165 HD
HETATM    3  C   UNL     1      63.860   9.191   5.017  1.00  0.00     0.074 A 
HETATM    4  S   UNL     1      62.862   8.862   3.654  1.00  0.00    -0.085 SA
HETATM    5  C   UNL     1      62.561  10.975   5.020  1.00  0.00     0.096 A 
HETATM    6  C   UNL     1      62.031  10.334   3.921  1.00  0.00     0.068 A 
ENDROOT
BRANCH   3   7
HETATM    7  C   UNL     1      64.942   8.235   5.415  1.00  0.00     0.229 C 
BRANCH   7   8
HETATM    8  O   UNL     1      65.897   8.942   6.200  1.00  0.00    -0.394 OA
HETATM    9  H   UNL     1      66.521   8.312   6.595  1.00  0.00     0.209 HD
ENDBRANCH   7   8
ENDBRANCH   3   7
TORSDOF 2
ENDMDL
MODEL 3
REMARK VINA RESULT:      -3.2      2.555      2.806
REMARK  2 active torsions:
REMARK  status: ('A' for Active; 'I' for Inactive)
REMARK    1  A    between atoms: C_3  and  C_7 
REMARK    2  A    between atoms: C_7  and  O_8 
ROOT
HETATM    1  N   UNL     1      61.641  10.526   2.375  1.00  0.00    -0.361 N 
ATOM      2  HN  UNL     1      61.195  11.437   2.264  1.00  0.00     0.165 HD
HETATM    3  C   UNL     1      62.249  10.105   3.467  1.00  0.00     0.074 A 
HETATM    4  S   UNL     1      62.898   8.514   3.386  1.00  0.00    -0.085 SA
HETATM    5  C   UNL     1      61.699   9.544   1.405  1.00  0.00     0.096 A 
HETATM    6  C   UNL     1      62.338   8.380   1.774  1.00  0.00     0.068 A 
ENDROOT
BRANCH   3   7
HETATM    7  C   UNL     1      62.394  10.923   4.715  1.00  0.00     0.229 C 
BRANCH   7   8
HETATM    8  O   UNL     1      62.083  12.276   4.401  1.00  0.00    -0.394 OA
HETATM    9  H   UNL     1      62.501  12.517   3.558  1.00  0.00     0.209 HD
ENDBRANCH   7   8
ENDBRANCH   3   7
TORSDOF 2
ENDMDL
MODEL 4
REMARK VINA RESULT:      -3.1     13.159     13.252
REMARK  2 active torsions:
REMARK  status: ('A' for Active; 'I' for Inactive)
REMARK    1  A    between atoms: C_3  and  C_7 
REMARK    2  A    between atoms: C_7  and  O_8 
ROOT
HETATM    1  N   UNL     1      57.634   1.725  14.497  1.00  0.00    -0.361 N 
ATOM      2  HN  UNL     1      57.407   1.513  15.468  1.00  0.00     0.165 HD
HETATM    3  C   UNL     1      56.774   2.137  13.587  1.00  0.00     0.074 A 
HETATM    4  S   UNL     1      57.435   2.441  12.028  1.00  0.00    -0.085 SA
HETATM    5  C   UNL     1      58.892   1.624  13.933  1.00  0.00     0.096 A 
HETATM    6  C   UNL     1      58.978   1.976  12.604  1.00  0.00     0.068 A 
ENDROOT
BRANCH   3   7
HETATM    7  C   UNL     1      55.312   2.338  13.846  1.00  0.00     0.229 C 
BRANCH   7   8
HETATM    8  O   UNL     1      55.171   3.243  14.936  1.00  0.00    -0.394 OA
HETATM    9  H   UNL     1      54.291   3.652  14.906  1.00  0.00     0.209 HD
ENDBRANCH   7   8
ENDBRANCH   3   7
TORSDOF 2
ENDMDL
MODEL 5
REMARK VINA RESULT:      -3.0      4.702      5.255
REMARK  2 active torsions:
REMARK  status: ('A' for Active; 'I' for Inactive)
REMARK    1  A    between atoms: C_3  and  C_7 
REMARK    2  A    between atoms: C_7  and  O_8 
ROOT
HETATM    1  N   UNL     1      67.216   7.512   8.047  1.00  0.00    -0.361 N 
ATOM      2  HN  UNL     1      67.742   8.382   8.122  1.00  0.00     0.165 HD
HETATM    3  C   UNL     1      66.498   7.144   7.004  1.00  0.00     0.074 A 
HETATM    4  S   UNL     1      65.729   5.611   7.138  1.00  0.00    -0.085 SA
HETATM    5  C   UNL     1      67.147   6.536   9.024  1.00  0.00     0.096 A 
HETATM    6  C   UNL     1      66.389   5.429   8.707  1.00  0.00     0.068 A 
ENDROOT
BRANCH   3   7
HETATM    7  C   UNL     1      66.332   7.972   5.766  1.00  0.00     0.229 C 
BRANCH   7   8
HETATM    8  O   UNL     1      65.623   9.157   6.113  1.00  0.00    -0.394 OA
HETATM    9  H   UNL     1      64.957   9.347   5.433  1.00  0.00     0.209 HD
ENDBRANCH   7   8
ENDBRANCH   3   7
TORSDOF 2
ENDMDL
MODEL 6
REMARK VINA RESULT:      -2.9      3.441      4.190
REMARK  2 active torsions:
REMARK  status: ('A' for Active; 'I' for Inactive)
REMARK    1  A    between atoms: C_3  and  C_7 
REMARK    2  A    between atoms: C_7  and  O_8 
ROOT
HETATM    1  N   UNL     1      61.675  10.889   3.018  1.00  0.00    -0.361 N 
ATOM      2  HN  UNL     1      61.148  11.576   2.479  1.00  0.00     0.165 HD
HETATM    3  C   UNL     1      62.010   9.685   2.595  1.00  0.00     0.074 A 
HETATM    4  S   UNL     1      62.921   8.738   3.706  1.00  0.00    -0.085 SA
HETATM    5  C   UNL     1      62.149  11.077   4.303  1.00  0.00     0.096 A 
HETATM    6  C   UNL     1      62.852  10.020   4.838  1.00  0.00     0.068 A 
ENDROOT
BRANCH   3   7
HETATM    7  C   UNL     1      61.642   9.136   1.251  1.00  0.00     0.229 C 
BRANCH   7   8
HETATM    8  O   UNL     1      60.241   8.885   1.238  1.00  0.00    -0.394 OA
HETATM    9  H   UNL     1      60.083   7.929   1.201  1.00  0.00     0.209 HD
ENDBRANCH   7   8
ENDBRANCH   3   7
TORSDOF 2
ENDMDL
MODEL 7
REMARK VINA RESULT:      -2.8     11.487     11.674
REMARK  2 active torsions:
REMARK  status: ('A' for Active; 'I' for Inactive)
REMARK    1  A    between atoms: C_3  and  C_7 
REMARK    2  A    between atoms: C_7  and  O_8 
ROOT
HETATM    1  N   UNL     1      59.038   2.268  12.531  1.00  0.00    -0.361 N 
ATOM      2  HN  UNL     1      60.040   2.323  12.351  1.00  0.00     0.165 HD
HETATM    3  C   UNL     1      58.092   2.606  11.678  1.00  0.00     0.074 A 
HETATM    4  S   UNL     1      56.479   2.392  12.237  1.00  0.00    -0.085 SA
HETATM    5  C   UNL     1      58.463   1.827  13.708  1.00  0.00     0.096 A 
HETATM    6  C   UNL     1      57.086   1.819  13.732  1.00  0.00     0.068 A 
ENDROOT
BRANCH   3   7
HETATM    7  C   UNL     1      58.355   3.147  10.305  1.00  0.00     0.229 C 
BRANCH   7   8
HETATM    8  O   UNL     1      58.654   4.534  10.421  1.00  0.00    -0.394 OA
HETATM    9  H   UNL     1      58.764   4.917   9.536  1.00  0.00     0.209 HD
ENDBRANCH   7   8
ENDBRANCH   3   7
TORSDOF 2
ENDMDL
MODEL 8
REMARK VINA RESULT:      -2.7      4.606      5.063
REMARK  2 active torsions:
REMARK  status: ('A' for Active; 'I' for Inactive)
REMARK    1  A    between atoms: C_3  and  C_7 
REMARK    2  A    between atoms: C_7  and  O_8 
ROOT
HETATM    1  N   UNL     1      65.060   7.257   7.055  1.00  0.00    -0.361 N 
ATOM      2  HN  UNL     1      64.264   7.355   7.684  1.00  0.00     0.165 HD
HETATM    3  C   UNL     1      66.266   6.859   7.409  1.00  0.00     0.074 A 
HETATM    4  S   UNL     1      67.419   6.764   6.135  1.00  0.00    -0.085 SA
HETATM    5  C   UNL     1      65.040   7.521   5.698  1.00  0.00     0.096 A 
HETATM    6  C   UNL     1      66.227   7.306   5.032  1.00  0.00     0.068 A 
ENDROOT
BRANCH   3   7
HETATM    7  C   UNL     1      66.654   6.507   8.813  1.00  0.00     0.229 C 
BRANCH   7   8
HETATM    8  O   UNL     1      68.075   6.523   8.902  1.00  0.00    -0.394 OA
HETATM    9  H   UNL     1      68.345   7.041   9.677  1.00  0.00     0.209 HD
ENDBRANCH   7   8
ENDBRANCH   3   7
TORSDOF 2
ENDMDL
MODEL 9
REMARK VINA RESULT:      -2.7      2.041      2.457
REMARK  2 active torsions:
REMARK  status: ('A' for Active; 'I' for Inactive)
REMARK    1  A    between atoms: C_3  and  C_7 
REMARK    2  A    between atoms: C_7  and  O_8 
ROOT
HETATM    1  N   UNL     1      62.920   8.456   2.829  1.00  0.00    -0.361 N 
ATOM      2  HN  UNL     1      63.372   7.542   2.819  1.00  0.00     0.165 HD
HETATM    3  C   UNL     1      62.782   9.224   3.891  1.00  0.00     0.074 A 
HETATM    4  S   UNL     1      61.995  10.730   3.618  1.00  0.00    -0.085 SA
HETATM    5  C   UNL     1      62.359   9.079   1.730  1.00  0.00     0.096 A 
HETATM    6  C   UNL     1      61.813  10.322   1.965  1.00  0.00     0.068 A 
ENDROOT
BRANCH   3   7
HETATM    7  C   UNL     1      63.258   8.853   5.263  1.00  0.00     0.229 C 
BRANCH   7   8
HETATM    8  O   UNL     1      64.522   9.472   5.480  1.00  0.00    -0.394 OA
HETATM    9  H   UNL     1      65.215   8.793   5.500  1.00  0.00     0.209 HD
ENDBRANCH   7   8
ENDBRANCH   3   7
TORSDOF 2
ENDMDL
