MODEL 1
REMARK VINA RESULT:      -5.5      0.000      0.000
REMARK  2 active torsions:
REMARK  status: ('A' for Active; 'I' for Inactive)
REMARK    1  A    between atoms: C_2  and  C_6 
REMARK    2  A    between atoms: C_3  and  C_7 
ROOT
HETATM    1  S   UNL     1      64.645   8.343   5.373  1.00  0.00    -0.083 SA
HETATM    2  C   UNL     1      64.383   6.996   6.393  1.00  0.00     0.082 A 
HETATM    3  C   UNL     1      63.034   8.324   4.772  1.00  0.00     0.016 A 
HETATM    4  C   UNL     1      63.097   6.516   6.262  1.00  0.00     0.027 A 
HETATM    5  C   UNL     1      62.325   7.275   5.334  1.00  0.00     0.021 A 
ENDROOT
BRANCH   3   6
HETATM    6  C   UNL     1      62.579   9.318   3.780  1.00  0.00    -0.019 A 
HETATM    7  C   UNL     1      62.285  10.632   4.183  1.00  0.00     0.013 A 
HETATM    8  C   UNL     1      61.867  11.594   3.259  1.00  0.00     0.001 A 
HETATM    9  C   UNL     1      61.735  11.260   1.915  1.00  0.00     0.000 A 
HETATM   10  C   UNL     1      62.021   9.964   1.494  1.00  0.00     0.001 A 
HETATM   11  C   UNL     1      62.442   9.003   2.418  1.00  0.00     0.013 A 
ENDBRANCH   3   6
BRANCH   2  12
HETATM   12  C   UNL     1      65.458   6.525   7.234  1.00  0.00     0.216 C 
HETATM   13  O   UNL     1      65.620   5.420   7.732  1.00  0.00    -0.643 OA
HETATM   14  O   UNL     1      66.378   7.495   7.453  1.00  0.00    -0.643 OA
ENDBRANCH   2  12
TORSDOF 2
ENDMDL
MODEL 2
REMARK VINA RESULT:      -5.2      1.517      2.161
REMARK  2 active torsions:
REMARK  status: ('A' for Active; 'I' for Inactive)
REMARK    1  A    between atoms: C_2  and  C_6 
REMARK    2  A    between atoms: C_3  and  C_7 
ROOT
HETATM    1  S   UNL     1      64.285   6.774   6.570  1.00  0.00    -0.083 SA
HETATM    2  C   UNL     1      65.847   6.757   7.263  1.00  0.00     0.082 A 
HETATM    3  C   UNL     1      64.709   7.965   5.404  1.00  0.00     0.016 A 
HETATM    4  C   UNL     1      66.678   7.665   6.639  1.00  0.00     0.027 A 
HETATM    5  C   UNL     1      66.026   8.357   5.576  1.00  0.00     0.021 A 
ENDROOT
BRANCH   3   6
HETATM    6  C   UNL     1      63.724   8.451   4.418  1.00  0.00    -0.019 A 
HETATM    7  C   UNL     1      63.028   9.650   4.650  1.00  0.00     0.013 A 
HETATM    8  C   UNL     1      62.102  10.138   3.723  1.00  0.00     0.001 A 
HETATM    9  C   UNL     1      61.853   9.435   2.548  1.00  0.00     0.000 A 
HETATM   10  C   UNL     1      62.531   8.245   2.299  1.00  0.00     0.001 A 
HETATM   11  C   UNL     1      63.460   7.760   3.224  1.00  0.00     0.013 A 
ENDBRANCH   3   6
BRANCH   2  12
HETATM   12  C   UNL     1      66.127   5.857   8.357  1.00  0.00     0.216 C 
HETATM   13  O   UNL     1      66.056   4.637   8.389  1.00  0.00    -0.643 OA
HETATM   14  O   UNL     1      66.521   6.531   9.464  1.00  0.00    -0.643 OA
ENDBRANCH   2  12
TORSDOF 2
ENDMDL
MODEL 3
REMARK VINA RESULT:      -4.7      3.090      5.920
REMARK  2 active torsions:
REMARK  status: ('A' for Active; 'I' for Inactive)
REMARK    1  A    between atoms: C_2  and  C_6 
REMARK    2  A    between atoms: C_3  and  C_7 
ROOT
HETATM    1  S   UNL     1      63.260   9.400   4.977  1.00  0.00    -0.083 SA
HETATM    2  C   UNL     1      62.551   9.717   3.455  1.00  0.00     0.082 A 
HETATM    3  C   UNL     1      63.721   7.803   4.538  1.00  0.00     0.016 A 
HETATM    4  C   UNL     1      62.635   8.616   2.628  1.00  0.00     0.027 A 
HETATM    5  C   UNL     1      63.304   7.520   3.249  1.00  0.00     0.021 A 
ENDROOT
BRANCH   3   6
HETATM    6  C   UNL     1      64.438   6.929   5.488  1.00  0.00    -0.019 A 
HETATM    7  C   UNL     1      65.537   7.424   6.209  1.00  0.00     0.013 A 
HETATM    8  C   UNL     1      66.222   6.619   7.126  1.00  0.00     0.001 A 
HETATM    9  C   UNL     1      65.820   5.304   7.336  1.00  0.00     0.000 A 
HETATM   10  C   UNL     1      64.734   4.792   6.631  1.00  0.00     0.001 A 
HETATM   11  C   UNL     1      64.047   5.599   5.718  1.00  0.00     0.013 A 
ENDBRANCH   3   6
BRANCH   2  12
HETATM   12  C   UNL     1      61.973  11.016   3.200  1.00  0.00     0.216 C 
HETATM   13  O   UNL     1      61.615  11.505   2.138  1.00  0.00    -0.643 OA
HETATM   14  O   UNL     1      61.835  11.731   4.342  1.00  0.00    -0.643 OA
ENDBRANCH   2  12
TORSDOF 2
ENDMDL
MODEL 4
REMARK VINA RESULT:      -4.5      3.452      5.962
REMARK  2 active torsions:
REMARK  status: ('A' for Active; 'I' for Inactive)
REMARK    1  A    between atoms: C_2  and  C_6 
REMARK    2  A    between atoms: C_3  and  C_7 
ROOT
HETATM    1  S   UNL     1      63.574   7.611   3.316  1.00  0.00    -0.083 SA
HETATM    2  C   UNL     1      62.396   8.837   3.141  1.00  0.00     0.082 A 
HETATM    3  C   UNL     1      64.224   8.306   4.749  1.00  0.00     0.016 A 
HETATM    4  C   UNL     1      62.508   9.781   4.141  1.00  0.00     0.027 A 
HETATM    5  C   UNL     1      63.555   9.477   5.060  1.00  0.00     0.021 A 
ENDROOT
BRANCH   3   6
HETATM    6  C   UNL     1      65.353   7.673   5.457  1.00  0.00    -0.019 A 
HETATM    7  C   UNL     1      65.124   6.933   6.630  1.00  0.00     0.013 A 
HETATM    8  C   UNL     1      66.177   6.311   7.309  1.00  0.00     0.001 A 
HETATM    9  C   UNL     1      67.478   6.420   6.829  1.00  0.00     0.000 A 
HETATM   10  C   UNL     1      67.728   7.149   5.670  1.00  0.00     0.001 A 
HETATM   11  C   UNL     1      66.674   7.766   4.988  1.00  0.00     0.013 A 
ENDBRANCH   3   6
BRANCH   2  12
HETATM   12  C   UNL     1      61.462   8.770   2.041  1.00  0.00     0.216 C 
HETATM   13  O   UNL     1      60.383   8.199   1.980  1.00  0.00    -0.643 OA
HETATM   14  O   UNL     1      61.910   9.464   0.968  1.00  0.00    -0.643 OA
ENDBRANCH   2  12
TORSDOF 2
ENDMDL
MODEL 5
REMARK VINA RESULT:      -4.5      1.895      2.307
REMARK  2 active torsions:
REMARK  status: ('A' for Active; 'I' for Inactive)
REMARK    1  A    between atoms: C_2  and  C_6 
REMARK    2  A    between atoms: C_3  and  C_7 
ROOT
HETATM    1  S   UNL     1      63.093   5.952   5.400  1.00  0.00    -0.083 SA
HETATM    2  C   UNL     1      64.357   5.310   6.355  1.00  0.00     0.082 A 
HETATM    3  C   UNL     1      63.803   7.517   5.339  1.00  0.00     0.016 A 
HETATM    4  C   UNL     1      65.296   6.276   6.651  1.00  0.00     0.027 A 
HETATM    5  C   UNL     1      64.978   7.539   6.070  1.00  0.00     0.021 A 
ENDROOT
BRANCH   3   6
HETATM    6  C   UNL     1      63.155   8.619   4.601  1.00  0.00    -0.019 A 
HETATM    7  C   UNL     1      63.006   9.879   5.205  1.00  0.00     0.013 A 
HETATM    8  C   UNL     1      62.410  10.943   4.520  1.00  0.00     0.001 A 
HETATM    9  C   UNL     1      61.949  10.764   3.220  1.00  0.00     0.000 A 
HETATM   10  C   UNL     1      62.086   9.524   2.602  1.00  0.00     0.001 A 
HETATM   11  C   UNL     1      62.686   8.462   3.286  1.00  0.00     0.013 A 
ENDBRANCH   3   6
BRANCH   2  12
HETATM   12  C   UNL     1      64.322   3.917   6.732  1.00  0.00     0.216 C 
HETATM   13  O   UNL     1      63.678   3.373   7.618  1.00  0.00    -0.643 OA
HETATM   14  O   UNL     1      65.137   3.170   5.948  1.00  0.00    -0.643 OA
ENDBRANCH   2  12
TORSDOF 2
ENDMDL
MODEL 6
REMARK VINA RESULT:      -4.3      3.234      5.915
REMARK  2 active torsions:
REMARK  status: ('A' for Active; 'I' for Inactive)
REMARK    1  A    between atoms: C_2  and  C_6 
REMARK    2  A    between atoms: C_3  and  C_7 
ROOT
HETATM    1  S   UNL     1      62.760   9.183   4.915  1.00  0.00    -0.083 SA
HETATM    2  C   UNL     1      62.283   9.916   3.447  1.00  0.00     0.082 A 
HETATM    3  C   UNL     1      62.954   7.635   4.192  1.00  0.00     0.016 A 
HETATM    4  C   UNL     1      62.241   8.994   2.422  1.00  0.00     0.027 A 
HETATM    5  C   UNL     1      62.624   7.688   2.848  1.00  0.00     0.021 A 
ENDROOT
BRANCH   3   6
HETATM    6  C   UNL     1      63.392   6.471   4.988  1.00  0.00    -0.019 A 
HETATM    7  C   UNL     1      62.441   5.647   5.613  1.00  0.00     0.013 A 
HETATM    8  C   UNL     1      62.831   4.530   6.359  1.00  0.00     0.001 A 
HETATM    9  C   UNL     1      64.181   4.219   6.495  1.00  0.00     0.000 A 
HETATM   10  C   UNL     1      65.140   5.022   5.884  1.00  0.00     0.001 A 
HETATM   11  C   UNL     1      64.748   6.136   5.135  1.00  0.00     0.013 A 
ENDBRANCH   3   6
BRANCH   2  12
HETATM   12  C   UNL     1      61.990  11.329   3.424  1.00  0.00     0.216 C 
HETATM   13  O   UNL     1      61.802  12.093   4.360  1.00  0.00    -0.643 OA
HETATM   14  O   UNL     1      61.937  11.804   2.156  1.00  0.00    -0.643 OA
ENDBRANCH   2  12
TORSDOF 2
ENDMDL
MODEL 7
REMARK VINA RESULT:      -4.2      1.746      2.287
REMARK  2 active torsions:
REMARK  status: ('A' for Active; 'I' for Inactive)
REMARK    1  A    between atoms: C_2  and  C_6 
REMARK    2  A    between atoms: C_3  and  C_7 
ROOT
HETATM    1  S   UNL     1      64.426   7.834   4.213  1.00  0.00    -0.083 SA
HETATM    2  C   UNL     1      64.609   7.384   5.851  1.00  0.00     0.082 A 
HETATM    3  C   UNL     1      62.722   7.603   4.239  1.00  0.00     0.016 A 
HETATM    4  C   UNL     1      63.397   7.034   6.409  1.00  0.00     0.027 A 
HETATM    5  C   UNL     1      62.317   7.158   5.486  1.00  0.00     0.021 A 
ENDROOT
BRANCH   3   6
HETATM    6  C   UNL     1      61.901   7.849   3.037  1.00  0.00    -0.019 A 
HETATM    7  C   UNL     1      62.444   8.547   1.944  1.00  0.00     0.013 A 
HETATM    8  C   UNL     1      61.691   8.778   0.789  1.00  0.00     0.001 A 
HETATM    9  C   UNL     1      60.380   8.318   0.706  1.00  0.00     0.000 A 
HETATM   10  C   UNL     1      59.823   7.625   1.777  1.00  0.00     0.001 A 
HETATM   11  C   UNL     1      60.578   7.390   2.930  1.00  0.00     0.013 A 
ENDBRANCH   3   6
BRANCH   2  12
HETATM   12  C   UNL     1      65.922   7.413   6.451  1.00  0.00     0.216 C 
HETATM   13  O   UNL     1      66.536   8.361   6.919  1.00  0.00    -0.643 OA
HETATM   14  O   UNL     1      66.487   6.182   6.468  1.00  0.00    -0.643 OA
ENDBRANCH   2  12
TORSDOF 2
ENDMDL
MODEL 8
REMARK VINA RESULT:      -4.2      2.375      2.983
REMARK  2 active torsions:
REMARK  status: ('A' for Active; 'I' for Inactive)
REMARK    1  A    between atoms: C_2  and  C_6 
REMARK    2  A    between atoms: C_3  and  C_7 
ROOT
HETATM    1  S   UNL     1      62.852   6.856   4.401  1.00  0.00    -0.083 SA
HETATM    2  C   UNL     1      63.977   7.832   5.239  1.00  0.00     0.082 A 
HETATM    3  C   UNL     1      62.055   8.208   3.698  1.00  0.00     0.016 A 
HETATM    4  C   UNL     1      63.737   9.172   5.014  1.00  0.00     0.027 A 
HETATM    5  C   UNL     1      62.636   9.387   4.133  1.00  0.00     0.021 A 
ENDROOT
BRANCH   3   6
HETATM    6  C   UNL     1      60.906   8.027   2.790  1.00  0.00    -0.019 A 
HETATM    7  C   UNL     1      59.693   7.517   3.281  1.00  0.00     0.013 A 
HETATM    8  C   UNL     1      58.585   7.352   2.443  1.00  0.00     0.001 A 
HETATM    9  C   UNL     1      58.672   7.693   1.097  1.00  0.00     0.000 A 
HETATM   10  C   UNL     1      59.865   8.200   0.589  1.00  0.00     0.001 A 
HETATM   11  C   UNL     1      60.970   8.369   1.428  1.00  0.00     0.013 A 
ENDBRANCH   3   6
BRANCH   2  12
HETATM   12  C   UNL     1      64.998   7.205   6.045  1.00  0.00     0.216 C 
HETATM   13  O   UNL     1      65.153   7.239   7.257  1.00  0.00    -0.643 OA
HETATM   14  O   UNL     1      65.863   6.494   5.283  1.00  0.00    -0.643 OA
ENDBRANCH   2  12
TORSDOF 2
ENDMDL
MODEL 9
REMARK VINA RESULT:      -4.1      4.413      5.747
REMARK  2 active torsions:
REMARK  status: ('A' for Active; 'I' for Inactive)
REMARK    1  A    between atoms: C_2  and  C_6 
REMARK    2  A    between atoms: C_3  and  C_7 
ROOT
HETATM    1  S   UNL     1      61.015   6.531   2.507  1.00  0.00    -0.083 SA
HETATM    2  C   UNL     1      60.388   6.294   0.934  1.00  0.00     0.082 A 
HETATM    3  C   UNL     1      61.316   8.203   2.241  1.00  0.00     0.016 A 
HETATM    4  C   UNL     1      60.431   7.462   0.201  1.00  0.00     0.027 A 
HETATM    5  C   UNL     1      60.963   8.554   0.949  1.00  0.00     0.021 A 
ENDROOT
BRANCH   3   6
HETATM    6  C   UNL     1      61.895   9.051   3.301  1.00  0.00    -0.019 A 
HETATM    7  C   UNL     1      61.660  10.436   3.303  1.00  0.00     0.013 A 
HETATM    8  C   UNL     1      62.185  11.257   4.305  1.00  0.00     0.001 A 
HETATM    9  C   UNL     1      62.957  10.707   5.324  1.00  0.00     0.000 A 
HETATM   10  C   UNL     1      63.203   9.337   5.342  1.00  0.00     0.001 A 
HETATM   11  C   UNL     1      62.674   8.516   4.341  1.00  0.00     0.013 A 
ENDBRANCH   3   6
BRANCH   2  12
HETATM   12  C   UNL     1      59.908   4.988   0.552  1.00  0.00     0.216 C 
HETATM   13  O   UNL     1      60.513   3.925   0.511  1.00  0.00    -0.643 OA
HETATM   14  O   UNL     1      58.598   5.021   0.211  1.00  0.00    -0.643 OA
ENDBRANCH   2  12
TORSDOF 2
ENDMDL
