MODEL 1
REMARK VINA RESULT:      -4.7      0.000      0.000
REMARK  1 active torsions:
REMARK  status: ('A' for Active; 'I' for Inactive)
REMARK    1  A    between atoms: C_8  and  N_10 
ROOT
HETATM    1  C   UNL     1      62.093   9.600   3.059  1.00  0.00     0.061 A 
HETATM    2  C   UNL     1      62.203  10.526   4.091  1.00  0.00     0.060 A 
HETATM    3  N   UNL     1      61.237   9.830   2.042  1.00  0.00    -0.363 N 
ATOM      4  HN  UNL     1      60.652  10.665   2.010  1.00  0.00     0.165 HD
HETATM    5  N   UNL     1      62.838   7.508   2.114  1.00  0.00    -0.363 N 
ATOM      6  HN  UNL     1      63.410   6.664   2.137  1.00  0.00     0.165 HD
HETATM    7  C   UNL     1      62.898   8.434   3.092  1.00  0.00     0.059 A 
HETATM    8  C   UNL     1      63.060  10.327   5.177  1.00  0.00     0.028 A 
HETATM    9  C   UNL     1      63.781   8.260   4.148  1.00  0.00     0.034 A 
HETATM   10  C   UNL     1      63.884   9.205   5.171  1.00  0.00     0.031 A 
HETATM   11  C   UNL     1      61.197   8.895   1.067  1.00  0.00     0.105 A 
HETATM   12  C   UNL     1      61.979   7.760   1.104  1.00  0.00     0.105 A 
ENDROOT
BRANCH   8  13
HETATM   13  N   UNL     1      63.257  11.341   6.119  1.00  0.00    -0.399 N 
HETATM   14  H   UNL     1      62.579  11.507   6.814  1.00  0.00     0.156 HD
HETATM   15  H   UNL     1      64.073  11.891   6.085  1.00  0.00     0.156 HD
ENDBRANCH   8  13
TORSDOF 1
ENDMDL
MODEL 2
REMARK VINA RESULT:      -4.7      1.576      3.422
REMARK  1 active torsions:
REMARK  status: ('A' for Active; 'I' for Inactive)
REMARK    1  A    between atoms: C_8  and  N_10 
ROOT
HETATM    1  C   UNL     1      63.142   8.654   3.710  1.00  0.00     0.061 A 
HETATM    2  C   UNL     1      62.447   9.446   2.802  1.00  0.00     0.060 A 
HETATM    3  N   UNL     1      63.572   7.430   3.339  1.00  0.00    -0.363 N 
ATOM      4  HN  UNL     1      63.391   7.057   2.407  1.00  0.00     0.165 HD
HETATM    5  N   UNL     1      64.073   8.437   5.925  1.00  0.00    -0.363 N 
ATOM      6  HN  UNL     1      64.254   8.793   6.864  1.00  0.00     0.165 HD
HETATM    7  C   UNL     1      63.397   9.159   5.009  1.00  0.00     0.059 A 
HETATM    8  C   UNL     1      61.963  10.712   3.142  1.00  0.00     0.028 A 
HETATM    9  C   UNL     1      62.957  10.435   5.330  1.00  0.00     0.034 A 
HETATM   10  C   UNL     1      62.267  11.219   4.402  1.00  0.00     0.031 A 
HETATM   11  C   UNL     1      64.255   6.726   4.267  1.00  0.00     0.105 A 
HETATM   12  C   UNL     1      64.499   7.218   5.532  1.00  0.00     0.105 A 
ENDROOT
BRANCH   8  13
HETATM   13  N   UNL     1      61.401  11.540   2.166  1.00  0.00    -0.399 N 
HETATM   14  H   UNL     1      61.835  11.631   1.287  1.00  0.00     0.156 HD
HETATM   15  H   UNL     1      60.571  12.034   2.359  1.00  0.00     0.156 HD
ENDBRANCH   8  13
TORSDOF 1
ENDMDL
MODEL 3
REMARK VINA RESULT:      -4.6      0.885      2.125
REMARK  1 active torsions:
REMARK  status: ('A' for Active; 'I' for Inactive)
REMARK    1  A    between atoms: C_8  and  N_10 
ROOT
HETATM    1  C   UNL     1      62.775   8.853   3.319  1.00  0.00     0.061 A 
HETATM    2  C   UNL     1      63.080   9.306   4.599  1.00  0.00     0.060 A 
HETATM    3  N   UNL     1      63.092   7.591   2.963  1.00  0.00    -0.363 N 
ATOM      4  HN  UNL     1      63.566   6.954   3.605  1.00  0.00     0.165 HD
HETATM    5  N   UNL     1      61.796   9.338   1.168  1.00  0.00    -0.363 N 
ATOM      6  HN  UNL     1      61.331   9.967   0.513  1.00  0.00     0.165 HD
HETATM    7  C   UNL     1      62.122   9.728   2.417  1.00  0.00     0.059 A 
HETATM    8  C   UNL     1      62.791  10.610   5.012  1.00  0.00     0.028 A 
HETATM    9  C   UNL     1      61.793  11.007   2.844  1.00  0.00     0.034 A 
HETATM   10  C   UNL     1      62.100  11.442   4.135  1.00  0.00     0.031 A 
HETATM   11  C   UNL     1      62.750   7.216   1.712  1.00  0.00     0.105 A 
HETATM   12  C   UNL     1      62.117   8.071   0.834  1.00  0.00     0.105 A 
ENDROOT
BRANCH   8  13
HETATM   13  N   UNL     1      62.973  10.987   6.345  1.00  0.00    -0.399 N 
HETATM   14  H   UNL     1      63.474  11.806   6.561  1.00  0.00     0.156 HD
HETATM   15  H   UNL     1      62.602  10.431   7.068  1.00  0.00     0.156 HD
ENDBRANCH   8  13
TORSDOF 1
ENDMDL
MODEL 4
REMARK VINA RESULT:      -4.3      1.565      3.301
REMARK  1 active torsions:
REMARK  status: ('A' for Active; 'I' for Inactive)
REMARK    1  A    between atoms: C_8  and  N_10 
ROOT
HETATM    1  C   UNL     1      62.624   9.141   4.264  1.00  0.00     0.061 A 
HETATM    2  C   UNL     1      62.239  10.408   3.834  1.00  0.00     0.060 A 
HETATM    3  N   UNL     1      62.892   8.931   5.570  1.00  0.00    -0.363 N 
ATOM      4  HN  UNL     1      62.833   9.681   6.259  1.00  0.00     0.165 HD
HETATM    5  N   UNL     1      63.073   6.844   3.681  1.00  0.00    -0.363 N 
ATOM      6  HN  UNL     1      63.146   6.086   3.002  1.00  0.00     0.165 HD
HETATM    7  C   UNL     1      62.713   8.092   3.318  1.00  0.00     0.059 A 
HETATM    8  C   UNL     1      61.969  10.684   2.491  1.00  0.00     0.028 A 
HETATM    9  C   UNL     1      62.400   8.356   1.992  1.00  0.00     0.034 A 
HETATM   10  C   UNL     1      62.007   9.632   1.580  1.00  0.00     0.031 A 
HETATM   11  C   UNL     1      63.242   7.673   5.915  1.00  0.00     0.105 A 
HETATM   12  C   UNL     1      63.332   6.653   4.992  1.00  0.00     0.105 A 
ENDROOT
BRANCH   8  13
HETATM   13  N   UNL     1      61.443  11.923   2.115  1.00  0.00    -0.399 N 
HETATM   14  H   UNL     1      61.895  12.462   1.427  1.00  0.00     0.156 HD
HETATM   15  H   UNL     1      60.620  12.257   2.541  1.00  0.00     0.156 HD
ENDBRANCH   8  13
TORSDOF 1
ENDMDL
MODEL 5
REMARK VINA RESULT:      -4.3      1.407      4.185
REMARK  1 active torsions:
REMARK  status: ('A' for Active; 'I' for Inactive)
REMARK    1  A    between atoms: C_8  and  N_10 
ROOT
HETATM    1  C   UNL     1      62.703   8.903   3.197  1.00  0.00     0.061 A 
HETATM    2  C   UNL     1      63.118   7.621   2.853  1.00  0.00     0.060 A 
HETATM    3  N   UNL     1      62.947   9.375   4.438  1.00  0.00    -0.363 N 
ATOM      4  HN  UNL     1      63.420   8.811   5.144  1.00  0.00     0.165 HD
HETATM    5  N   UNL     1      61.625  10.948   2.506  1.00  0.00    -0.363 N 
ATOM      6  HN  UNL     1      61.143  11.521   1.813  1.00  0.00     0.165 HD
HETATM    7  C   UNL     1      62.041   9.696   2.228  1.00  0.00     0.059 A 
HETATM    8  C   UNL     1      62.873   7.078   1.589  1.00  0.00     0.028 A 
HETATM    9  C   UNL     1      61.840   9.172   0.959  1.00  0.00     0.034 A 
HETATM   10  C   UNL     1      62.271   7.886   0.629  1.00  0.00     0.031 A 
HETATM   11  C   UNL     1      62.531  10.634   4.695  1.00  0.00     0.105 A 
HETATM   12  C   UNL     1      61.884  11.403   3.750  1.00  0.00     0.105 A 
ENDROOT
BRANCH   8  13
HETATM   13  N   UNL     1      63.430   5.848   1.227  1.00  0.00    -0.399 N 
HETATM   14  H   UNL     1      64.094   5.417   1.812  1.00  0.00     0.156 HD
HETATM   15  H   UNL     1      63.160   5.414   0.385  1.00  0.00     0.156 HD
ENDBRANCH   8  13
TORSDOF 1
ENDMDL
MODEL 6
REMARK VINA RESULT:      -4.1      2.164      4.077
REMARK  1 active torsions:
REMARK  status: ('A' for Active; 'I' for Inactive)
REMARK    1  A    between atoms: C_8  and  N_10 
ROOT
HETATM    1  C   UNL     1      64.402   8.487   4.963  1.00  0.00     0.061 A 
HETATM    2  C   UNL     1      63.330   9.345   4.733  1.00  0.00     0.060 A 
HETATM    3  N   UNL     1      65.228   8.714   6.005  1.00  0.00    -0.363 N 
ATOM      4  HN  UNL     1      65.099   9.510   6.631  1.00  0.00     0.165 HD
HETATM    5  N   UNL     1      65.612   6.515   4.282  1.00  0.00    -0.363 N 
ATOM      6  HN  UNL     1      65.760   5.720   3.659  1.00  0.00     0.165 HD
HETATM    7  C   UNL     1      64.595   7.381   4.100  1.00  0.00     0.059 A 
HETATM    8  C   UNL     1      62.457   9.166   3.656  1.00  0.00     0.028 A 
HETATM    9  C   UNL     1      63.700   7.179   3.059  1.00  0.00     0.034 A 
HETATM   10  C   UNL     1      62.625   8.045   2.848  1.00  0.00     0.031 A 
HETATM   11  C   UNL     1      66.235   7.831   6.176  1.00  0.00     0.105 A 
HETATM   12  C   UNL     1      66.424   6.756   5.333  1.00  0.00     0.105 A 
ENDROOT
BRANCH   8  13
HETATM   13  N   UNL     1      61.308   9.954   3.539  1.00  0.00    -0.399 N 
HETATM   14  H   UNL     1      60.892  10.341   4.343  1.00  0.00     0.156 HD
HETATM   15  H   UNL     1      60.915  10.120   2.652  1.00  0.00     0.156 HD
ENDBRANCH   8  13
TORSDOF 1
ENDMDL
MODEL 7
REMARK VINA RESULT:      -3.8      5.130      6.628
REMARK  1 active torsions:
REMARK  status: ('A' for Active; 'I' for Inactive)
REMARK    1  A    between atoms: C_8  and  N_10 
ROOT
HETATM    1  C   UNL     1      66.114   5.825   6.390  1.00  0.00     0.061 A 
HETATM    2  C   UNL     1      66.451   4.619   6.995  1.00  0.00     0.060 A 
HETATM    3  N   UNL     1      65.553   5.825   5.163  1.00  0.00    -0.363 N 
ATOM      4  HN  UNL     1      65.377   4.959   4.652  1.00  0.00     0.165 HD
HETATM    5  N   UNL     1      66.042   8.232   6.549  1.00  0.00    -0.363 N 
ATOM      6  HN  UNL     1      66.221   9.106   7.043  1.00  0.00     0.165 HD
HETATM    7  C   UNL     1      66.356   7.035   7.085  1.00  0.00     0.059 A 
HETATM    8  C   UNL     1      67.051   4.565   8.256  1.00  0.00     0.028 A 
HETATM    9  C   UNL     1      66.910   6.978   8.356  1.00  0.00     0.034 A 
HETATM   10  C   UNL     1      67.234   5.757   8.952  1.00  0.00     0.031 A 
HETATM   11  C   UNL     1      65.237   7.031   4.646  1.00  0.00     0.105 A 
HETATM   12  C   UNL     1      65.477   8.209   5.323  1.00  0.00     0.105 A 
ENDROOT
BRANCH   8  13
HETATM   13  N   UNL     1      67.240   3.338   8.898  1.00  0.00    -0.399 N 
HETATM   14  H   UNL     1      67.865   3.269   9.656  1.00  0.00     0.156 HD
HETATM   15  H   UNL     1      66.749   2.542   8.591  1.00  0.00     0.156 HD
ENDBRANCH   8  13
TORSDOF 1
ENDMDL
MODEL 8
REMARK VINA RESULT:      -3.7      2.499      4.964
REMARK  1 active torsions:
REMARK  status: ('A' for Active; 'I' for Inactive)
REMARK    1  A    between atoms: C_8  and  N_10 
ROOT
HETATM    1  C   UNL     1      65.082   7.123   4.401  1.00  0.00     0.061 A 
HETATM    2  C   UNL     1      64.237   6.916   3.315  1.00  0.00     0.060 A 
HETATM    3  N   UNL     1      66.086   6.254   4.642  1.00  0.00    -0.363 N 
ATOM      4  HN  UNL     1      66.241   5.435   4.054  1.00  0.00     0.165 HD
HETATM    5  N   UNL     1      65.669   8.506   6.288  1.00  0.00    -0.363 N 
ATOM      6  HN  UNL     1      65.521   9.316   6.891  1.00  0.00     0.165 HD
HETATM    7  C   UNL     1      64.876   8.254   5.228  1.00  0.00     0.059 A 
HETATM    8  C   UNL     1      63.171   7.774   3.033  1.00  0.00     0.028 A 
HETATM    9  C   UNL     1      63.845   9.130   4.919  1.00  0.00     0.034 A 
HETATM   10  C   UNL     1      63.012   8.912   3.820  1.00  0.00     0.031 A 
HETATM   11  C   UNL     1      66.875   6.528   5.703  1.00  0.00     0.105 A 
HETATM   12  C   UNL     1      66.671   7.628   6.509  1.00  0.00     0.105 A 
ENDROOT
BRANCH   8  13
HETATM   13  N   UNL     1      62.435   7.625   1.854  1.00  0.00    -0.399 N 
HETATM   14  H   UNL     1      61.909   8.379   1.502  1.00  0.00     0.156 HD
HETATM   15  H   UNL     1      62.442   6.764   1.376  1.00  0.00     0.156 HD
ENDBRANCH   8  13
TORSDOF 1
ENDMDL
MODEL 9
REMARK VINA RESULT:      -3.7      1.829      2.619
REMARK  1 active torsions:
REMARK  status: ('A' for Active; 'I' for Inactive)
REMARK    1  A    between atoms: C_8  and  N_10 
ROOT
HETATM    1  C   UNL     1      61.249   8.297   3.212  1.00  0.00     0.061 A 
HETATM    2  C   UNL     1      61.641   9.296   4.098  1.00  0.00     0.060 A 
HETATM    3  N   UNL     1      60.881   7.088   3.687  1.00  0.00    -0.363 N 
ATOM      4  HN  UNL     1      60.893   6.877   4.685  1.00  0.00     0.165 HD
HETATM    5  N   UNL     1      60.855   7.648   0.923  1.00  0.00    -0.363 N 
ATOM      6  HN  UNL     1      60.847   7.841  -0.079  1.00  0.00     0.165 HD
HETATM    7  C   UNL     1      61.233   8.576   1.824  1.00  0.00     0.059 A 
HETATM    8  C   UNL     1      62.049  10.558   3.658  1.00  0.00     0.028 A 
HETATM    9  C   UNL     1      61.595   9.844   1.392  1.00  0.00     0.034 A 
HETATM   10  C   UNL     1      61.976  10.837   2.296  1.00  0.00     0.031 A 
HETATM   11  C   UNL     1      60.498   6.174   2.770  1.00  0.00     0.105 A 
HETATM   12  C   UNL     1      60.486   6.447   1.418  1.00  0.00     0.105 A 
ENDROOT
BRANCH   8  13
HETATM   13  N   UNL     1      62.293  11.583   4.576  1.00  0.00    -0.399 N 
HETATM   14  H   UNL     1      61.976  12.497   4.390  1.00  0.00     0.156 HD
HETATM   15  H   UNL     1      62.782  11.392   5.408  1.00  0.00     0.156 HD
ENDBRANCH   8  13
TORSDOF 1
ENDMDL
