MODEL 1
REMARK VINA RESULT:      -5.0      0.000      0.000
REMARK  2 active torsions:
REMARK  status: ('A' for Active; 'I' for Inactive)
REMARK    1  A    between atoms: C_1  and  C_8 
REMARK    2  A    between atoms: C_4  and  C_7 
ROOT
HETATM    1  C   UNK     1      63.339   9.705   4.886  1.00  0.00     0.117 A 
HETATM    2  N   UNK     1      64.454   9.114   5.488  1.00  0.00    -0.344 N 
ATOM      3  HN  UNK     1      64.977   9.520   6.264  1.00  0.00     0.167 HD
HETATM    4  C   UNK     1      64.738   7.960   4.913  1.00  0.00     0.091 A 
HETATM    5  S   UNK     1      63.680   7.521   3.625  1.00  0.00    -0.080 SA
HETATM    6  C   UNK     1      62.792   8.960   3.859  1.00  0.00     0.088 A 
ENDROOT
BRANCH   4   7
HETATM    7  C   UNK     1      65.853   7.147   5.349  1.00  0.00     0.038 A 
HETATM    8  S   UNK     1      66.651   7.367   6.857  1.00  0.00    -0.099 SA
HETATM    9  C   UNK     1      67.736   6.084   6.564  1.00  0.00     0.050 A 
HETATM   10  C   UNK     1      67.512   5.490   5.343  1.00  0.00     0.008 A 
HETATM   11  C   UNK     1      66.426   6.099   4.647  1.00  0.00     0.022 A 
ENDBRANCH   4   7
BRANCH   1  12
HETATM   12  C   UNK     1      62.803  10.997   5.302  1.00  0.00     0.227 C 
HETATM   13  O   UNK     1      62.067  11.705   4.626  1.00  0.00    -0.643 OA
HETATM   14  O   UNK     1      63.183  11.405   6.532  1.00  0.00    -0.643 OA
ENDBRANCH   1  12
TORSDOF 2
ENDMDL
MODEL 2
REMARK VINA RESULT:      -4.7      3.223      5.461
REMARK  2 active torsions:
REMARK  status: ('A' for Active; 'I' for Inactive)
REMARK    1  A    between atoms: C_1  and  C_8 
REMARK    2  A    between atoms: C_4  and  C_7 
ROOT
HETATM    1  C   UNK     1      66.216   6.776   7.314  1.00  0.00     0.117 A 
HETATM    2  N   UNK     1      65.026   7.304   6.804  1.00  0.00    -0.344 N 
ATOM      3  HN  UNK     1      64.138   7.319   7.305  1.00  0.00     0.167 HD
HETATM    4  C   UNK     1      65.211   7.778   5.586  1.00  0.00     0.091 A 
HETATM    5  S   UNK     1      66.821   7.622   4.992  1.00  0.00    -0.080 SA
HETATM    6  C   UNK     1      67.293   6.879   6.454  1.00  0.00     0.088 A 
ENDROOT
BRANCH   4   7
HETATM    7  C   UNK     1      64.131   8.379   4.833  1.00  0.00     0.038 A 
HETATM    8  S   UNK     1      63.463   7.676   3.412  1.00  0.00    -0.099 SA
HETATM    9  C   UNK     1      62.341   8.944   3.212  1.00  0.00     0.050 A 
HETATM   10  C   UNK     1      62.460   9.897   4.198  1.00  0.00     0.008 A 
HETATM   11  C   UNK     1      63.488   9.569   5.132  1.00  0.00     0.022 A 
ENDBRANCH   4   7
BRANCH   1  12
HETATM   12  C   UNK     1      66.312   6.165   8.637  1.00  0.00     0.227 C 
HETATM   13  O   UNK     1      66.551   6.769   9.676  1.00  0.00    -0.643 OA
HETATM   14  O   UNK     1      66.124   4.828   8.664  1.00  0.00    -0.643 OA
ENDBRANCH   1  12
TORSDOF 2
ENDMDL
MODEL 3
REMARK VINA RESULT:      -4.4      2.834      5.178
REMARK  2 active torsions:
REMARK  status: ('A' for Active; 'I' for Inactive)
REMARK    1  A    between atoms: C_1  and  C_8 
REMARK    2  A    between atoms: C_4  and  C_7 
ROOT
HETATM    1  C   UNK     1      65.168   7.434   5.835  1.00  0.00     0.117 A 
HETATM    2  N   UNK     1      64.596   8.496   5.128  1.00  0.00    -0.344 N 
ATOM      3  HN  UNK     1      64.865   9.474   5.233  1.00  0.00     0.167 HD
HETATM    4  C   UNK     1      63.662   8.058   4.304  1.00  0.00     0.091 A 
HETATM    5  S   UNK     1      63.424   6.352   4.332  1.00  0.00    -0.080 SA
HETATM    6  C   UNK     1      64.647   6.196   5.512  1.00  0.00     0.088 A 
ENDROOT
BRANCH   4   7
HETATM    7  C   UNK     1      62.913   8.960   3.456  1.00  0.00     0.038 A 
HETATM    8  S   UNK     1      62.326  10.488   3.985  1.00  0.00    -0.099 SA
HETATM    9  C   UNK     1      61.630  10.839   2.468  1.00  0.00     0.050 A 
HETATM   10  C   UNK     1      61.828   9.821   1.564  1.00  0.00     0.008 A 
HETATM   11  C   UNK     1      62.570   8.743   2.131  1.00  0.00     0.022 A 
ENDBRANCH   4   7
BRANCH   1  12
HETATM   12  C   UNK     1      66.220   7.618   6.831  1.00  0.00     0.227 C 
HETATM   13  O   UNK     1      66.625   6.751   7.595  1.00  0.00    -0.643 OA
HETATM   14  O   UNK     1      66.750   8.859   6.880  1.00  0.00    -0.643 OA
ENDBRANCH   1  12
TORSDOF 2
ENDMDL
MODEL 4
REMARK VINA RESULT:      -4.3      3.511      6.111
REMARK  2 active torsions:
REMARK  status: ('A' for Active; 'I' for Inactive)
REMARK    1  A    between atoms: C_1  and  C_8 
REMARK    2  A    between atoms: C_4  and  C_7 
ROOT
HETATM    1  C   UNK     1      62.168   9.743   4.040  1.00  0.00     0.117 A 
HETATM    2  N   UNK     1      60.884   9.445   3.574  1.00  0.00    -0.344 N 
ATOM      3  HN  UNK     1      60.078  10.064   3.660  1.00  0.00     0.167 HD
HETATM    4  C   UNK     1      60.859   8.253   3.006  1.00  0.00     0.091 A 
HETATM    5  S   UNK     1      62.373   7.430   2.998  1.00  0.00    -0.080 SA
HETATM    6  C   UNK     1      63.100   8.752   3.797  1.00  0.00     0.088 A 
ENDROOT
BRANCH   4   7
HETATM    7  C   UNK     1      59.644   7.705   2.443  1.00  0.00     0.038 A 
HETATM    8  S   UNK     1      59.427   7.417   0.761  1.00  0.00    -0.099 SA
HETATM    9  C   UNK     1      57.847   6.813   0.983  1.00  0.00     0.050 A 
HETATM   10  C   UNK     1      57.473   6.827   2.308  1.00  0.00     0.008 A 
HETATM   11  C   UNK     1      58.509   7.336   3.147  1.00  0.00     0.022 A 
ENDBRANCH   4   7
BRANCH   1  12
HETATM   12  C   UNK     1      62.495  10.989   4.728  1.00  0.00     0.227 C 
HETATM   13  O   UNK     1      62.071  12.095   4.420  1.00  0.00    -0.643 OA
HETATM   14  O   UNK     1      63.341  10.860   5.773  1.00  0.00    -0.643 OA
ENDBRANCH   1  12
TORSDOF 2
ENDMDL
MODEL 5
REMARK VINA RESULT:      -4.3      3.786      5.930
REMARK  2 active torsions:
REMARK  status: ('A' for Active; 'I' for Inactive)
REMARK    1  A    between atoms: C_1  and  C_8 
REMARK    2  A    between atoms: C_4  and  C_7 
ROOT
HETATM    1  C   UNK     1      61.786   9.765   3.434  1.00  0.00     0.117 A 
HETATM    2  N   UNK     1      60.547   9.119   3.462  1.00  0.00    -0.344 N 
ATOM      3  HN  UNK     1      59.645   9.593   3.418  1.00  0.00     0.167 HD
HETATM    4  C   UNK     1      60.705   7.812   3.555  1.00  0.00     0.091 A 
HETATM    5  S   UNK     1      62.346   7.289   3.608  1.00  0.00    -0.080 SA
HETATM    6  C   UNK     1      62.870   8.910   3.495  1.00  0.00     0.088 A 
ENDROOT
BRANCH   4   7
HETATM    7  C   UNK     1      59.573   6.911   3.605  1.00  0.00     0.038 A 
HETATM    8  S   UNK     1      59.662   5.253   3.158  1.00  0.00    -0.099 SA
HETATM    9  C   UNK     1      58.014   4.984   3.506  1.00  0.00     0.050 A 
HETATM   10  C   UNK     1      57.390   6.127   3.951  1.00  0.00     0.008 A 
HETATM   11  C   UNK     1      58.288   7.234   4.013  1.00  0.00     0.022 A 
ENDBRANCH   4   7
BRANCH   1  12
HETATM   12  C   UNK     1      61.924  11.217   3.351  1.00  0.00     0.227 C 
HETATM   13  O   UNK     1      61.926  11.979   4.309  1.00  0.00    -0.643 OA
HETATM   14  O   UNK     1      62.049  11.709   2.099  1.00  0.00    -0.643 OA
ENDBRANCH   1  12
TORSDOF 2
ENDMDL
MODEL 6
REMARK VINA RESULT:      -4.2     10.046     10.202
REMARK  2 active torsions:
REMARK  status: ('A' for Active; 'I' for Inactive)
REMARK    1  A    between atoms: C_1  and  C_8 
REMARK    2  A    between atoms: C_4  and  C_7 
ROOT
HETATM    1  C   UNK     1      58.775   4.468   9.234  1.00  0.00     0.117 A 
HETATM    2  N   UNK     1      58.553   4.100  10.564  1.00  0.00    -0.344 N 
ATOM      3  HN  UNK     1      58.473   4.756  11.341  1.00  0.00     0.167 HD
HETATM    4  C   UNK     1      58.461   2.788  10.677  1.00  0.00     0.091 A 
HETATM    5  S   UNK     1      58.631   1.928   9.193  1.00  0.00    -0.080 SA
HETATM    6  C   UNK     1      58.834   3.401   8.357  1.00  0.00     0.088 A 
ENDROOT
BRANCH   4   7
HETATM    7  C   UNK     1      58.234   2.148  11.955  1.00  0.00     0.038 A 
HETATM    8  S   UNK     1      56.683   1.635  12.494  1.00  0.00    -0.099 SA
HETATM    9  C   UNK     1      57.301   1.038  13.967  1.00  0.00     0.050 A 
HETATM   10  C   UNK     1      58.661   1.222  14.067  1.00  0.00     0.008 A 
HETATM   11  C   UNK     1      59.198   1.857  12.907  1.00  0.00     0.022 A 
ENDBRANCH   4   7
BRANCH   1  12
HETATM   12  C   UNK     1      58.934   5.855   8.809  1.00  0.00     0.227 C 
HETATM   13  O   UNK     1      58.367   6.816   9.313  1.00  0.00    -0.643 OA
HETATM   14  O   UNK     1      59.778   6.041   7.770  1.00  0.00    -0.643 OA
ENDBRANCH   1  12
TORSDOF 2
ENDMDL
MODEL 7
REMARK VINA RESULT:      -4.1      2.947      3.356
REMARK  2 active torsions:
REMARK  status: ('A' for Active; 'I' for Inactive)
REMARK    1  A    between atoms: C_1  and  C_8 
REMARK    2  A    between atoms: C_4  and  C_7 
ROOT
HETATM    1  C   UNK     1      62.321   9.189   2.694  1.00  0.00     0.117 A 
HETATM    2  N   UNK     1      63.198   8.315   3.341  1.00  0.00    -0.344 N 
ATOM      3  HN  UNK     1      63.547   7.443   2.943  1.00  0.00     0.167 HD
HETATM    4  C   UNK     1      63.514   8.773   4.539  1.00  0.00     0.091 A 
HETATM    5  S   UNK     1      62.779  10.277   4.948  1.00  0.00    -0.080 SA
HETATM    6  C   UNK     1      61.999  10.314   3.430  1.00  0.00     0.088 A 
ENDROOT
BRANCH   4   7
HETATM    7  C   UNK     1      64.409   8.051   5.417  1.00  0.00     0.038 A 
HETATM    8  S   UNK     1      63.912   6.719   6.387  1.00  0.00    -0.099 SA
HETATM    9  C   UNK     1      65.475   6.502   7.034  1.00  0.00     0.050 A 
HETATM   10  C   UNK     1      66.371   7.420   6.536  1.00  0.00     0.008 A 
HETATM   11  C   UNK     1      65.757   8.308   5.603  1.00  0.00     0.022 A 
ENDBRANCH   4   7
BRANCH   1  12
HETATM   12  C   UNK     1      61.786   8.935   1.359  1.00  0.00     0.227 C 
HETATM   13  O   UNK     1      62.418   9.042   0.315  1.00  0.00    -0.643 OA
HETATM   14  O   UNK     1      60.488   8.563   1.324  1.00  0.00    -0.643 OA
ENDBRANCH   1  12
TORSDOF 2
ENDMDL
MODEL 8
REMARK VINA RESULT:      -4.1      3.287      5.503
REMARK  2 active torsions:
REMARK  status: ('A' for Active; 'I' for Inactive)
REMARK    1  A    between atoms: C_1  and  C_8 
REMARK    2  A    between atoms: C_4  and  C_7 
ROOT
HETATM    1  C   UNK     1      63.705   8.888   5.022  1.00  0.00     0.117 A 
HETATM    2  N   UNK     1      63.076   8.086   4.065  1.00  0.00    -0.344 N 
ATOM      3  HN  UNK     1      63.298   7.106   3.893  1.00  0.00     0.167 HD
HETATM    4  C   UNK     1      62.154   8.773   3.415  1.00  0.00     0.091 A 
HETATM    5  S   UNK     1      61.992  10.413   3.920  1.00  0.00    -0.080 SA
HETATM    6  C   UNK     1      63.224  10.182   5.078  1.00  0.00     0.088 A 
ENDROOT
BRANCH   4   7
HETATM    7  C   UNK     1      61.358   8.173   2.366  1.00  0.00     0.038 A 
HETATM    8  S   UNK     1      60.522   6.680   2.549  1.00  0.00    -0.099 SA
HETATM    9  C   UNK     1      59.899   6.739   0.963  1.00  0.00     0.050 A 
HETATM   10  C   UNK     1      60.312   7.865   0.289  1.00  0.00     0.008 A 
HETATM   11  C   UNK     1      61.148   8.692   1.099  1.00  0.00     0.022 A 
ENDBRANCH   4   7
BRANCH   1  12
HETATM   12  C   UNK     1      64.779   8.402   5.884  1.00  0.00     0.227 C 
HETATM   13  O   UNK     1      65.894   8.899   5.967  1.00  0.00    -0.643 OA
HETATM   14  O   UNK     1      64.472   7.312   6.620  1.00  0.00    -0.643 OA
ENDBRANCH   1  12
TORSDOF 2
ENDMDL
MODEL 9
REMARK VINA RESULT:      -3.9     13.428     13.534
REMARK  2 active torsions:
REMARK  status: ('A' for Active; 'I' for Inactive)
REMARK    1  A    between atoms: C_1  and  C_8 
REMARK    2  A    between atoms: C_4  and  C_7 
ROOT
HETATM    1  C   UNK     1      54.740   3.112  13.776  1.00  0.00     0.117 A 
HETATM    2  N   UNK     1      56.068   2.821  13.451  1.00  0.00    -0.344 N 
ATOM      3  HN  UNK     1      56.731   3.492  13.064  1.00  0.00     0.167 HD
HETATM    4  C   UNK     1      56.346   1.556  13.712  1.00  0.00     0.091 A 
HETATM    5  S   UNK     1      55.032   0.654  14.366  1.00  0.00    -0.080 SA
HETATM    6  C   UNK     1      54.039   2.040  14.296  1.00  0.00     0.088 A 
ENDROOT
BRANCH   4   7
HETATM    7  C   UNK     1      57.658   0.999  13.462  1.00  0.00     0.038 A 
HETATM    8  S   UNK     1      57.960  -0.690  13.334  1.00  0.00    -0.099 SA
HETATM    9  C   UNK     1      59.626  -0.455  13.052  1.00  0.00     0.050 A 
HETATM   10  C   UNK     1      59.965   0.879  13.057  1.00  0.00     0.008 A 
HETATM   11  C   UNK     1      58.831   1.715  13.288  1.00  0.00     0.022 A 
ENDBRANCH   4   7
BRANCH   1  12
HETATM   12  C   UNK     1      54.145   4.430  13.578  1.00  0.00     0.227 C 
HETATM   13  O   UNK     1      54.179   5.347  14.390  1.00  0.00    -0.643 OA
HETATM   14  O   UNK     1      53.511   4.600  12.398  1.00  0.00    -0.643 OA
ENDBRANCH   1  12
TORSDOF 2
ENDMDL
