MODEL 1
REMARK VINA RESULT:      -4.4      0.000      0.000
REMARK  3 active torsions:
REMARK  status: ('A' for Active; 'I' for Inactive)
REMARK    1  A    between atoms: C_1  and  C_5 
REMARK    2  A    between atoms: C_6  and  C_12 
REMARK    3  A    between atoms: C_12  and  N_13 
ROOT
HETATM    1  C   UNL     1      64.995   7.770   5.441  1.00  0.00     0.091 A 
HETATM    2  N   UNL     1      64.530   8.934   5.856  1.00  0.00    -0.351 N 
ATOM      3  HN  UNL     1      64.842   9.419   6.697  1.00  0.00     0.166 HD
HETATM    4  S   UNL     1      64.284   7.189   3.981  1.00  0.00    -0.081 SA
HETATM    5  C   UNL     1      63.552   9.407   4.982  1.00  0.00     0.042 A 
HETATM    6  C   UNL     1      63.296   8.578   3.906  1.00  0.00     0.078 A 
ENDROOT
BRANCH   1   7
HETATM    7  C   UNL     1      66.013   7.051   6.177  1.00  0.00     0.038 A 
HETATM    8  S   UNL     1      67.368   6.296   5.429  1.00  0.00    -0.099 SA
HETATM    9  C   UNL     1      67.978   5.727   6.918  1.00  0.00     0.050 A 
HETATM   10  C   UNL     1      67.182   6.096   7.975  1.00  0.00     0.008 A 
HETATM   11  C   UNL     1      66.053   6.860   7.550  1.00  0.00     0.022 A 
ENDBRANCH   1   7
BRANCH   5  12
HETATM   12  C   UNL     1      62.892  10.719   5.254  1.00  0.00     0.286 C 
BRANCH  12  13
HETATM   13  N   UNL     1      63.679  11.444   6.248  1.00  0.00    -0.074 N 
HETATM   14  H   UNL     1      63.281  11.292   7.175  1.00  0.00     0.274 HD
HETATM   15  H   UNL     1      63.664  12.441   6.031  1.00  0.00     0.274 HD
HETATM   16  H   UNL     1      64.640  11.107   6.231  1.00  0.00     0.274 HD
ENDBRANCH  12  13
ENDBRANCH   5  12
TORSDOF 3
ENDMDL
MODEL 2
REMARK VINA RESULT:      -4.4      1.955      5.145
REMARK  3 active torsions:
REMARK  status: ('A' for Active; 'I' for Inactive)
REMARK    1  A    between atoms: C_1  and  C_5 
REMARK    2  A    between atoms: C_6  and  C_12 
REMARK    3  A    between atoms: C_12  and  N_13 
ROOT
HETATM    1  C   UNL     1      63.833   8.175   5.515  1.00  0.00     0.091 A 
HETATM    2  N   UNL     1      65.093   8.304   5.887  1.00  0.00    -0.351 N 
ATOM      3  HN  UNL     1      65.663   9.135   5.731  1.00  0.00     0.166 HD
HETATM    4  S   UNL     1      63.116   6.657   5.914  1.00  0.00    -0.081 SA
HETATM    5  C   UNL     1      65.534   7.145   6.523  1.00  0.00     0.042 A 
HETATM    6  C   UNL     1      64.583   6.148   6.622  1.00  0.00     0.078 A 
ENDROOT
BRANCH   1   7
HETATM    7  C   UNL     1      63.132   9.232   4.818  1.00  0.00     0.038 A 
HETATM    8  S   UNL     1      62.459   9.047   3.244  1.00  0.00    -0.099 SA
HETATM    9  C   UNL     1      61.887  10.655   3.209  1.00  0.00     0.050 A 
HETATM   10  C   UNL     1      62.191  11.334   4.364  1.00  0.00     0.008 A 
HETATM   11  C   UNL     1      62.904  10.516   5.291  1.00  0.00     0.022 A 
ENDBRANCH   1   7
BRANCH   5  12
HETATM   12  C   UNL     1      66.936   7.073   7.037  1.00  0.00     0.286 C 
BRANCH  12  13
HETATM   13  N   UNL     1      67.815   7.770   6.103  1.00  0.00    -0.074 N 
HETATM   14  H   UNL     1      67.519   7.576   5.146  1.00  0.00     0.274 HD
HETATM   15  H   UNL     1      68.774   7.447   6.234  1.00  0.00     0.274 HD
HETATM   16  H   UNL     1      67.767   8.774   6.276  1.00  0.00     0.274 HD
ENDBRANCH  12  13
ENDBRANCH   5  12
TORSDOF 3
ENDMDL
MODEL 3
REMARK VINA RESULT:      -4.2      1.939      5.135
REMARK  3 active torsions:
REMARK  status: ('A' for Active; 'I' for Inactive)
REMARK    1  A    between atoms: C_1  and  C_5 
REMARK    2  A    between atoms: C_6  and  C_12 
REMARK    3  A    between atoms: C_12  and  N_13 
ROOT
HETATM    1  C   UNL     1      64.720   7.817   5.135  1.00  0.00     0.091 A 
HETATM    2  N   UNL     1      64.797   7.700   6.447  1.00  0.00    -0.351 N 
ATOM      3  HN  UNL     1      64.171   8.158   7.109  1.00  0.00     0.166 HD
HETATM    4  S   UNL     1      65.911   6.926   4.261  1.00  0.00    -0.081 SA
HETATM    5  C   UNL     1      65.855   6.864   6.800  1.00  0.00     0.042 A 
HETATM    6  C   UNL     1      66.566   6.355   5.730  1.00  0.00     0.078 A 
ENDROOT
BRANCH   1   7
HETATM    7  C   UNL     1      63.715   8.643   4.500  1.00  0.00     0.038 A 
HETATM    8  S   UNL     1      63.106  10.097   5.193  1.00  0.00    -0.099 SA
HETATM    9  C   UNL     1      62.047  10.375   3.884  1.00  0.00     0.050 A 
HETATM   10  C   UNL     1      62.141   9.393   2.928  1.00  0.00     0.008 A 
HETATM   11  C   UNL     1      63.103   8.398   3.280  1.00  0.00     0.022 A 
ENDBRANCH   1   7
BRANCH   5  12
HETATM   12  C   UNL     1      66.123   6.583   8.243  1.00  0.00     0.286 C 
BRANCH  12  13
HETATM   13  N   UNL     1      67.519   6.897   8.532  1.00  0.00    -0.074 N 
HETATM   14  H   UNL     1      68.111   6.122   8.234  1.00  0.00     0.274 HD
HETATM   15  H   UNL     1      67.633   7.045   9.535  1.00  0.00     0.274 HD
HETATM   16  H   UNL     1      67.787   7.743   8.030  1.00  0.00     0.274 HD
ENDBRANCH  12  13
ENDBRANCH   5  12
TORSDOF 3
ENDMDL
MODEL 4
REMARK VINA RESULT:      -3.9      1.755      1.968
REMARK  3 active torsions:
REMARK  status: ('A' for Active; 'I' for Inactive)
REMARK    1  A    between atoms: C_1  and  C_5 
REMARK    2  A    between atoms: C_6  and  C_12 
REMARK    3  A    between atoms: C_12  and  N_13 
ROOT
HETATM    1  C   UNL     1      64.241   8.039   4.992  1.00  0.00     0.091 A 
HETATM    2  N   UNL     1      63.969   9.329   4.931  1.00  0.00    -0.351 N 
ATOM      3  HN  UNL     1      64.605  10.072   5.221  1.00  0.00     0.166 HD
HETATM    4  S   UNL     1      62.977   7.009   4.430  1.00  0.00    -0.081 SA
HETATM    5  C   UNL     1      62.691   9.533   4.413  1.00  0.00     0.042 A 
HETATM    6  C   UNL     1      62.013   8.374   4.088  1.00  0.00     0.078 A 
ENDROOT
BRANCH   1   7
HETATM    7  C   UNL     1      65.502   7.549   5.507  1.00  0.00     0.038 A 
HETATM    8  S   UNL     1      65.653   6.692   6.993  1.00  0.00    -0.099 SA
HETATM    9  C   UNL     1      67.343   6.530   6.824  1.00  0.00     0.050 A 
HETATM   10  C   UNL     1      67.803   7.108   5.665  1.00  0.00     0.008 A 
HETATM   11  C   UNL     1      66.744   7.691   4.906  1.00  0.00     0.022 A 
ENDBRANCH   1   7
BRANCH   5  12
HETATM   12  C   UNL     1      62.177  10.926   4.247  1.00  0.00     0.286 C 
BRANCH  12  13
HETATM   13  N   UNL     1      61.637  11.070   2.898  1.00  0.00    -0.074 N 
HETATM   14  H   UNL     1      62.240  10.583   2.236  1.00  0.00     0.274 HD
HETATM   15  H   UNL     1      61.593  12.060   2.654  1.00  0.00     0.274 HD
HETATM   16  H   UNL     1      60.700  10.670   2.864  1.00  0.00     0.274 HD
ENDBRANCH  12  13
ENDBRANCH   5  12
TORSDOF 3
ENDMDL
MODEL 5
REMARK VINA RESULT:      -3.7      2.292      5.074
REMARK  3 active torsions:
REMARK  status: ('A' for Active; 'I' for Inactive)
REMARK    1  A    between atoms: C_1  and  C_5 
REMARK    2  A    between atoms: C_6  and  C_12 
REMARK    3  A    between atoms: C_12  and  N_13 
ROOT
HETATM    1  C   UNL     1      63.688   6.958   5.722  1.00  0.00     0.091 A 
HETATM    2  N   UNL     1      64.703   7.576   6.295  1.00  0.00    -0.351 N 
ATOM      3  HN  UNL     1      64.894   8.575   6.219  1.00  0.00     0.166 HD
HETATM    4  S   UNL     1      63.612   5.261   6.026  1.00  0.00    -0.081 SA
HETATM    5  C   UNL     1      65.479   6.671   7.018  1.00  0.00     0.042 A 
HETATM    6  C   UNL     1      65.025   5.366   6.977  1.00  0.00     0.078 A 
ENDROOT
BRANCH   1   7
HETATM    7  C   UNL     1      62.731   7.666   4.898  1.00  0.00     0.038 A 
HETATM    8  S   UNL     1      62.892   9.326   4.470  1.00  0.00    -0.099 SA
HETATM    9  C   UNL     1      61.439   9.323   3.577  1.00  0.00     0.050 A 
HETATM   10  C   UNL     1      60.829   8.092   3.590  1.00  0.00     0.008 A 
HETATM   11  C   UNL     1      61.573   7.137   4.347  1.00  0.00     0.022 A 
ENDBRANCH   1   7
BRANCH   5  12
HETATM   12  C   UNL     1      66.682   7.157   7.758  1.00  0.00     0.286 C 
BRANCH  12  13
HETATM   13  N   UNL     1      67.025   8.491   7.273  1.00  0.00    -0.074 N 
HETATM   14  H   UNL     1      66.997   8.500   6.254  1.00  0.00     0.274 HD
HETATM   15  H   UNL     1      67.964   8.736   7.590  1.00  0.00     0.274 HD
HETATM   16  H   UNL     1      66.355   9.167   7.638  1.00  0.00     0.274 HD
ENDBRANCH  12  13
ENDBRANCH   5  12
TORSDOF 3
ENDMDL
MODEL 6
REMARK VINA RESULT:      -3.6      4.330      6.032
REMARK  3 active torsions:
REMARK  status: ('A' for Active; 'I' for Inactive)
REMARK    1  A    between atoms: C_1  and  C_5 
REMARK    2  A    between atoms: C_6  and  C_12 
REMARK    3  A    between atoms: C_12  and  N_13 
ROOT
HETATM    1  C   UNL     1      61.430   8.906   2.322  1.00  0.00     0.091 A 
HETATM    2  N   UNL     1      60.196   8.443   2.398  1.00  0.00    -0.351 N 
ATOM      3  HN  UNL     1      59.603   8.503   3.225  1.00  0.00     0.166 HD
HETATM    4  S   UNL     1      62.196   8.667   0.795  1.00  0.00    -0.081 SA
HETATM    5  C   UNL     1      59.820   7.860   1.189  1.00  0.00     0.042 A 
HETATM    6  C   UNL     1      60.791   7.897   0.207  1.00  0.00     0.078 A 
ENDROOT
BRANCH   1   7
HETATM    7  C   UNL     1      62.074   9.549   3.448  1.00  0.00     0.038 A 
HETATM    8  S   UNL     1      63.227   8.764   4.457  1.00  0.00    -0.099 SA
HETATM    9  C   UNL     1      63.428  10.143   5.441  1.00  0.00     0.050 A 
HETATM   10  C   UNL     1      62.643  11.191   5.025  1.00  0.00     0.008 A 
HETATM   11  C   UNL     1      61.867  10.851   3.877  1.00  0.00     0.022 A 
ENDBRANCH   1   7
BRANCH   5  12
HETATM   12  C   UNL     1      58.452   7.276   1.047  1.00  0.00     0.286 C 
BRANCH  12  13
HETATM   13  N   UNL     1      57.683   7.579   2.251  1.00  0.00    -0.074 N 
HETATM   14  H   UNL     1      58.118   8.358   2.745  1.00  0.00     0.274 HD
HETATM   15  H   UNL     1      57.665   6.759   2.858  1.00  0.00     0.274 HD
HETATM   16  H   UNL     1      56.730   7.830   1.990  1.00  0.00     0.274 HD
ENDBRANCH  12  13
ENDBRANCH   5  12
TORSDOF 3
ENDMDL
MODEL 7
REMARK VINA RESULT:      -3.6      1.834      2.133
REMARK  3 active torsions:
REMARK  status: ('A' for Active; 'I' for Inactive)
REMARK    1  A    between atoms: C_1  and  C_5 
REMARK    2  A    between atoms: C_6  and  C_12 
REMARK    3  A    between atoms: C_12  and  N_13 
ROOT
HETATM    1  C   UNL     1      64.989   6.406   6.703  1.00  0.00     0.091 A 
HETATM    2  N   UNL     1      64.967   7.646   6.250  1.00  0.00    -0.351 N 
ATOM      3  HN  UNL     1      65.676   8.351   6.450  1.00  0.00     0.166 HD
HETATM    4  S   UNL     1      63.657   5.432   6.200  1.00  0.00    -0.081 SA
HETATM    5  C   UNL     1      63.838   7.855   5.461  1.00  0.00     0.042 A 
HETATM    6  C   UNL     1      63.017   6.752   5.329  1.00  0.00     0.078 A 
ENDROOT
BRANCH   1   7
HETATM    7  C   UNL     1      66.051   5.927   7.562  1.00  0.00     0.038 A 
HETATM    8  S   UNL     1      66.956   6.948   8.612  1.00  0.00    -0.099 SA
HETATM    9  C   UNL     1      67.914   5.655   9.179  1.00  0.00     0.050 A 
HETATM   10  C   UNL     1      67.566   4.461   8.595  1.00  0.00     0.008 A 
HETATM   11  C   UNL     1      66.492   4.616   7.667  1.00  0.00     0.022 A 
ENDBRANCH   1   7
BRANCH   5  12
HETATM   12  C   UNL     1      63.614   9.194   4.835  1.00  0.00     0.286 C 
BRANCH  12  13
HETATM   13  N   UNL     1      63.202  10.135   5.872  1.00  0.00    -0.074 N 
HETATM   14  H   UNL     1      63.643  11.039   5.708  1.00  0.00     0.274 HD
HETATM   15  H   UNL     1      63.486   9.779   6.786  1.00  0.00     0.274 HD
HETATM   16  H   UNL     1      62.188  10.242   5.850  1.00  0.00     0.274 HD
ENDBRANCH  12  13
ENDBRANCH   5  12
TORSDOF 3
ENDMDL
MODEL 8
REMARK VINA RESULT:      -3.6      2.207      2.622
REMARK  3 active torsions:
REMARK  status: ('A' for Active; 'I' for Inactive)
REMARK    1  A    between atoms: C_1  and  C_5 
REMARK    2  A    between atoms: C_6  and  C_12 
REMARK    3  A    between atoms: C_12  and  N_13 
ROOT
HETATM    1  C   UNL     1      63.414   8.164   4.042  1.00  0.00     0.091 A 
HETATM    2  N   UNL     1      63.037   9.410   4.260  1.00  0.00    -0.351 N 
ATOM      3  HN  UNL     1      63.244   9.941   5.105  1.00  0.00     0.166 HD
HETATM    4  S   UNL     1      62.923   7.518   2.519  1.00  0.00    -0.081 SA
HETATM    5  C   UNL     1      62.314   9.897   3.172  1.00  0.00     0.042 A 
HETATM    6  C   UNL     1      62.159   8.995   2.136  1.00  0.00     0.078 A 
ENDROOT
BRANCH   1   7
HETATM    7  C   UNL     1      64.171   7.414   5.022  1.00  0.00     0.038 A 
HETATM    8  S   UNL     1      65.849   7.662   5.318  1.00  0.00    -0.099 SA
HETATM    9  C   UNL     1      65.902   6.445   6.514  1.00  0.00     0.050 A 
HETATM   10  C   UNL     1      64.677   5.852   6.699  1.00  0.00     0.008 A 
HETATM   11  C   UNL     1      63.680   6.411   5.844  1.00  0.00     0.022 A 
ENDBRANCH   1   7
BRANCH   5  12
HETATM   12  C   UNL     1      61.793  11.297   3.200  1.00  0.00     0.286 C 
BRANCH  12  13
HETATM   13  N   UNL     1      61.890  11.862   1.857  1.00  0.00    -0.074 N 
HETATM   14  H   UNL     1      62.861  12.103   1.658  1.00  0.00     0.274 HD
HETATM   15  H   UNL     1      61.313  12.702   1.800  1.00  0.00     0.274 HD
HETATM   16  H   UNL     1      61.562  11.177   1.177  1.00  0.00     0.274 HD
ENDBRANCH  12  13
ENDBRANCH   5  12
TORSDOF 3
ENDMDL
MODEL 9
REMARK VINA RESULT:      -3.6      4.613      6.686
REMARK  3 active torsions:
REMARK  status: ('A' for Active; 'I' for Inactive)
REMARK    1  A    between atoms: C_1  and  C_5 
REMARK    2  A    between atoms: C_6  and  C_12 
REMARK    3  A    between atoms: C_12  and  N_13 
ROOT
HETATM    1  C   UNL     1      60.403   7.775   3.706  1.00  0.00     0.091 A 
HETATM    2  N   UNL     1      60.433   8.734   2.800  1.00  0.00    -0.351 N 
ATOM      3  HN  UNL     1      59.617   9.093   2.305  1.00  0.00     0.166 HD
HETATM    4  S   UNL     1      61.939   7.374   4.382  1.00  0.00    -0.081 SA
HETATM    5  C   UNL     1      61.738   9.188   2.615  1.00  0.00     0.042 A 
HETATM    6  C   UNL     1      62.682   8.554   3.399  1.00  0.00     0.078 A 
ENDROOT
BRANCH   1   7
HETATM    7  C   UNL     1      59.169   7.118   4.080  1.00  0.00     0.038 A 
HETATM    8  S   UNL     1      59.100   5.518   4.714  1.00  0.00    -0.099 SA
HETATM    9  C   UNL     1      57.399   5.554   4.845  1.00  0.00     0.050 A 
HETATM   10  C   UNL     1      56.875   6.752   4.421  1.00  0.00     0.008 A 
HETATM   11  C   UNL     1      57.893   7.653   3.984  1.00  0.00     0.022 A 
ENDBRANCH   1   7
BRANCH   5  12
HETATM   12  C   UNL     1      62.005  10.284   1.635  1.00  0.00     0.286 C 
BRANCH  12  13
HETATM   13  N   UNL     1      61.576  11.552   2.219  1.00  0.00    -0.074 N 
HETATM   14  H   UNL     1      61.111  12.115   1.506  1.00  0.00     0.274 HD
HETATM   15  H   UNL     1      62.390  12.055   2.573  1.00  0.00     0.274 HD
HETATM   16  H   UNL     1      60.928  11.370   2.985  1.00  0.00     0.274 HD
ENDBRANCH  12  13
ENDBRANCH   5  12
TORSDOF 3
ENDMDL
