MODEL 1
REMARK VINA RESULT:      -4.8      0.000      0.000
REMARK  0 active torsions:
REMARK  status: ('A' for Active; 'I' for Inactive)
ROOT
HETATM    1  C   UNL     1      63.214   6.099   1.085  1.00  0.00    -0.078 C 
HETATM    2  C   UNL     1      63.519   5.019   0.654  1.00  0.00     0.018 C 
HETATM    3  C   UNL     1      62.810   8.978   3.424  1.00  0.00     0.060 A 
HETATM    4  N   UNL     1      63.161   9.297   4.686  1.00  0.00    -0.363 N 
ATOM      5  HN  UNL     1      63.673   8.647   5.283  1.00  0.00     0.165 HD
HETATM    6  N   UNL     1      61.729  11.105   3.060  1.00  0.00    -0.363 N 
ATOM      7  HN  UNL     1      61.204  11.760   2.481  1.00  0.00     0.165 HD
HETATM    8  C   UNL     1      62.096   9.891   2.605  1.00  0.00     0.059 A 
HETATM    9  C   UNL     1      63.160   7.735   2.908  1.00  0.00     0.052 A 
HETATM   10  C   UNL     1      62.840   7.382   1.596  1.00  0.00     0.019 A 
HETATM   11  C   UNL     1      61.781   9.525   1.303  1.00  0.00     0.033 A 
HETATM   12  C   UNL     1      62.155   8.283   0.787  1.00  0.00     0.023 A 
HETATM   13  C   UNL     1      62.798  10.525   5.118  1.00  0.00     0.105 A 
HETATM   14  C   UNL     1      62.093  11.407   4.325  1.00  0.00     0.105 A 
ENDROOT
TORSDOF 0
ENDMDL
MODEL 2
REMARK VINA RESULT:      -4.7      2.563      3.320
REMARK  0 active torsions:
REMARK  status: ('A' for Active; 'I' for Inactive)
ROOT
HETATM    1  C   UNL     1      66.442   6.209   5.129  1.00  0.00    -0.078 C 
HETATM    2  C   UNL     1      67.340   5.505   5.508  1.00  0.00     0.018 C 
HETATM    3  C   UNL     1      64.007   9.030   4.948  1.00  0.00     0.060 A 
HETATM    4  N   UNL     1      63.742  10.167   5.621  1.00  0.00    -0.363 N 
ATOM      5  HN  UNL     1      64.281  10.443   6.443  1.00  0.00     0.165 HD
HETATM    6  N   UNL     1      62.229   9.417   3.362  1.00  0.00    -0.363 N 
ATOM      7  HN  UNL     1      61.671   9.148   2.550  1.00  0.00     0.165 HD
HETATM    8  C   UNL     1      63.249   8.657   3.807  1.00  0.00     0.059 A 
HETATM    9  C   UNL     1      65.045   8.207   5.369  1.00  0.00     0.052 A 
HETATM   10  C   UNL     1      65.366   7.037   4.679  1.00  0.00     0.019 A 
HETATM   11  C   UNL     1      63.576   7.489   3.132  1.00  0.00     0.033 A 
HETATM   12  C   UNL     1      64.635   6.681   3.551  1.00  0.00     0.023 A 
HETATM   13  C   UNL     1      62.727  10.923   5.150  1.00  0.00     0.105 A 
HETATM   14  C   UNL     1      61.983  10.554   4.048  1.00  0.00     0.105 A 
ENDROOT
TORSDOF 0
ENDMDL
MODEL 3
REMARK VINA RESULT:      -4.7      2.149      4.124
REMARK  0 active torsions:
REMARK  status: ('A' for Active; 'I' for Inactive)
ROOT
HETATM    1  C   UNL     1      61.982  10.761   2.420  1.00  0.00    -0.078 C 
HETATM    2  C   UNL     1      61.627  11.828   1.995  1.00  0.00     0.018 C 
HETATM    3  C   UNL     1      63.172   8.121   4.773  1.00  0.00     0.060 A 
HETATM    4  N   UNL     1      63.467   8.009   6.084  1.00  0.00    -0.363 N 
ATOM      5  HN  UNL     1      63.400   8.804   6.720  1.00  0.00     0.165 HD
HETATM    6  N   UNL     1      63.676   5.800   4.341  1.00  0.00    -0.363 N 
ATOM      7  HN  UNL     1      63.763   4.999   3.715  1.00  0.00     0.165 HD
HETATM    8  C   UNL     1      63.271   7.007   3.899  1.00  0.00     0.059 A 
HETATM    9  C   UNL     1      62.754   9.346   4.265  1.00  0.00     0.052 A 
HETATM   10  C   UNL     1      62.413   9.491   2.919  1.00  0.00     0.019 A 
HETATM   11  C   UNL     1      62.931   7.167   2.562  1.00  0.00     0.033 A 
HETATM   12  C   UNL     1      62.493   8.396   2.066  1.00  0.00     0.023 A 
HETATM   13  C   UNL     1      63.855   6.788   6.510  1.00  0.00     0.105 A 
HETATM   14  C   UNL     1      63.963   5.709   5.657  1.00  0.00     0.105 A 
ENDROOT
TORSDOF 0
ENDMDL
MODEL 4
REMARK VINA RESULT:      -4.7      3.253      4.987
REMARK  0 active torsions:
REMARK  status: ('A' for Active; 'I' for Inactive)
ROOT
HETATM    1  C   UNL     1      62.556   9.676   3.632  1.00  0.00    -0.078 C 
HETATM    2  C   UNL     1      61.766  10.519   3.300  1.00  0.00     0.018 C 
HETATM    3  C   UNL     1      65.259   7.919   5.510  1.00  0.00     0.060 A 
HETATM    4  N   UNL     1      66.032   8.141   6.592  1.00  0.00    -0.363 N 
ATOM      5  HN  UNL     1      65.966   9.004   7.132  1.00  0.00     0.165 HD
HETATM    6  N   UNL     1      66.245   5.753   5.105  1.00  0.00    -0.363 N 
ATOM      7  HN  UNL     1      66.333   4.890   4.567  1.00  0.00     0.165 HD
HETATM    8  C   UNL     1      65.363   6.714   4.767  1.00  0.00     0.059 A 
HETATM    9  C   UNL     1      64.337   8.881   5.115  1.00  0.00     0.052 A 
HETATM   10  C   UNL     1      63.501   8.672   4.017  1.00  0.00     0.019 A 
HETATM   11  C   UNL     1      64.527   6.521   3.675  1.00  0.00     0.033 A 
HETATM   12  C   UNL     1      63.589   7.485   3.299  1.00  0.00     0.023 A 
HETATM   13  C   UNL     1      66.897   7.158   6.925  1.00  0.00     0.105 A 
HETATM   14  C   UNL     1      67.005   5.993   6.195  1.00  0.00     0.105 A 
ENDROOT
TORSDOF 0
ENDMDL
MODEL 5
REMARK VINA RESULT:      -4.6      2.134      3.546
REMARK  0 active torsions:
REMARK  status: ('A' for Active; 'I' for Inactive)
ROOT
HETATM    1  C   UNL     1      61.105   8.482   1.616  1.00  0.00    -0.078 C 
HETATM    2  C   UNL     1      60.296   8.386   0.731  1.00  0.00     0.018 C 
HETATM    3  C   UNL     1      64.033   7.759   3.812  1.00  0.00     0.060 A 
HETATM    4  N   UNL     1      65.035   6.860   3.879  1.00  0.00    -0.363 N 
ATOM      5  HN  UNL     1      65.121   6.101   3.202  1.00  0.00     0.165 HD
HETATM    6  N   UNL     1      64.805   8.940   5.771  1.00  0.00    -0.363 N 
ATOM      7  HN  UNL     1      64.723   9.685   6.464  1.00  0.00     0.165 HD
HETATM    8  C   UNL     1      63.923   8.809   4.761  1.00  0.00     0.059 A 
HETATM    9  C   UNL     1      63.092   7.666   2.792  1.00  0.00     0.052 A 
HETATM   10  C   UNL     1      62.058   8.597   2.676  1.00  0.00     0.019 A 
HETATM   11  C   UNL     1      62.888   9.726   4.634  1.00  0.00     0.033 A 
HETATM   12  C   UNL     1      61.960   9.636   3.594  1.00  0.00     0.023 A 
HETATM   13  C   UNL     1      65.918   7.018   4.888  1.00  0.00     0.105 A 
HETATM   14  C   UNL     1      65.803   8.032   5.817  1.00  0.00     0.105 A 
ENDROOT
TORSDOF 0
ENDMDL
MODEL 6
REMARK VINA RESULT:      -4.5      2.238      3.942
REMARK  0 active torsions:
REMARK  status: ('A' for Active; 'I' for Inactive)
ROOT
HETATM    1  C   UNL     1      65.297   8.202   5.521  1.00  0.00    -0.078 C 
HETATM    2  C   UNL     1      66.227   7.953   6.241  1.00  0.00     0.018 C 
HETATM    3  C   UNL     1      62.868   7.994   2.696  1.00  0.00     0.060 A 
HETATM    4  N   UNL     1      62.630   7.191   1.640  1.00  0.00    -0.363 N 
ATOM      5  HN  UNL     1      63.219   6.384   1.435  1.00  0.00     0.165 HD
HETATM    6  N   UNL     1      60.999   9.430   2.177  1.00  0.00    -0.363 N 
ATOM      7  HN  UNL     1      60.410  10.243   2.360  1.00  0.00     0.165 HD
HETATM    8  C   UNL     1      62.042   9.115   2.969  1.00  0.00     0.059 A 
HETATM    9  C   UNL     1      63.936   7.717   3.542  1.00  0.00     0.052 A 
HETATM   10  C   UNL     1      64.195   8.509   4.662  1.00  0.00     0.019 A 
HETATM   11  C   UNL     1      62.313   9.897   4.085  1.00  0.00     0.033 A 
HETATM   12  C   UNL     1      63.375   9.598   4.940  1.00  0.00     0.023 A 
HETATM   13  C   UNL     1      61.570   7.514   0.867  1.00  0.00     0.105 A 
HETATM   14  C   UNL     1      60.775   8.611   1.126  1.00  0.00     0.105 A 
ENDROOT
TORSDOF 0
ENDMDL
MODEL 7
REMARK VINA RESULT:      -4.4      2.963      4.726
REMARK  0 active torsions:
REMARK  status: ('A' for Active; 'I' for Inactive)
ROOT
HETATM    1  C   UNL     1      61.879  10.822   2.781  1.00  0.00    -0.078 C 
HETATM    2  C   UNL     1      61.760  11.779   2.063  1.00  0.00     0.018 C 
HETATM    3  C   UNL     1      61.333   7.451   4.284  1.00  0.00     0.060 A 
HETATM    4  N   UNL     1      60.559   6.370   4.061  1.00  0.00    -0.363 N 
ATOM      5  HN  UNL     1      59.875   6.346   3.304  1.00  0.00     0.165 HD
HETATM    6  N   UNL     1      62.430   6.422   6.173  1.00  0.00    -0.363 N 
ATOM      7  HN  UNL     1      63.098   6.437   6.943  1.00  0.00     0.165 HD
HETATM    8  C   UNL     1      62.278   7.473   5.343  1.00  0.00     0.059 A 
HETATM    9  C   UNL     1      61.212   8.564   3.460  1.00  0.00     0.052 A 
HETATM   10  C   UNL     1      62.018   9.690   3.644  1.00  0.00     0.019 A 
HETATM   11  C   UNL     1      63.071   8.600   5.516  1.00  0.00     0.033 A 
HETATM   12  C   UNL     1      62.957   9.705   4.670  1.00  0.00     0.023 A 
HETATM   13  C   UNL     1      60.737   5.321   4.893  1.00  0.00     0.105 A 
HETATM   14  C   UNL     1      61.648   5.348   5.929  1.00  0.00     0.105 A 
ENDROOT
TORSDOF 0
ENDMDL
MODEL 8
REMARK VINA RESULT:      -4.3      2.224      3.200
REMARK  0 active torsions:
REMARK  status: ('A' for Active; 'I' for Inactive)
ROOT
HETATM    1  C   UNL     1      65.451   5.327   3.171  1.00  0.00    -0.078 C 
HETATM    2  C   UNL     1      65.820   4.309   2.650  1.00  0.00     0.018 C 
HETATM    3  C   UNL     1      63.481   8.417   3.875  1.00  0.00     0.060 A 
HETATM    4  N   UNL     1      62.395   9.044   3.381  1.00  0.00    -0.363 N 
ATOM      5  HN  UNL     1      61.883   8.680   2.577  1.00  0.00     0.165 HD
HETATM    6  N   UNL     1      63.806  10.080   5.594  1.00  0.00    -0.363 N 
ATOM      7  HN  UNL     1      64.316  10.465   6.390  1.00  0.00     0.165 HD
HETATM    8  C   UNL     1      64.186   8.935   4.993  1.00  0.00     0.059 A 
HETATM    9  C   UNL     1      63.919   7.235   3.287  1.00  0.00     0.052 A 
HETATM   10  C   UNL     1      65.022   6.543   3.790  1.00  0.00     0.019 A 
HETATM   11  C   UNL     1      65.283   8.238   5.481  1.00  0.00     0.033 A 
HETATM   12  C   UNL     1      65.702   7.041   4.896  1.00  0.00     0.023 A 
HETATM   13  C   UNL     1      62.021  10.181   4.008  1.00  0.00     0.105 A 
HETATM   14  C   UNL     1      62.713  10.690   5.087  1.00  0.00     0.105 A 
ENDROOT
TORSDOF 0
ENDMDL
MODEL 9
REMARK VINA RESULT:      -4.2     14.170     14.950
REMARK  0 active torsions:
REMARK  status: ('A' for Active; 'I' for Inactive)
ROOT
HETATM    1  C   UNL     1      61.146  -0.205  12.556  1.00  0.00    -0.078 C 
HETATM    2  C   UNL     1      62.238  -0.491  12.143  1.00  0.00     0.018 C 
HETATM    3  C   UNL     1      57.596  -0.528  13.659  1.00  0.00     0.060 A 
HETATM    4  N   UNL     1      56.682  -1.508  13.814  1.00  0.00    -0.363 N 
ATOM      5  HN  UNL     1      56.893  -2.480  13.586  1.00  0.00     0.165 HD
HETATM    6  N   UNL     1      56.072   1.177  14.432  1.00  0.00    -0.363 N 
ATOM      7  HN  UNL     1      55.842   2.147  14.650  1.00  0.00     0.165 HD
HETATM    8  C   UNL     1      57.290   0.820  13.977  1.00  0.00     0.059 A 
HETATM    9  C   UNL     1      58.865  -0.842  13.186  1.00  0.00     0.052 A 
HETATM   10  C   UNL     1      59.845   0.142  13.041  1.00  0.00     0.019 A 
HETATM   11  C   UNL     1      58.273   1.789  13.824  1.00  0.00     0.033 A 
HETATM   12  C   UNL     1      59.551   1.461  13.369  1.00  0.00     0.023 A 
HETATM   13  C   UNL     1      55.474  -1.133  14.287  1.00  0.00     0.105 A 
HETATM   14  C   UNL     1      55.174   0.180  14.585  1.00  0.00     0.105 A 
ENDROOT
TORSDOF 0
ENDMDL
