MODEL 1
REMARK VINA RESULT:      -4.9      0.000      0.000
REMARK  3 active torsions:
REMARK  status: ('A' for Active; 'I' for Inactive)
REMARK    1  A    between atoms: C_1  and  C_3 
REMARK    2  A    between atoms: C_11  and  C_13 
REMARK    3  A    between atoms: O_12  and  C_13 
ROOT
HETATM    1  C   UNL     1      62.098   8.808   2.982  1.00  0.00    -0.019 A 
HETATM    2  C   UNL     1      62.865   8.365   4.070  1.00  0.00     0.013 A 
HETATM    3  C   UNL     1      61.720  10.160   2.952  1.00  0.00     0.013 A 
HETATM    4  C   UNL     1      62.076  11.034   3.982  1.00  0.00     0.010 A 
HETATM    5  C   UNL     1      63.225   9.240   5.102  1.00  0.00     0.010 A 
HETATM    6  C   UNL     1      62.826  10.580   5.072  1.00  0.00    -0.035 A 
ENDROOT
BRANCH   1   7
HETATM    7  C   UNL     1      61.727   7.872   1.903  1.00  0.00     0.015 A 
HETATM    8  S   UNL     1      62.814   6.639   1.391  1.00  0.00    -0.101 SA
HETATM    9  C   UNL     1      61.714   6.037   0.234  1.00  0.00     0.050 A 
HETATM   10  C   UNL     1      60.551   6.769   0.200  1.00  0.00     0.008 A 
HETATM   11  C   UNL     1      60.562   7.829   1.154  1.00  0.00     0.020 A 
ENDBRANCH   1   7
BRANCH   6  12
HETATM   12  C   UNL     1      63.200  11.513   6.191  1.00  0.00     0.202 C 
BRANCH  12  13
HETATM   13  O   UNL     1      64.590  11.411   6.475  1.00  0.00    -0.396 OA
HETATM   14  H   UNL     1      65.001  12.286   6.399  1.00  0.00     0.209 HD
ENDBRANCH  12  13
ENDBRANCH   6  12
TORSDOF 3
ENDMDL
MODEL 2
REMARK VINA RESULT:      -4.9      3.079      4.938
REMARK  3 active torsions:
REMARK  status: ('A' for Active; 'I' for Inactive)
REMARK    1  A    between atoms: C_1  and  C_3 
REMARK    2  A    between atoms: C_11  and  C_13 
REMARK    3  A    between atoms: O_12  and  C_13 
ROOT
HETATM    1  C   UNL     1      63.761   8.459   4.821  1.00  0.00    -0.019 A 
HETATM    2  C   UNL     1      63.444   8.004   3.532  1.00  0.00     0.013 A 
HETATM    3  C   UNL     1      63.275   9.717   5.211  1.00  0.00     0.013 A 
HETATM    4  C   UNL     1      62.517  10.503   4.340  1.00  0.00     0.010 A 
HETATM    5  C   UNL     1      62.682   8.789   2.658  1.00  0.00     0.010 A 
HETATM    6  C   UNL     1      62.219  10.049   3.050  1.00  0.00    -0.035 A 
ENDROOT
BRANCH   1   7
HETATM    7  C   UNL     1      64.566   7.620   5.729  1.00  0.00     0.015 A 
HETATM    8  S   UNL     1      66.216   7.995   6.047  1.00  0.00    -0.101 SA
HETATM    9  C   UNL     1      66.395   6.675   7.113  1.00  0.00     0.050 A 
HETATM   10  C   UNL     1      65.242   5.932   7.209  1.00  0.00     0.008 A 
HETATM   11  C   UNL     1      64.194   6.471   6.408  1.00  0.00     0.020 A 
ENDBRANCH   1   7
BRANCH   6  12
HETATM   12  C   UNL     1      61.416  10.895   2.102  1.00  0.00     0.202 C 
BRANCH  12  13
HETATM   13  O   UNL     1      62.095  12.117   1.835  1.00  0.00    -0.396 OA
HETATM   14  H   UNL     1      61.451  12.793   1.572  1.00  0.00     0.209 HD
ENDBRANCH  12  13
ENDBRANCH   6  12
TORSDOF 3
ENDMDL
MODEL 3
REMARK VINA RESULT:      -4.6      3.703      5.405
REMARK  3 active torsions:
REMARK  status: ('A' for Active; 'I' for Inactive)
REMARK    1  A    between atoms: C_1  and  C_3 
REMARK    2  A    between atoms: C_11  and  C_13 
REMARK    3  A    between atoms: O_12  and  C_13 
ROOT
HETATM    1  C   UNL     1      64.745   7.545   4.791  1.00  0.00    -0.019 A 
HETATM    2  C   UNL     1      64.187   7.048   3.603  1.00  0.00     0.013 A 
HETATM    3  C   UNL     1      64.266   8.772   5.277  1.00  0.00     0.013 A 
HETATM    4  C   UNL     1      63.282   9.489   4.591  1.00  0.00     0.010 A 
HETATM    5  C   UNL     1      63.199   7.762   2.916  1.00  0.00     0.010 A 
HETATM    6  C   UNL     1      62.744   8.993   3.399  1.00  0.00    -0.035 A 
ENDROOT
BRANCH   1   7
HETATM    7  C   UNL     1      65.786   6.780   5.502  1.00  0.00     0.015 A 
HETATM    8  S   UNL     1      65.741   6.606   7.214  1.00  0.00    -0.101 SA
HETATM    9  C   UNL     1      67.154   5.651   7.237  1.00  0.00     0.050 A 
HETATM   10  C   UNL     1      67.684   5.487   5.979  1.00  0.00     0.008 A 
HETATM   11  C   UNL     1      66.902   6.142   4.983  1.00  0.00     0.020 A 
ENDBRANCH   1   7
BRANCH   6  12
HETATM   12  C   UNL     1      61.695   9.766   2.648  1.00  0.00     0.202 C 
BRANCH  12  13
HETATM   13  O   UNL     1      61.309  10.919   3.386  1.00  0.00    -0.396 OA
HETATM   14  H   UNL     1      62.065  11.522   3.464  1.00  0.00     0.209 HD
ENDBRANCH  12  13
ENDBRANCH   6  12
TORSDOF 3
ENDMDL
MODEL 4
REMARK VINA RESULT:      -4.5      3.576      4.898
REMARK  3 active torsions:
REMARK  status: ('A' for Active; 'I' for Inactive)
REMARK    1  A    between atoms: C_1  and  C_3 
REMARK    2  A    between atoms: C_11  and  C_13 
REMARK    3  A    between atoms: O_12  and  C_13 
ROOT
HETATM    1  C   UNL     1      64.413   8.146   5.350  1.00  0.00    -0.019 A 
HETATM    2  C   UNL     1      63.951   7.084   6.144  1.00  0.00     0.013 A 
HETATM    3  C   UNL     1      65.787   8.431   5.373  1.00  0.00     0.013 A 
HETATM    4  C   UNL     1      66.666   7.699   6.175  1.00  0.00     0.010 A 
HETATM    5  C   UNL     1      64.830   6.347   6.946  1.00  0.00     0.010 A 
HETATM    6  C   UNL     1      66.194   6.654   6.976  1.00  0.00    -0.035 A 
ENDROOT
BRANCH   1   7
HETATM    7  C   UNL     1      63.472   8.912   4.511  1.00  0.00     0.015 A 
HETATM    8  S   UNL     1      62.848  10.427   5.042  1.00  0.00    -0.101 SA
HETATM    9  C   UNL     1      61.940  10.645   3.615  1.00  0.00     0.050 A 
HETATM   10  C   UNL     1      62.069   9.580   2.755  1.00  0.00     0.008 A 
HETATM   11  C   UNL     1      62.943   8.581   3.274  1.00  0.00     0.020 A 
ENDBRANCH   1   7
BRANCH   6  12
HETATM   12  C   UNL     1      67.132   5.871   7.852  1.00  0.00     0.202 C 
BRANCH  12  13
HETATM   13  O   UNL     1      67.882   6.751   8.681  1.00  0.00    -0.396 OA
HETATM   14  H   UNL     1      68.166   6.279   9.480  1.00  0.00     0.209 HD
ENDBRANCH  12  13
ENDBRANCH   6  12
TORSDOF 3
ENDMDL
MODEL 5
REMARK VINA RESULT:      -4.5      2.211      3.149
REMARK  3 active torsions:
REMARK  status: ('A' for Active; 'I' for Inactive)
REMARK    1  A    between atoms: C_1  and  C_3 
REMARK    2  A    between atoms: C_11  and  C_13 
REMARK    3  A    between atoms: O_12  and  C_13 
ROOT
HETATM    1  C   UNL     1      63.429   7.895   3.433  1.00  0.00    -0.019 A 
HETATM    2  C   UNL     1      63.617   8.875   4.420  1.00  0.00     0.013 A 
HETATM    3  C   UNL     1      64.376   6.863   3.343  1.00  0.00     0.013 A 
HETATM    4  C   UNL     1      65.484   6.821   4.193  1.00  0.00     0.010 A 
HETATM    5  C   UNL     1      64.725   8.832   5.275  1.00  0.00     0.010 A 
HETATM    6  C   UNL     1      65.673   7.810   5.164  1.00  0.00    -0.035 A 
ENDROOT
BRANCH   1   7
HETATM    7  C   UNL     1      62.256   7.956   2.539  1.00  0.00     0.015 A 
HETATM    8  S   UNL     1      60.852   7.013   2.861  1.00  0.00    -0.101 SA
HETATM    9  C   UNL     1      60.030   7.624   1.497  1.00  0.00     0.050 A 
HETATM   10  C   UNL     1      60.807   8.502   0.779  1.00  0.00     0.008 A 
HETATM   11  C   UNL     1      62.089   8.687   1.374  1.00  0.00     0.020 A 
ENDBRANCH   1   7
BRANCH   6  12
HETATM   12  C   UNL     1      66.870   7.778   6.073  1.00  0.00     0.202 C 
BRANCH  12  13
HETATM   13  O   UNL     1      66.847   8.890   6.960  1.00  0.00    -0.396 OA
HETATM   14  H   UNL     1      66.205   8.725   7.669  1.00  0.00     0.209 HD
ENDBRANCH  12  13
ENDBRANCH   6  12
TORSDOF 3
ENDMDL
MODEL 6
REMARK VINA RESULT:      -4.3      3.448      5.511
REMARK  3 active torsions:
REMARK  status: ('A' for Active; 'I' for Inactive)
REMARK    1  A    between atoms: C_1  and  C_3 
REMARK    2  A    between atoms: C_11  and  C_13 
REMARK    3  A    between atoms: O_12  and  C_13 
ROOT
HETATM    1  C   UNL     1      63.998   8.057   4.495  1.00  0.00    -0.019 A 
HETATM    2  C   UNL     1      63.846   7.245   3.361  1.00  0.00     0.013 A 
HETATM    3  C   UNL     1      63.263   9.252   4.551  1.00  0.00     0.013 A 
HETATM    4  C   UNL     1      62.423   9.635   3.502  1.00  0.00     0.010 A 
HETATM    5  C   UNL     1      63.002   7.626   2.310  1.00  0.00     0.010 A 
HETATM    6  C   UNL     1      62.291   8.828   2.367  1.00  0.00    -0.035 A 
ENDROOT
BRANCH   1   7
HETATM    7  C   UNL     1      64.891   7.641   5.593  1.00  0.00     0.015 A 
HETATM    8  S   UNL     1      64.526   6.260   6.554  1.00  0.00    -0.101 SA
HETATM    9  C   UNL     1      65.939   6.439   7.493  1.00  0.00     0.050 A 
HETATM   10  C   UNL     1      66.668   7.543   7.121  1.00  0.00     0.008 A 
HETATM   11  C   UNL     1      66.062   8.238   6.034  1.00  0.00     0.020 A 
ENDBRANCH   1   7
BRANCH   6  12
HETATM   12  C   UNL     1      61.400   9.242   1.229  1.00  0.00     0.202 C 
BRANCH  12  13
HETATM   13  O   UNL     1      60.712   8.112   0.704  1.00  0.00    -0.396 OA
HETATM   14  H   UNL     1      59.980   7.876   1.296  1.00  0.00     0.209 HD
ENDBRANCH  12  13
ENDBRANCH   6  12
TORSDOF 3
ENDMDL
MODEL 7
REMARK VINA RESULT:      -4.2      4.372      6.444
REMARK  3 active torsions:
REMARK  status: ('A' for Active; 'I' for Inactive)
REMARK    1  A    between atoms: C_1  and  C_3 
REMARK    2  A    between atoms: C_11  and  C_13 
REMARK    3  A    between atoms: O_12  and  C_13 
ROOT
HETATM    1  C   UNL     1      65.106   6.991   6.536  1.00  0.00    -0.019 A 
HETATM    2  C   UNL     1      63.774   6.554   6.470  1.00  0.00     0.013 A 
HETATM    3  C   UNL     1      65.473   8.099   5.755  1.00  0.00     0.013 A 
HETATM    4  C   UNL     1      64.550   8.734   4.920  1.00  0.00     0.010 A 
HETATM    5  C   UNL     1      62.847   7.191   5.637  1.00  0.00     0.010 A 
HETATM    6  C   UNL     1      63.228   8.281   4.848  1.00  0.00    -0.035 A 
ENDROOT
BRANCH   1   7
HETATM    7  C   UNL     1      66.071   6.308   7.419  1.00  0.00     0.015 A 
HETATM    8  S   UNL     1      66.239   4.595   7.384  1.00  0.00    -0.101 SA
HETATM    9  C   UNL     1      67.461   4.609   8.574  1.00  0.00     0.050 A 
HETATM   10  C   UNL     1      67.723   5.881   9.027  1.00  0.00     0.008 A 
HETATM   11  C   UNL     1      66.918   6.856   8.368  1.00  0.00     0.020 A 
ENDBRANCH   1   7
BRANCH   6  12
HETATM   12  C   UNL     1      62.234   8.951   3.941  1.00  0.00     0.202 C 
BRANCH  12  13
HETATM   13  O   UNL     1      62.363  10.366   4.026  1.00  0.00    -0.396 OA
HETATM   14  H   UNL     1      62.637  10.612   4.924  1.00  0.00     0.209 HD
ENDBRANCH  12  13
ENDBRANCH   6  12
TORSDOF 3
ENDMDL
MODEL 8
REMARK VINA RESULT:      -4.0      3.299      5.445
REMARK  3 active torsions:
REMARK  status: ('A' for Active; 'I' for Inactive)
REMARK    1  A    between atoms: C_1  and  C_3 
REMARK    2  A    between atoms: C_11  and  C_13 
REMARK    3  A    between atoms: O_12  and  C_13 
ROOT
HETATM    1  C   UNL     1      63.249   7.575   2.911  1.00  0.00    -0.019 A 
HETATM    2  C   UNL     1      62.401   8.689   3.006  1.00  0.00     0.013 A 
HETATM    3  C   UNL     1      62.954   6.606   1.939  1.00  0.00     0.013 A 
HETATM    4  C   UNL     1      61.840   6.732   1.106  1.00  0.00     0.010 A 
HETATM    5  C   UNL     1      61.286   8.819   2.170  1.00  0.00     0.010 A 
HETATM    6  C   UNL     1      60.989   7.837   1.219  1.00  0.00    -0.035 A 
ENDROOT
BRANCH   1   7
HETATM    7  C   UNL     1      64.420   7.453   3.801  1.00  0.00     0.015 A 
HETATM    8  S   UNL     1      64.659   8.556   5.102  1.00  0.00    -0.101 SA
HETATM    9  C   UNL     1      66.091   7.779   5.605  1.00  0.00     0.050 A 
HETATM   10  C   UNL     1      66.416   6.721   4.789  1.00  0.00     0.008 A 
HETATM   11  C   UNL     1      65.460   6.539   3.748  1.00  0.00     0.020 A 
ENDBRANCH   1   7
BRANCH   6  12
HETATM   12  C   UNL     1      59.781   7.972   0.335  1.00  0.00     0.202 C 
BRANCH  12  13
HETATM   13  O   UNL     1      58.743   8.662   1.020  1.00  0.00    -0.396 OA
HETATM   14  H   UNL     1      57.979   8.764   0.431  1.00  0.00     0.209 HD
ENDBRANCH  12  13
ENDBRANCH   6  12
TORSDOF 3
ENDMDL
MODEL 9
REMARK VINA RESULT:      -4.0      2.522      3.064
REMARK  3 active torsions:
REMARK  status: ('A' for Active; 'I' for Inactive)
REMARK    1  A    between atoms: C_1  and  C_3 
REMARK    2  A    between atoms: C_11  and  C_13 
REMARK    3  A    between atoms: O_12  and  C_13 
ROOT
HETATM    1  C   UNL     1      60.701   7.757   3.651  1.00  0.00    -0.019 A 
HETATM    2  C   UNL     1      61.294   7.005   4.676  1.00  0.00     0.013 A 
HETATM    3  C   UNL     1      61.466   8.773   3.055  1.00  0.00     0.013 A 
HETATM    4  C   UNL     1      62.768   9.044   3.483  1.00  0.00     0.010 A 
HETATM    5  C   UNL     1      62.600   7.273   5.104  1.00  0.00     0.010 A 
HETATM    6  C   UNL     1      63.346   8.300   4.518  1.00  0.00    -0.035 A 
ENDROOT
BRANCH   1   7
HETATM    7  C   UNL     1      59.324   7.462   3.213  1.00  0.00     0.015 A 
HETATM    8  S   UNL     1      58.942   7.309   1.541  1.00  0.00    -0.101 SA
HETATM    9  C   UNL     1      57.301   6.973   1.862  1.00  0.00     0.050 A 
HETATM   10  C   UNL     1      57.023   7.008   3.209  1.00  0.00     0.008 A 
HETATM   11  C   UNL     1      58.184   7.296   3.984  1.00  0.00     0.020 A 
ENDBRANCH   1   7
BRANCH   6  12
HETATM   12  C   UNL     1      64.741   8.596   4.992  1.00  0.00     0.202 C 
BRANCH  12  13
HETATM   13  O   UNL     1      64.747   9.756   5.815  1.00  0.00    -0.396 OA
HETATM   14  H   UNL     1      64.300  10.483   5.354  1.00  0.00     0.209 HD
ENDBRANCH  12  13
ENDBRANCH   6  12
TORSDOF 3
ENDMDL
