MODEL 1
REMARK VINA RESULT:      -3.7      0.000      0.000
REMARK  2 active torsions:
REMARK  status: ('A' for Active; 'I' for Inactive)
REMARK    1  A    between atoms: C_4  and  C_7 
REMARK    2  A    between atoms: C_7  and  N_9 
ROOT
HETATM    1  N   UNL     1      62.244  10.292   2.961  1.00  0.00    -0.299 N 
HETATM    2  N   UNL     1      62.403   9.143   2.272  1.00  0.00    -0.303 N 
ATOM      3  HN  UNL     1      62.182   8.967   1.291  1.00  0.00     0.186 HD
HETATM    4  C   UNL     1      62.635  10.195   4.276  1.00  0.00     0.055 A 
HETATM    5  C   UNL     1      63.073   8.894   4.430  1.00  0.00     0.054 A 
HETATM    6  C   UNL     1      62.913   8.288   3.165  1.00  0.00     0.024 A 
HETATM    7  C   UNL     1      61.721  11.439   2.259  1.00  0.00     0.177 C 
HETATM    8  C   UNL     1      63.235   6.897   2.767  1.00  0.00     0.070 C 
ENDROOT
BRANCH   4   9
HETATM    9  C   UNL     1      62.545  11.295   5.264  1.00  0.00     0.288 C 
BRANCH   9  10
HETATM   10  N   UNL     1      63.708  11.288   6.138  1.00  0.00    -0.074 N 
HETATM   11  H   UNL     1      63.464  11.721   7.030  1.00  0.00     0.274 HD
HETATM   12  H   UNL     1      64.465  11.814   5.701  1.00  0.00     0.274 HD
HETATM   13  H   UNL     1      64.009  10.327   6.297  1.00  0.00     0.274 HD
ENDBRANCH   9  10
ENDBRANCH   4   9
TORSDOF 2
ENDMDL
MODEL 2
REMARK VINA RESULT:      -3.5      1.778      2.599
REMARK  2 active torsions:
REMARK  status: ('A' for Active; 'I' for Inactive)
REMARK    1  A    between atoms: C_4  and  C_7 
REMARK    2  A    between atoms: C_7  and  N_9 
ROOT
HETATM    1  N   UNL     1      62.826   9.993   4.456  1.00  0.00    -0.299 N 
HETATM    2  N   UNL     1      62.031  10.248   3.397  1.00  0.00    -0.303 N 
ATOM      3  HN  UNL     1      61.433  11.061   3.245  1.00  0.00     0.186 HD
HETATM    4  C   UNL     1      63.501   8.800   4.354  1.00  0.00     0.055 A 
HETATM    5  C   UNL     1      63.107   8.262   3.145  1.00  0.00     0.054 A 
HETATM    6  C   UNL     1      62.204   9.194   2.591  1.00  0.00     0.024 A 
HETATM    7  C   UNL     1      62.881  10.971   5.516  1.00  0.00     0.177 C 
HETATM    8  C   UNL     1      61.484   9.119   1.298  1.00  0.00     0.070 C 
ENDROOT
BRANCH   4   9
HETATM    9  C   UNL     1      64.419   8.261   5.385  1.00  0.00     0.288 C 
BRANCH   9  10
HETATM   10  N   UNL     1      63.670   7.553   6.411  1.00  0.00    -0.074 N 
HETATM   11  H   UNL     1      63.219   6.735   5.999  1.00  0.00     0.274 HD
HETATM   12  H   UNL     1      62.959   8.172   6.802  1.00  0.00     0.274 HD
HETATM   13  H   UNL     1      64.305   7.255   7.152  1.00  0.00     0.274 HD
ENDBRANCH   9  10
ENDBRANCH   4   9
TORSDOF 2
ENDMDL
MODEL 3
REMARK VINA RESULT:      -3.5      1.531      2.984
REMARK  2 active torsions:
REMARK  status: ('A' for Active; 'I' for Inactive)
REMARK    1  A    between atoms: C_4  and  C_7 
REMARK    2  A    between atoms: C_7  and  N_9 
ROOT
HETATM    1  N   UNL     1      61.615   8.507   3.185  1.00  0.00    -0.299 N 
HETATM    2  N   UNL     1      61.337   9.463   2.275  1.00  0.00    -0.303 N 
ATOM      3  HN  UNL     1      60.850   9.356   1.384  1.00  0.00     0.186 HD
HETATM    4  C   UNL     1      62.294   8.983   4.283  1.00  0.00     0.055 A 
HETATM    5  C   UNL     1      62.455  10.335   4.051  1.00  0.00     0.054 A 
HETATM    6  C   UNL     1      61.845  10.582   2.803  1.00  0.00     0.024 A 
HETATM    7  C   UNL     1      61.171   7.161   2.915  1.00  0.00     0.177 C 
HETATM    8  C   UNL     1      61.725  11.869   2.079  1.00  0.00     0.070 C 
ENDROOT
BRANCH   4   9
HETATM    9  C   UNL     1      62.746   8.148   5.419  1.00  0.00     0.288 C 
BRANCH   9  10
HETATM   10  N   UNL     1      64.106   8.500   5.798  1.00  0.00    -0.074 N 
HETATM   11  H   UNL     1      64.568   7.685   6.202  1.00  0.00     0.274 HD
HETATM   12  H   UNL     1      64.083   9.253   6.487  1.00  0.00     0.274 HD
HETATM   13  H   UNL     1      64.620   8.809   4.973  1.00  0.00     0.274 HD
ENDBRANCH   9  10
ENDBRANCH   4   9
TORSDOF 2
ENDMDL
MODEL 4
REMARK VINA RESULT:      -3.4      5.129      6.189
REMARK  2 active torsions:
REMARK  status: ('A' for Active; 'I' for Inactive)
REMARK    1  A    between atoms: C_4  and  C_7 
REMARK    2  A    between atoms: C_7  and  N_9 
ROOT
HETATM    1  N   UNL     1      67.089   7.271   6.062  1.00  0.00    -0.299 N 
HETATM    2  N   UNL     1      67.981   6.842   6.978  1.00  0.00    -0.303 N 
ATOM      3  HN  UNL     1      68.998   6.822   6.900  1.00  0.00     0.186 HD
HETATM    4  C   UNL     1      65.784   7.159   6.480  1.00  0.00     0.055 A 
HETATM    5  C   UNL     1      65.855   6.621   7.750  1.00  0.00     0.054 A 
HETATM    6  C   UNL     1      67.230   6.448   8.013  1.00  0.00     0.024 A 
HETATM    7  C   UNL     1      67.594   7.791   4.814  1.00  0.00     0.177 C 
HETATM    8  C   UNL     1      67.870   5.911   9.237  1.00  0.00     0.070 C 
ENDROOT
BRANCH   4   9
HETATM    9  C   UNL     1      64.605   7.531   5.664  1.00  0.00     0.288 C 
BRANCH   9  10
HETATM   10  N   UNL     1      63.430   7.678   6.509  1.00  0.00    -0.074 N 
HETATM   11  H   UNL     1      63.721   7.922   7.456  1.00  0.00     0.274 HD
HETATM   12  H   UNL     1      62.913   6.797   6.530  1.00  0.00     0.274 HD
HETATM   13  H   UNL     1      62.831   8.414   6.136  1.00  0.00     0.274 HD
ENDBRANCH   9  10
ENDBRANCH   4   9
TORSDOF 2
ENDMDL
MODEL 5
REMARK VINA RESULT:      -3.4      1.880      3.095
REMARK  2 active torsions:
REMARK  status: ('A' for Active; 'I' for Inactive)
REMARK    1  A    between atoms: C_4  and  C_7 
REMARK    2  A    between atoms: C_7  and  N_9 
ROOT
HETATM    1  N   UNL     1      63.369   9.798   4.992  1.00  0.00    -0.299 N 
HETATM    2  N   UNL     1      64.425   9.195   5.575  1.00  0.00    -0.303 N 
ATOM      3  HN  UNL     1      64.952   9.508   6.391  1.00  0.00     0.186 HD
HETATM    4  C   UNL     1      62.889   9.115   3.899  1.00  0.00     0.055 A 
HETATM    5  C   UNL     1      63.696   8.001   3.784  1.00  0.00     0.054 A 
HETATM    6  C   UNL     1      64.625   8.094   4.843  1.00  0.00     0.024 A 
HETATM    7  C   UNL     1      62.883  11.027   5.571  1.00  0.00     0.177 C 
HETATM    8  C   UNL     1      65.717   7.155   5.190  1.00  0.00     0.070 C 
ENDROOT
BRANCH   4   9
HETATM    9  C   UNL     1      61.756   9.565   3.057  1.00  0.00     0.288 C 
BRANCH   9  10
HETATM   10  N   UNL     1      60.555   8.807   3.376  1.00  0.00    -0.074 N 
HETATM   11  H   UNL     1      60.818   7.912   3.790  1.00  0.00     0.274 HD
HETATM   12  H   UNL     1      60.020   8.642   2.522  1.00  0.00     0.274 HD
HETATM   13  H   UNL     1      59.985   9.334   4.038  1.00  0.00     0.274 HD
ENDBRANCH   9  10
ENDBRANCH   4   9
TORSDOF 2
ENDMDL
MODEL 6
REMARK VINA RESULT:      -3.3      4.013      5.264
REMARK  2 active torsions:
REMARK  status: ('A' for Active; 'I' for Inactive)
REMARK    1  A    between atoms: C_4  and  C_7 
REMARK    2  A    between atoms: C_7  and  N_9 
ROOT
HETATM    1  N   UNL     1      65.450   7.124   6.809  1.00  0.00    -0.299 N 
HETATM    2  N   UNL     1      64.112   7.203   6.662  1.00  0.00    -0.303 N 
ATOM      3  HN  UNL     1      63.391   6.830   7.281  1.00  0.00     0.186 HD
HETATM    4  C   UNL     1      66.146   7.730   5.789  1.00  0.00     0.055 A 
HETATM    5  C   UNL     1      65.179   8.228   4.937  1.00  0.00     0.054 A 
HETATM    6  C   UNL     1      63.943   7.881   5.521  1.00  0.00     0.024 A 
HETATM    7  C   UNL     1      65.967   6.456   7.979  1.00  0.00     0.177 C 
HETATM    8  C   UNL     1      62.578   8.177   5.024  1.00  0.00     0.070 C 
ENDROOT
BRANCH   4   9
HETATM    9  C   UNL     1      67.623   7.769   5.685  1.00  0.00     0.288 C 
BRANCH   9  10
HETATM   10  N   UNL     1      68.034   7.754   4.289  1.00  0.00    -0.074 N 
HETATM   11  H   UNL     1      68.104   6.788   3.966  1.00  0.00     0.274 HD
HETATM   12  H   UNL     1      68.943   8.209   4.198  1.00  0.00     0.274 HD
HETATM   13  H   UNL     1      67.345   8.253   3.726  1.00  0.00     0.274 HD
ENDBRANCH   9  10
ENDBRANCH   4   9
TORSDOF 2
ENDMDL
MODEL 7
REMARK VINA RESULT:      -3.3      1.816      2.686
REMARK  2 active torsions:
REMARK  status: ('A' for Active; 'I' for Inactive)
REMARK    1  A    between atoms: C_4  and  C_7 
REMARK    2  A    between atoms: C_7  and  N_9 
ROOT
HETATM    1  N   UNL     1      63.255   8.765   3.739  1.00  0.00    -0.299 N 
HETATM    2  N   UNL     1      63.552   7.582   3.162  1.00  0.00    -0.303 N 
ATOM      3  HN  UNL     1      64.178   6.856   3.511  1.00  0.00     0.186 HD
HETATM    4  C   UNL     1      62.376   9.524   3.003  1.00  0.00     0.055 A 
HETATM    5  C   UNL     1      62.095   8.768   1.882  1.00  0.00     0.054 A 
HETATM    6  C   UNL     1      62.841   7.579   2.029  1.00  0.00     0.024 A 
HETATM    7  C   UNL     1      63.860   9.069   5.014  1.00  0.00     0.177 C 
HETATM    8  C   UNL     1      62.904   6.416   1.113  1.00  0.00     0.070 C 
ENDROOT
BRANCH   4   9
HETATM    9  C   UNL     1      61.902  10.873   3.389  1.00  0.00     0.288 C 
BRANCH   9  10
HETATM   10  N   UNL     1      61.598  11.662   2.205  1.00  0.00    -0.074 N 
HETATM   11  H   UNL     1      60.684  12.102   2.315  1.00  0.00     0.274 HD
HETATM   12  H   UNL     1      61.586  11.054   1.385  1.00  0.00     0.274 HD
HETATM   13  H   UNL     1      62.311  12.382   2.084  1.00  0.00     0.274 HD
ENDBRANCH   9  10
ENDBRANCH   4   9
TORSDOF 2
ENDMDL
MODEL 8
REMARK VINA RESULT:      -3.2      2.111      3.491
REMARK  2 active torsions:
REMARK  status: ('A' for Active; 'I' for Inactive)
REMARK    1  A    between atoms: C_4  and  C_7 
REMARK    2  A    between atoms: C_7  and  N_9 
ROOT
HETATM    1  N   UNL     1      63.786   7.722   3.657  1.00  0.00    -0.299 N 
HETATM    2  N   UNL     1      62.903   8.560   3.074  1.00  0.00    -0.303 N 
ATOM      3  HN  UNL     1      62.433   8.446   2.176  1.00  0.00     0.186 HD
HETATM    4  C   UNL     1      64.242   8.173   4.873  1.00  0.00     0.055 A 
HETATM    5  C   UNL     1      63.603   9.380   5.075  1.00  0.00     0.054 A 
HETATM    6  C   UNL     1      62.785   9.572   3.941  1.00  0.00     0.024 A 
HETATM    7  C   UNL     1      64.117   6.498   2.968  1.00  0.00     0.177 C 
HETATM    8  C   UNL     1      61.878  10.705   3.644  1.00  0.00     0.070 C 
ENDROOT
BRANCH   4   9
HETATM    9  C   UNL     1      65.236   7.466   5.714  1.00  0.00     0.288 C 
BRANCH   9  10
HETATM   10  N   UNL     1      64.660   7.135   7.009  1.00  0.00    -0.074 N 
HETATM   11  H   UNL     1      65.185   7.609   7.744  1.00  0.00     0.274 HD
HETATM   12  H   UNL     1      64.708   6.126   7.154  1.00  0.00     0.274 HD
HETATM   13  H   UNL     1      63.686   7.437   7.036  1.00  0.00     0.274 HD
ENDBRANCH   9  10
ENDBRANCH   4   9
TORSDOF 2
ENDMDL
MODEL 9
REMARK VINA RESULT:      -3.2      6.376      7.674
REMARK  2 active torsions:
REMARK  status: ('A' for Active; 'I' for Inactive)
REMARK    1  A    between atoms: C_4  and  C_7 
REMARK    2  A    between atoms: C_7  and  N_9 
ROOT
HETATM    1  N   UNL     1      67.155   6.363   8.071  1.00  0.00    -0.299 N 
HETATM    2  N   UNL     1      67.213   7.441   7.264  1.00  0.00    -0.303 N 
ATOM      3  HN  UNL     1      67.050   8.417   7.511  1.00  0.00     0.186 HD
HETATM    4  C   UNL     1      67.424   5.181   7.421  1.00  0.00     0.055 A 
HETATM    5  C   UNL     1      67.673   5.537   6.110  1.00  0.00     0.054 A 
HETATM    6  C   UNL     1      67.534   6.941   6.065  1.00  0.00     0.024 A 
HETATM    7  C   UNL     1      66.845   6.573   9.465  1.00  0.00     0.177 C 
HETATM    8  C   UNL     1      67.699   7.842   4.900  1.00  0.00     0.070 C 
ENDROOT
BRANCH   4   9
HETATM    9  C   UNL     1      67.403   3.845   8.061  1.00  0.00     0.288 C 
BRANCH   9  10
HETATM   10  N   UNL     1      66.133   3.182   7.809  1.00  0.00    -0.074 N 
HETATM   11  H   UNL     1      65.571   3.754   7.178  1.00  0.00     0.274 HD
HETATM   12  H   UNL     1      65.634   3.057   8.690  1.00  0.00     0.274 HD
HETATM   13  H   UNL     1      66.303   2.271   7.382  1.00  0.00     0.274 HD
ENDBRANCH   9  10
ENDBRANCH   4   9
TORSDOF 2
ENDMDL
