MODEL 1
REMARK VINA RESULT:      -5.5      0.000      0.000
REMARK  1 active torsions:
REMARK  status: ('A' for Active; 'I' for Inactive)
REMARK    1  A    between atoms: C_1  and  C_5 
ROOT
HETATM    1  C   UNL     1      63.113   8.040   4.505  1.00  0.00     0.068 A 
HETATM    2  C   UNL     1      63.234   7.082   3.511  1.00  0.00     0.107 A 
HETATM    3  C   UNL     1      62.642   9.234   3.863  1.00  0.00     0.009 A 
HETATM    4  N   UNL     1      62.858   7.638   2.320  1.00  0.00    -0.364 N 
HETATM    5  C   UNL     1      62.497   8.951   2.503  1.00  0.00     0.043 A 
HETATM    6  C   UNL     1      62.326  10.537   4.308  1.00  0.00     0.015 A 
HETATM    7  C   UNL     1      62.056   9.898   1.570  1.00  0.00     0.030 A 
HETATM    8  C   UNL     1      61.887  11.497   3.387  1.00  0.00     0.001 A 
HETATM    9  C   UNL     1      61.756  11.180   2.038  1.00  0.00     0.002 A 
HETATM   10  H   UNL     1      62.847   7.166   1.457  1.00  0.00     0.165 HD
ENDROOT
BRANCH   1  11
HETATM   11  C   UNL     1      63.416   7.842   5.909  1.00  0.00     0.211 C 
HETATM   12  O   UNL     1      62.603   7.666   6.805  1.00  0.00    -0.644 OA
HETATM   13  O   UNL     1      64.738   7.866   6.203  1.00  0.00    -0.644 OA
ENDBRANCH   1  11
TORSDOF 1
ENDMDL
MODEL 2
REMARK VINA RESULT:      -5.3      2.112      2.948
REMARK  1 active torsions:
REMARK  status: ('A' for Active; 'I' for Inactive)
REMARK    1  A    between atoms: C_1  and  C_5 
ROOT
HETATM    1  C   UNL     1      62.848   9.679   4.483  1.00  0.00     0.068 A 
HETATM    2  C   UNL     1      63.416   8.614   5.165  1.00  0.00     0.107 A 
HETATM    3  C   UNL     1      62.569   9.208   3.156  1.00  0.00     0.009 A 
HETATM    4  N   UNL     1      63.486   7.542   4.321  1.00  0.00    -0.364 N 
HETATM    5  C   UNL     1      62.982   7.875   3.087  1.00  0.00     0.043 A 
HETATM    6  C   UNL     1      62.006   9.791   1.999  1.00  0.00     0.015 A 
HETATM    7  C   UNL     1      62.862   7.099   1.927  1.00  0.00     0.030 A 
HETATM    8  C   UNL     1      61.882   9.029   0.829  1.00  0.00     0.001 A 
HETATM    9  C   UNL     1      62.306   7.703   0.797  1.00  0.00     0.002 A 
HETATM   10  H   UNL     1      63.846   6.657   4.562  1.00  0.00     0.165 HD
ENDROOT
BRANCH   1  11
HETATM   11  C   UNL     1      62.602  10.998   5.032  1.00  0.00     0.211 C 
HETATM   12  O   UNL     1      61.953  11.890   4.504  1.00  0.00    -0.644 OA
HETATM   13  O   UNL     1      63.168  11.212   6.243  1.00  0.00    -0.644 OA
ENDBRANCH   1  11
TORSDOF 1
ENDMDL
MODEL 3
REMARK VINA RESULT:      -5.3      1.649      2.899
REMARK  1 active torsions:
REMARK  status: ('A' for Active; 'I' for Inactive)
REMARK    1  A    between atoms: C_1  and  C_5 
ROOT
HETATM    1  C   UNL     1      62.820   9.592   4.177  1.00  0.00     0.068 A 
HETATM    2  C   UNL     1      62.115  10.753   3.898  1.00  0.00     0.107 A 
HETATM    3  C   UNL     1      62.691   8.751   3.021  1.00  0.00     0.009 A 
HETATM    4  N   UNL     1      61.580  10.649   2.645  1.00  0.00    -0.364 N 
HETATM    5  C   UNL     1      61.910   9.438   2.087  1.00  0.00     0.043 A 
HETATM    6  C   UNL     1      63.161   7.465   2.677  1.00  0.00     0.015 A 
HETATM    7  C   UNL     1      61.577   8.906   0.835  1.00  0.00     0.030 A 
HETATM    8  C   UNL     1      62.834   6.917   1.429  1.00  0.00     0.001 A 
HETATM    9  C   UNL     1      62.052   7.629   0.524  1.00  0.00     0.002 A 
HETATM   10  H   UNL     1      61.037  11.343   2.205  1.00  0.00     0.165 HD
ENDROOT
BRANCH   1  11
HETATM   11  C   UNL     1      63.533   9.313   5.408  1.00  0.00     0.211 C 
HETATM   12  O   UNL     1      64.586   9.825   5.764  1.00  0.00    -0.644 OA
HETATM   13  O   UNL     1      62.937   8.392   6.201  1.00  0.00    -0.644 OA
ENDBRANCH   1  11
TORSDOF 1
ENDMDL
MODEL 4
REMARK VINA RESULT:      -5.0      2.190      3.706
REMARK  1 active torsions:
REMARK  status: ('A' for Active; 'I' for Inactive)
REMARK    1  A    between atoms: C_1  and  C_5 
ROOT
HETATM    1  C   UNL     1      62.646   9.799   4.304  1.00  0.00     0.068 A 
HETATM    2  C   UNL     1      61.686   9.427   3.377  1.00  0.00     0.107 A 
HETATM    3  C   UNL     1      63.648   8.771   4.287  1.00  0.00     0.009 A 
HETATM    4  N   UNL     1      62.063   8.242   2.809  1.00  0.00    -0.364 N 
HETATM    5  C   UNL     1      63.253   7.815   3.347  1.00  0.00     0.043 A 
HETATM    6  C   UNL     1      64.857   8.557   4.984  1.00  0.00     0.015 A 
HETATM    7  C   UNL     1      64.000   6.663   3.072  1.00  0.00     0.030 A 
HETATM    8  C   UNL     1      65.615   7.408   4.723  1.00  0.00     0.001 A 
HETATM    9  C   UNL     1      65.189   6.475   3.781  1.00  0.00     0.002 A 
HETATM   10  H   UNL     1      61.555   7.764   2.114  1.00  0.00     0.165 HD
ENDROOT
BRANCH   1  11
HETATM   11  C   UNL     1      62.612  10.997   5.120  1.00  0.00     0.211 C 
HETATM   12  O   UNL     1      63.106  11.128   6.231  1.00  0.00    -0.644 OA
HETATM   13  O   UNL     1      61.957  12.038   4.554  1.00  0.00    -0.644 OA
ENDBRANCH   1  11
TORSDOF 1
ENDMDL
MODEL 5
REMARK VINA RESULT:      -4.4      2.077      3.552
REMARK  1 active torsions:
REMARK  status: ('A' for Active; 'I' for Inactive)
REMARK    1  A    between atoms: C_1  and  C_5 
ROOT
HETATM    1  C   UNL     1      62.431  10.254   3.700  1.00  0.00     0.068 A 
HETATM    2  C   UNL     1      61.596  10.522   2.627  1.00  0.00     0.107 A 
HETATM    3  C   UNL     1      62.956   8.935   3.487  1.00  0.00     0.009 A 
HETATM    4  N   UNL     1      61.599   9.441   1.790  1.00  0.00    -0.364 N 
HETATM    5  C   UNL     1      62.416   8.456   2.291  1.00  0.00     0.043 A 
HETATM    6  C   UNL     1      63.840   8.096   4.201  1.00  0.00     0.015 A 
HETATM    7  C   UNL     1      62.711   7.187   1.775  1.00  0.00     0.030 A 
HETATM    8  C   UNL     1      64.143   6.823   3.700  1.00  0.00     0.001 A 
HETATM    9  C   UNL     1      63.585   6.377   2.505  1.00  0.00     0.002 A 
HETATM   10  H   UNL     1      61.091   9.378   0.949  1.00  0.00     0.165 HD
ENDROOT
BRANCH   1  11
HETATM   11  C   UNL     1      62.696  11.151   4.807  1.00  0.00     0.211 C 
HETATM   12  O   UNL     1      63.450  10.936   5.746  1.00  0.00    -0.644 OA
HETATM   13  O   UNL     1      62.017  12.322   4.751  1.00  0.00    -0.644 OA
ENDBRANCH   1  11
TORSDOF 1
ENDMDL
MODEL 6
REMARK VINA RESULT:      -4.3      2.772      4.468
REMARK  1 active torsions:
REMARK  status: ('A' for Active; 'I' for Inactive)
REMARK    1  A    between atoms: C_1  and  C_5 
ROOT
HETATM    1  C   UNL     1      62.546   9.134   3.737  1.00  0.00     0.068 A 
HETATM    2  C   UNL     1      62.619  10.131   4.697  1.00  0.00     0.107 A 
HETATM    3  C   UNL     1      63.662   8.262   3.970  1.00  0.00     0.009 A 
HETATM    4  N   UNL     1      63.710   9.897   5.487  1.00  0.00    -0.364 N 
HETATM    5  C   UNL     1      64.368   8.768   5.064  1.00  0.00     0.043 A 
HETATM    6  C   UNL     1      64.145   7.088   3.351  1.00  0.00     0.015 A 
HETATM    7  C   UNL     1      65.527   8.163   5.568  1.00  0.00     0.030 A 
HETATM    8  C   UNL     1      65.305   6.473   3.841  1.00  0.00     0.001 A 
HETATM    9  C   UNL     1      65.985   7.006   4.933  1.00  0.00     0.002 A 
HETATM   10  H   UNL     1      63.984  10.457   6.249  1.00  0.00     0.165 HD
ENDROOT
BRANCH   1  11
HETATM   11  C   UNL     1      61.529   9.027   2.709  1.00  0.00     0.211 C 
HETATM   12  O   UNL     1      60.599   8.233   2.694  1.00  0.00    -0.644 OA
HETATM   13  O   UNL     1      61.670   9.909   1.691  1.00  0.00    -0.644 OA
ENDBRANCH   1  11
TORSDOF 1
ENDMDL
MODEL 7
REMARK VINA RESULT:      -4.3      2.402      3.091
REMARK  1 active torsions:
REMARK  status: ('A' for Active; 'I' for Inactive)
REMARK    1  A    between atoms: C_1  and  C_5 
ROOT
HETATM    1  C   UNL     1      64.828   7.369   4.308  1.00  0.00     0.068 A 
HETATM    2  C   UNL     1      65.312   7.871   5.506  1.00  0.00     0.107 A 
HETATM    3  C   UNL     1      63.769   8.246   3.897  1.00  0.00     0.009 A 
HETATM    4  N   UNL     1      64.603   8.995   5.825  1.00  0.00    -0.364 N 
HETATM    5  C   UNL     1      63.653   9.247   4.865  1.00  0.00     0.043 A 
HETATM    6  C   UNL     1      62.891   8.286   2.791  1.00  0.00     0.015 A 
HETATM    7  C   UNL     1      62.708  10.277   4.786  1.00  0.00     0.030 A 
HETATM    8  C   UNL     1      61.938   9.308   2.699  1.00  0.00     0.001 A 
HETATM    9  C   UNL     1      61.850  10.288   3.684  1.00  0.00     0.002 A 
HETATM   10  H   UNL     1      64.753   9.546   6.627  1.00  0.00     0.165 HD
ENDROOT
BRANCH   1  11
HETATM   11  C   UNL     1      65.317   6.183   3.632  1.00  0.00     0.211 C 
HETATM   12  O   UNL     1      64.636   5.255   3.218  1.00  0.00    -0.644 OA
HETATM   13  O   UNL     1      66.662   6.147   3.470  1.00  0.00    -0.644 OA
ENDBRANCH   1  11
TORSDOF 1
ENDMDL
MODEL 8
REMARK VINA RESULT:      -4.2      2.970      4.426
REMARK  1 active torsions:
REMARK  status: ('A' for Active; 'I' for Inactive)
REMARK    1  A    between atoms: C_1  and  C_5 
ROOT
HETATM    1  C   UNL     1      62.442   9.381   4.173  1.00  0.00     0.068 A 
HETATM    2  C   UNL     1      63.502   9.545   5.052  1.00  0.00     0.107 A 
HETATM    3  C   UNL     1      61.849   8.111   4.485  1.00  0.00     0.009 A 
HETATM    4  N   UNL     1      63.567   8.450   5.867  1.00  0.00    -0.364 N 
HETATM    5  C   UNL     1      62.575   7.556   5.542  1.00  0.00     0.043 A 
HETATM    6  C   UNL     1      60.761   7.375   3.967  1.00  0.00     0.015 A 
HETATM    7  C   UNL     1      62.272   6.309   6.103  1.00  0.00     0.030 A 
HETATM    8  C   UNL     1      60.447   6.124   4.514  1.00  0.00     0.001 A 
HETATM    9  C   UNL     1      61.194   5.601   5.566  1.00  0.00     0.002 A 
HETATM   10  H   UNL     1      64.230   8.320   6.584  1.00  0.00     0.165 HD
ENDROOT
BRANCH   1  11
HETATM   11  C   UNL     1      62.042  10.325   3.148  1.00  0.00     0.211 C 
HETATM   12  O   UNL     1      61.960  10.097   1.949  1.00  0.00    -0.644 OA
HETATM   13  O   UNL     1      61.744  11.561   3.614  1.00  0.00    -0.644 OA
ENDBRANCH   1  11
TORSDOF 1
ENDMDL
MODEL 9
REMARK VINA RESULT:      -4.1      5.710      6.913
REMARK  1 active torsions:
REMARK  status: ('A' for Active; 'I' for Inactive)
REMARK    1  A    between atoms: C_1  and  C_5 
ROOT
HETATM    1  C   UNL     1      67.508   4.949   7.952  1.00  0.00     0.068 A 
HETATM    2  C   UNL     1      67.453   5.873   8.984  1.00  0.00     0.107 A 
HETATM    3  C   UNL     1      67.311   5.686   6.736  1.00  0.00     0.009 A 
HETATM    4  N   UNL     1      67.239   7.113   8.449  1.00  0.00    -0.364 N 
HETATM    5  C   UNL     1      67.143   7.030   7.082  1.00  0.00     0.043 A 
HETATM    6  C   UNL     1      67.255   5.339   5.368  1.00  0.00     0.015 A 
HETATM    7  C   UNL     1      66.922   8.038   6.134  1.00  0.00     0.030 A 
HETATM    8  C   UNL     1      67.031   6.335   4.409  1.00  0.00     0.001 A 
HETATM    9  C   UNL     1      66.867   7.664   4.790  1.00  0.00     0.002 A 
HETATM   10  H   UNL     1      67.165   7.946   8.970  1.00  0.00     0.165 HD
ENDROOT
BRANCH   1  11
HETATM   11  C   UNL     1      67.721   3.524   8.107  1.00  0.00     0.211 C 
HETATM   12  O   UNL     1      68.061   2.745   7.227  1.00  0.00    -0.644 OA
HETATM   13  O   UNL     1      67.507   3.061   9.362  1.00  0.00    -0.644 OA
ENDBRANCH   1  11
TORSDOF 1
ENDMDL
