MODEL 1
REMARK VINA RESULT:      -5.1      0.000      0.000
REMARK  4 active torsions:
REMARK  status: ('A' for Active; 'I' for Inactive)
REMARK    1  A    between atoms: N_1  and  C_5 
REMARK    2  A    between atoms: C_4  and  C_10 
REMARK    3  A    between atoms: C_5  and  C_8 
REMARK    4  A    between atoms: N_9  and  C_10 
ROOT
HETATM    1  N   UNL     1      64.310   7.873   5.707  1.00  0.00    -0.063 N 
HETATM    2  O   UNL     1      66.052   5.916   7.065  1.00  0.00    -0.381 OA
HETATM    3  C   UNL     1      65.727   8.130   6.037  1.00  0.00     0.268 C 
HETATM    4  C   UNL     1      66.654   6.898   6.196  1.00  0.00     0.172 C 
HETATM    5  C   UNL     1      64.722   5.566   6.674  1.00  0.00     0.196 C 
HETATM    6  C   UNL     1      63.803   6.789   6.560  1.00  0.00     0.261 C 
HETATM    7  H   UNL     1      63.798   8.731   5.917  1.00  0.00     0.280 HD
ENDROOT
BRANCH   1   8
HETATM    8  C   UNL     1      64.008   7.698   4.282  1.00  0.00     0.273 C 
BRANCH   8   9
HETATM    9  C   UNL     1      63.123   8.806   3.735  1.00  0.00    -0.033 A 
HETATM   10  C   UNL     1      62.628   8.756   2.425  1.00  0.00     0.009 A 
HETATM   11  C   UNL     1      61.950   9.851   1.881  1.00  0.00     0.001 A 
HETATM   12  C   UNL     1      61.727  10.989   2.653  1.00  0.00     0.000 A 
HETATM   13  C   UNL     1      62.137  11.017   3.983  1.00  0.00     0.001 A 
HETATM   14  C   UNL     1      62.822   9.929   4.525  1.00  0.00     0.009 A 
ENDBRANCH   8   9
ENDBRANCH   1   8
BRANCH   4  15
HETATM   15  C   UNL     1      67.149   6.241   4.888  1.00  0.00     0.263 C 
BRANCH  15  16
HETATM   16  N   UNL     1      67.659   7.181   3.892  1.00  0.00    -0.077 N 
HETATM   17  H   UNL     1      68.523   6.817   3.492  1.00  0.00     0.274 HD
HETATM   18  H   UNL     1      67.844   8.081   4.336  1.00  0.00     0.274 HD
HETATM   19  H   UNL     1      66.966   7.303   3.153  1.00  0.00     0.274 HD
ENDBRANCH  15  16
ENDBRANCH   4  15
TORSDOF 4
ENDMDL
MODEL 2
REMARK VINA RESULT:      -4.8      1.582      2.602
REMARK  4 active torsions:
REMARK  status: ('A' for Active; 'I' for Inactive)
REMARK    1  A    between atoms: N_1  and  C_5 
REMARK    2  A    between atoms: C_4  and  C_10 
REMARK    3  A    between atoms: C_5  and  C_8 
REMARK    4  A    between atoms: N_9  and  C_10 
ROOT
HETATM    1  N   UNL     1      65.251   7.169   4.627  1.00  0.00    -0.063 N 
HETATM    2  O   UNL     1      67.403   6.300   6.451  1.00  0.00    -0.381 OA
HETATM    3  C   UNL     1      65.680   5.762   4.775  1.00  0.00     0.268 C 
HETATM    4  C   UNL     1      66.359   5.364   6.110  1.00  0.00     0.172 C 
HETATM    5  C   UNL     1      66.959   7.660   6.436  1.00  0.00     0.196 C 
HETATM    6  C   UNL     1      66.326   8.055   5.096  1.00  0.00     0.261 C 
HETATM    7  H   UNL     1      65.097   7.327   3.631  1.00  0.00     0.280 HD
ENDROOT
BRANCH   1   8
HETATM    8  C   UNL     1      63.931   7.494   5.179  1.00  0.00     0.273 C 
BRANCH   8   9
HETATM    9  C   UNL     1      63.301   8.701   4.503  1.00  0.00    -0.033 A 
HETATM   10  C   UNL     1      63.121   9.906   5.195  1.00  0.00     0.009 A 
HETATM   11  C   UNL     1      62.399  10.954   4.617  1.00  0.00     0.001 A 
HETATM   12  C   UNL     1      61.884  10.823   3.329  1.00  0.00     0.000 A 
HETATM   13  C   UNL     1      62.132   9.664   2.598  1.00  0.00     0.001 A 
HETATM   14  C   UNL     1      62.844   8.613   3.176  1.00  0.00     0.009 A 
ENDBRANCH   8   9
ENDBRANCH   1   8
BRANCH   4  15
HETATM   15  C   UNL     1      65.418   5.131   7.313  1.00  0.00     0.263 C 
BRANCH  15  16
HETATM   16  N   UNL     1      66.101   4.812   8.565  1.00  0.00    -0.077 N 
HETATM   17  H   UNL     1      66.608   5.634   8.895  1.00  0.00     0.274 HD
HETATM   18  H   UNL     1      66.760   4.049   8.409  1.00  0.00     0.274 HD
HETATM   19  H   UNL     1      65.415   4.532   9.265  1.00  0.00     0.274 HD
ENDBRANCH  15  16
ENDBRANCH   4  15
TORSDOF 4
ENDMDL
MODEL 3
REMARK VINA RESULT:      -4.8      1.441      2.130
REMARK  4 active torsions:
REMARK  status: ('A' for Active; 'I' for Inactive)
REMARK    1  A    between atoms: N_1  and  C_5 
REMARK    2  A    between atoms: C_4  and  C_10 
REMARK    3  A    between atoms: C_5  and  C_8 
REMARK    4  A    between atoms: N_9  and  C_10 
ROOT
HETATM    1  N   UNL     1      65.158   7.841   4.879  1.00  0.00    -0.063 N 
HETATM    2  O   UNL     1      66.933   6.146   6.519  1.00  0.00    -0.381 OA
HETATM    3  C   UNL     1      65.520   6.453   4.525  1.00  0.00     0.268 C 
HETATM    4  C   UNL     1      65.943   5.512   5.682  1.00  0.00     0.172 C 
HETATM    5  C   UNL     1      66.532   7.442   6.973  1.00  0.00     0.196 C 
HETATM    6  C   UNL     1      66.155   8.378   5.817  1.00  0.00     0.261 C 
HETATM    7  H   UNL     1      65.187   8.382   4.015  1.00  0.00     0.280 HD
ENDROOT
BRANCH   1   8
HETATM    8  C   UNL     1      63.770   8.049   5.306  1.00  0.00     0.273 C 
BRANCH   8   9
HETATM    9  C   UNL     1      63.011   8.984   4.378  1.00  0.00    -0.033 A 
HETATM   10  C   UNL     1      62.705   8.607   3.063  1.00  0.00     0.009 A 
HETATM   11  C   UNL     1      62.151   9.530   2.173  1.00  0.00     0.001 A 
HETATM   12  C   UNL     1      61.860  10.825   2.598  1.00  0.00     0.000 A 
HETATM   13  C   UNL     1      62.078  11.185   3.925  1.00  0.00     0.001 A 
HETATM   14  C   UNL     1      62.640  10.268   4.813  1.00  0.00     0.009 A 
ENDBRANCH   8   9
ENDBRANCH   1   8
BRANCH   4  15
HETATM   15  C   UNL     1      64.800   4.923   6.538  1.00  0.00     0.263 C 
BRANCH  15  16
HETATM   16  N   UNL     1      65.244   4.080   7.646  1.00  0.00    -0.077 N 
HETATM   17  H   UNL     1      66.245   4.209   7.791  1.00  0.00     0.274 HD
HETATM   18  H   UNL     1      65.057   3.102   7.426  1.00  0.00     0.274 HD
HETATM   19  H   UNL     1      64.741   4.340   8.493  1.00  0.00     0.274 HD
ENDBRANCH  15  16
ENDBRANCH   4  15
TORSDOF 4
ENDMDL
MODEL 4
REMARK VINA RESULT:      -4.7      1.326      1.905
REMARK  4 active torsions:
REMARK  status: ('A' for Active; 'I' for Inactive)
REMARK    1  A    between atoms: N_1  and  C_5 
REMARK    2  A    between atoms: C_4  and  C_10 
REMARK    3  A    between atoms: C_5  and  C_8 
REMARK    4  A    between atoms: N_9  and  C_10 
ROOT
HETATM    1  N   UNL     1      64.306   7.140   6.442  1.00  0.00    -0.063 N 
HETATM    2  O   UNL     1      65.244   4.441   7.180  1.00  0.00    -0.381 OA
HETATM    3  C   UNL     1      65.314   6.883   7.492  1.00  0.00     0.268 C 
HETATM    4  C   UNL     1      66.124   5.565   7.391  1.00  0.00     0.172 C 
HETATM    5  C   UNL     1      64.350   4.630   6.080  1.00  0.00     0.196 C 
HETATM    6  C   UNL     1      63.524   5.917   6.211  1.00  0.00     0.261 C 
HETATM    7  H   UNL     1      63.688   7.869   6.799  1.00  0.00     0.280 HD
ENDROOT
BRANCH   1   8
HETATM    8  C   UNL     1      64.809   7.763   5.214  1.00  0.00     0.273 C 
BRANCH   8   9
HETATM    9  C   UNL     1      63.836   8.779   4.637  1.00  0.00    -0.033 A 
HETATM   10  C   UNL     1      63.570   9.984   5.300  1.00  0.00     0.009 A 
HETATM   11  C   UNL     1      62.559  10.835   4.845  1.00  0.00     0.001 A 
HETATM   12  C   UNL     1      61.833  10.510   3.701  1.00  0.00     0.000 A 
HETATM   13  C   UNL     1      62.147   9.359   2.984  1.00  0.00     0.001 A 
HETATM   14  C   UNL     1      63.150   8.503   3.441  1.00  0.00     0.009 A 
ENDBRANCH   8   9
ENDBRANCH   1   8
BRANCH   4  15
HETATM   15  C   UNL     1      67.283   5.551   6.370  1.00  0.00     0.263 C 
BRANCH  15  16
HETATM   16  N   UNL     1      68.055   6.791   6.312  1.00  0.00    -0.077 N 
HETATM   17  H   UNL     1      69.037   6.589   6.497  1.00  0.00     0.274 HD
HETATM   18  H   UNL     1      67.705   7.443   7.014  1.00  0.00     0.274 HD
HETATM   19  H   UNL     1      67.962   7.206   5.386  1.00  0.00     0.274 HD
ENDBRANCH  15  16
ENDBRANCH   4  15
TORSDOF 4
ENDMDL
MODEL 5
REMARK VINA RESULT:      -4.5      2.578      5.739
REMARK  4 active torsions:
REMARK  status: ('A' for Active; 'I' for Inactive)
REMARK    1  A    between atoms: N_1  and  C_5 
REMARK    2  A    between atoms: C_4  and  C_10 
REMARK    3  A    between atoms: C_5  and  C_8 
REMARK    4  A    between atoms: N_9  and  C_10 
ROOT
HETATM    1  N   UNL     1      63.417   8.819   5.450  1.00  0.00    -0.063 N 
HETATM    2  O   UNL     1      61.320  10.174   3.875  1.00  0.00    -0.381 OA
HETATM    3  C   UNL     1      62.306   8.108   4.783  1.00  0.00     0.268 C 
HETATM    4  C   UNL     1      61.648   8.804   3.564  1.00  0.00     0.172 C 
HETATM    5  C   UNL     1      62.429  10.907   4.403  1.00  0.00     0.196 C 
HETATM    6  C   UNL     1      63.047  10.231   5.633  1.00  0.00     0.261 C 
HETATM    7  H   UNL     1      63.538   8.384   6.365  1.00  0.00     0.280 HD
ENDROOT
BRANCH   1   8
HETATM    8  C   UNL     1      64.745   8.626   4.859  1.00  0.00     0.273 C 
BRANCH   8   9
HETATM    9  C   UNL     1      65.599   7.652   5.655  1.00  0.00    -0.033 A 
HETATM   10  C   UNL     1      65.078   6.974   6.766  1.00  0.00     0.009 A 
HETATM   11  C   UNL     1      65.913   6.207   7.582  1.00  0.00     0.001 A 
HETATM   12  C   UNL     1      67.266   6.077   7.275  1.00  0.00     0.000 A 
HETATM   13  C   UNL     1      67.776   6.673   6.125  1.00  0.00     0.001 A 
HETATM   14  C   UNL     1      66.947   7.448   5.314  1.00  0.00     0.009 A 
ENDBRANCH   8   9
ENDBRANCH   1   8
BRANCH   4  15
HETATM   15  C   UNL     1      62.417   8.715   2.227  1.00  0.00     0.263 C 
BRANCH  15  16
HETATM   16  N   UNL     1      61.783   9.418   1.115  1.00  0.00    -0.077 N 
HETATM   17  H   UNL     1      62.463  10.034   0.669  1.00  0.00     0.274 HD
HETATM   18  H   UNL     1      61.001   9.973   1.463  1.00  0.00     0.274 HD
HETATM   19  H   UNL     1      61.442   8.740   0.434  1.00  0.00     0.274 HD
ENDBRANCH  15  16
ENDBRANCH   4  15
TORSDOF 4
ENDMDL
MODEL 6
REMARK VINA RESULT:      -4.1      1.795      2.582
REMARK  4 active torsions:
REMARK  status: ('A' for Active; 'I' for Inactive)
REMARK    1  A    between atoms: N_1  and  C_5 
REMARK    2  A    between atoms: C_4  and  C_10 
REMARK    3  A    between atoms: C_5  and  C_8 
REMARK    4  A    between atoms: N_9  and  C_10 
ROOT
HETATM    1  N   UNL     1      63.230   6.919   4.831  1.00  0.00    -0.063 N 
HETATM    2  O   UNL     1      65.987   5.903   5.105  1.00  0.00    -0.381 OA
HETATM    3  C   UNL     1      63.923   6.774   6.128  1.00  0.00     0.268 C 
HETATM    4  C   UNL     1      65.473   6.800   6.111  1.00  0.00     0.172 C 
HETATM    5  C   UNL     1      65.412   6.123   3.814  1.00  0.00     0.196 C 
HETATM    6  C   UNL     1      63.880   6.055   3.834  1.00  0.00     0.261 C 
HETATM    7  H   UNL     1      62.271   6.602   4.973  1.00  0.00     0.280 HD
ENDROOT
BRANCH   1   8
HETATM    8  C   UNL     1      63.015   8.296   4.372  1.00  0.00     0.273 C 
BRANCH   8   9
HETATM    9  C   UNL     1      62.047   8.374   3.202  1.00  0.00    -0.033 A 
HETATM   10  C   UNL     1      60.756   7.836   3.294  1.00  0.00     0.009 A 
HETATM   11  C   UNL     1      59.933   7.772   2.167  1.00  0.00     0.001 A 
HETATM   12  C   UNL     1      60.377   8.279   0.947  1.00  0.00     0.000 A 
HETATM   13  C   UNL     1      61.622   8.895   0.864  1.00  0.00     0.001 A 
HETATM   14  C   UNL     1      62.449   8.952   1.986  1.00  0.00     0.009 A 
ENDBRANCH   8   9
ENDBRANCH   1   8
BRANCH   4  15
HETATM   15  C   UNL     1      66.133   8.192   5.990  1.00  0.00     0.263 C 
BRANCH  15  16
HETATM   16  N   UNL     1      66.923   8.591   7.153  1.00  0.00    -0.077 N 
HETATM   17  H   UNL     1      67.740   7.986   7.233  1.00  0.00     0.274 HD
HETATM   18  H   UNL     1      66.356   8.507   7.996  1.00  0.00     0.274 HD
HETATM   19  H   UNL     1      67.227   9.558   7.042  1.00  0.00     0.274 HD
ENDBRANCH  15  16
ENDBRANCH   4  15
TORSDOF 4
ENDMDL
MODEL 7
REMARK VINA RESULT:      -4.1      2.443      5.831
REMARK  4 active torsions:
REMARK  status: ('A' for Active; 'I' for Inactive)
REMARK    1  A    between atoms: N_1  and  C_5 
REMARK    2  A    between atoms: C_4  and  C_10 
REMARK    3  A    between atoms: C_5  and  C_8 
REMARK    4  A    between atoms: N_9  and  C_10 
ROOT
HETATM    1  N   UNL     1      63.937   6.694   4.888  1.00  0.00    -0.063 N 
HETATM    2  O   UNL     1      61.975   8.563   3.719  1.00  0.00    -0.381 OA
HETATM    3  C   UNL     1      64.296   8.016   4.334  1.00  0.00     0.268 C 
HETATM    4  C   UNL     1      63.185   9.096   4.298  1.00  0.00     0.172 C 
HETATM    5  C   UNL     1      61.549   7.346   4.338  1.00  0.00     0.196 C 
HETATM    6  C   UNL     1      62.644   6.270   4.332  1.00  0.00     0.261 C 
HETATM    7  H   UNL     1      64.661   6.041   4.585  1.00  0.00     0.280 HD
ENDROOT
BRANCH   1   8
HETATM    8  C   UNL     1      64.027   6.567   6.346  1.00  0.00     0.273 C 
BRANCH   8   9
HETATM    9  C   UNL     1      65.413   6.150   6.810  1.00  0.00    -0.033 A 
HETATM   10  C   UNL     1      65.929   6.593   8.036  1.00  0.00     0.009 A 
HETATM   11  C   UNL     1      67.259   6.336   8.378  1.00  0.00     0.001 A 
HETATM   12  C   UNL     1      68.075   5.602   7.518  1.00  0.00     0.000 A 
HETATM   13  C   UNL     1      67.548   5.082   6.339  1.00  0.00     0.001 A 
HETATM   14  C   UNL     1      66.223   5.346   5.990  1.00  0.00     0.009 A 
ENDBRANCH   8   9
ENDBRANCH   1   8
BRANCH   4  15
HETATM   15  C   UNL     1      62.883   9.812   5.633  1.00  0.00     0.263 C 
BRANCH  15  16
HETATM   16  N   UNL     1      63.540  11.108   5.787  1.00  0.00    -0.077 N 
HETATM   17  H   UNL     1      63.578  11.580   4.884  1.00  0.00     0.274 HD
HETATM   18  H   UNL     1      64.488  10.970   6.138  1.00  0.00     0.274 HD
HETATM   19  H   UNL     1      63.013  11.680   6.447  1.00  0.00     0.274 HD
ENDBRANCH  15  16
ENDBRANCH   4  15
TORSDOF 4
ENDMDL
MODEL 8
REMARK VINA RESULT:      -4.0      2.484      3.861
REMARK  4 active torsions:
REMARK  status: ('A' for Active; 'I' for Inactive)
REMARK    1  A    between atoms: N_1  and  C_5 
REMARK    2  A    between atoms: C_4  and  C_10 
REMARK    3  A    between atoms: C_5  and  C_8 
REMARK    4  A    between atoms: N_9  and  C_10 
ROOT
HETATM    1  N   UNL     1      62.581   6.437   4.118  1.00  0.00    -0.063 N 
HETATM    2  O   UNL     1      63.444   4.552   6.218  1.00  0.00    -0.381 OA
HETATM    3  C   UNL     1      62.037   5.071   4.265  1.00  0.00     0.268 C 
HETATM    4  C   UNL     1      62.116   4.423   5.671  1.00  0.00     0.172 C 
HETATM    5  C   UNL     1      63.928   5.898   6.198  1.00  0.00     0.196 C 
HETATM    6  C   UNL     1      63.885   6.515   4.794  1.00  0.00     0.261 C 
HETATM    7  H   UNL     1      62.713   6.596   3.119  1.00  0.00     0.280 HD
ENDROOT
BRANCH   1   8
HETATM    8  C   UNL     1      61.666   7.529   4.466  1.00  0.00     0.273 C 
BRANCH   8   9
HETATM    9  C   UNL     1      61.854   8.749   3.579  1.00  0.00    -0.033 A 
HETATM   10  C   UNL     1      62.008  10.028   4.131  1.00  0.00     0.009 A 
HETATM   11  C   UNL     1      62.020  11.158   3.309  1.00  0.00     0.001 A 
HETATM   12  C   UNL     1      61.918  11.019   1.926  1.00  0.00     0.000 A 
HETATM   13  C   UNL     1      61.852   9.749   1.360  1.00  0.00     0.001 A 
HETATM   14  C   UNL     1      61.831   8.619   2.180  1.00  0.00     0.009 A 
ENDBRANCH   8   9
ENDBRANCH   1   8
BRANCH   4  15
HETATM   15  C   UNL     1      61.055   4.883   6.696  1.00  0.00     0.263 C 
BRANCH  15  16
HETATM   16  N   UNL     1      60.687   3.870   7.683  1.00  0.00    -0.077 N 
HETATM   17  H   UNL     1      61.398   3.140   7.703  1.00  0.00     0.274 HD
HETATM   18  H   UNL     1      59.787   3.460   7.432  1.00  0.00     0.274 HD
HETATM   19  H   UNL     1      60.618   4.302   8.604  1.00  0.00     0.274 HD
ENDBRANCH  15  16
ENDBRANCH   4  15
TORSDOF 4
ENDMDL
MODEL 9
REMARK VINA RESULT:      -4.0      2.295      3.598
REMARK  4 active torsions:
REMARK  status: ('A' for Active; 'I' for Inactive)
REMARK    1  A    between atoms: N_1  and  C_5 
REMARK    2  A    between atoms: C_4  and  C_10 
REMARK    3  A    between atoms: C_5  and  C_8 
REMARK    4  A    between atoms: N_9  and  C_10 
ROOT
HETATM    1  N   UNL     1      62.985   6.103   4.301  1.00  0.00    -0.063 N 
HETATM    2  O   UNL     1      63.670   7.482   6.819  1.00  0.00    -0.381 OA
HETATM    3  C   UNL     1      62.094   7.073   4.971  1.00  0.00     0.268 C 
HETATM    4  C   UNL     1      62.757   8.121   5.903  1.00  0.00     0.172 C 
HETATM    5  C   UNL     1      64.622   6.639   6.163  1.00  0.00     0.196 C 
HETATM    6  C   UNL     1      63.953   5.580   5.277  1.00  0.00     0.261 C 
HETATM    7  H   UNL     1      62.395   5.338   3.974  1.00  0.00     0.280 HD
ENDROOT
BRANCH   1   8
HETATM    8  C   UNL     1      63.594   6.557   3.046  1.00  0.00     0.273 C 
BRANCH   8   9
HETATM    9  C   UNL     1      62.565   7.074   2.055  1.00  0.00    -0.033 A 
HETATM   10  C   UNL     1      62.490   8.436   1.732  1.00  0.00     0.009 A 
HETATM   11  C   UNL     1      61.443   8.921   0.946  1.00  0.00     0.001 A 
HETATM   12  C   UNL     1      60.483   8.047   0.441  1.00  0.00     0.000 A 
HETATM   13  C   UNL     1      60.595   6.680   0.681  1.00  0.00     0.001 A 
HETATM   14  C   UNL     1      61.635   6.194   1.474  1.00  0.00     0.009 A 
ENDBRANCH   8   9
ENDBRANCH   1   8
BRANCH   4  15
HETATM   15  C   UNL     1      63.432   9.324   5.207  1.00  0.00     0.263 C 
BRANCH  15  16
HETATM   16  N   UNL     1      63.221  10.606   5.875  1.00  0.00    -0.077 N 
HETATM   17  H   UNL     1      62.693  10.460   6.735  1.00  0.00     0.274 HD
HETATM   18  H   UNL     1      62.699  11.230   5.259  1.00  0.00     0.274 HD
HETATM   19  H   UNL     1      64.123  11.026   6.098  1.00  0.00     0.274 HD
ENDBRANCH  15  16
ENDBRANCH   4  15
TORSDOF 4
ENDMDL
