MODEL 1
REMARK VINA RESULT:      -5.4      0.000      0.000
REMARK  1 active torsions:
REMARK  status: ('A' for Active; 'I' for Inactive)
REMARK    1  A    between atoms: CA_1  and  C_4 
ROOT
HETATM    1  CA  UNL     1      63.103   8.038   5.410  1.00  0.00     0.111 A 
HETATM    2  N   UNL     1      62.829   9.378   5.571  1.00  0.00    -0.350 N 
HETATM    3  C   UNL     1      62.954   7.767   4.061  1.00  0.00     0.050 A 
HETATM    4  C   UNL     1      62.488   9.959   4.373  1.00  0.00     0.043 A 
HETATM    5  C   UNL     1      62.561   8.962   3.403  1.00  0.00    -0.007 A 
HETATM    6  C   UNL     1      62.121  11.277   4.075  1.00  0.00     0.030 A 
HETATM    7  C   UNL     1      62.255   9.289   2.068  1.00  0.00     0.014 A 
HETATM    8  C   UNL     1      61.815  11.578   2.744  1.00  0.00     0.002 A 
HETATM    9  C   UNL     1      61.880  10.600   1.753  1.00  0.00     0.001 A 
HETATM   10  H   UNL     1      62.871   9.856   6.431  1.00  0.00     0.166 HD
ENDROOT
BRANCH   1  11
HETATM   11  C   UNL     1      63.460   7.143   6.469  1.00  0.00     0.226 C 
HETATM   12  O   UNL     1      64.443   7.182   7.191  1.00  0.00    -0.643 OA
HETATM   13  OXT UNL     1      62.540   6.165   6.610  1.00  0.00    -0.643 OA
ENDBRANCH   1  11
TORSDOF 1
ENDMDL
MODEL 2
REMARK VINA RESULT:      -5.0      1.186      1.915
REMARK  1 active torsions:
REMARK  status: ('A' for Active; 'I' for Inactive)
REMARK    1  A    between atoms: CA_1  and  C_4 
ROOT
HETATM    1  CA  UNL     1      63.687   7.888   5.138  1.00  0.00     0.111 A 
HETATM    2  N   UNL     1      63.439   7.573   3.820  1.00  0.00    -0.350 N 
HETATM    3  C   UNL     1      63.218   9.176   5.328  1.00  0.00     0.050 A 
HETATM    4  C   UNL     1      62.850   8.627   3.164  1.00  0.00     0.043 A 
HETATM    5  C   UNL     1      62.698   9.652   4.096  1.00  0.00    -0.007 A 
HETATM    6  C   UNL     1      62.446   8.755   1.829  1.00  0.00     0.030 A 
HETATM    7  C   UNL     1      62.115  10.865   3.683  1.00  0.00     0.014 A 
HETATM    8  C   UNL     1      61.875   9.970   1.440  1.00  0.00     0.002 A 
HETATM    9  C   UNL     1      61.711  11.013   2.351  1.00  0.00     0.001 A 
HETATM   10  H   UNL     1      63.655   6.707   3.404  1.00  0.00     0.166 HD
ENDROOT
BRANCH   1  11
HETATM   11  C   UNL     1      64.318   7.016   6.082  1.00  0.00     0.226 C 
HETATM   12  O   UNL     1      64.450   7.174   7.285  1.00  0.00    -0.643 OA
HETATM   13  OXT UNL     1      64.802   5.911   5.475  1.00  0.00    -0.643 OA
ENDBRANCH   1  11
TORSDOF 1
ENDMDL
MODEL 3
REMARK VINA RESULT:      -4.9      2.810      4.371
REMARK  1 active torsions:
REMARK  status: ('A' for Active; 'I' for Inactive)
REMARK    1  A    between atoms: CA_1  and  C_4 
ROOT
HETATM    1  CA  UNL     1      63.426   9.750   4.957  1.00  0.00     0.111 A 
HETATM    2  N   UNL     1      64.497   9.150   5.582  1.00  0.00    -0.350 N 
HETATM    3  C   UNL     1      63.072   8.922   3.905  1.00  0.00     0.050 A 
HETATM    4  C   UNL     1      64.848   7.983   4.947  1.00  0.00     0.043 A 
HETATM    5  C   UNL     1      63.962   7.815   3.885  1.00  0.00    -0.007 A 
HETATM    6  C   UNL     1      65.874   7.071   5.225  1.00  0.00     0.030 A 
HETATM    7  C   UNL     1      64.100   6.685   3.056  1.00  0.00     0.014 A 
HETATM    8  C   UNL     1      65.996   5.960   4.386  1.00  0.00     0.002 A 
HETATM    9  C   UNL     1      65.123   5.767   3.316  1.00  0.00     0.001 A 
HETATM   10  H   UNL     1      64.950   9.511   6.378  1.00  0.00     0.166 HD
ENDROOT
BRANCH   1  11
HETATM   11  C   UNL     1      62.837  10.993   5.355  1.00  0.00     0.226 C 
HETATM   12  O   UNL     1      62.040  11.682   4.739  1.00  0.00    -0.643 OA
HETATM   13  OXT UNL     1      63.283  11.373   6.571  1.00  0.00    -0.643 OA
ENDBRANCH   1  11
TORSDOF 1
ENDMDL
MODEL 4
REMARK VINA RESULT:      -4.7      3.050      4.648
REMARK  1 active torsions:
REMARK  status: ('A' for Active; 'I' for Inactive)
REMARK    1  A    between atoms: CA_1  and  C_4 
ROOT
HETATM    1  CA  UNL     1      63.353   9.120   4.481  1.00  0.00     0.111 A 
HETATM    2  N   UNL     1      64.291   9.291   5.475  1.00  0.00    -0.350 N 
HETATM    3  C   UNL     1      63.734   7.995   3.771  1.00  0.00     0.050 A 
HETATM    4  C   UNL     1      65.267   8.325   5.403  1.00  0.00     0.043 A 
HETATM    5  C   UNL     1      64.937   7.493   4.335  1.00  0.00    -0.007 A 
HETATM    6  C   UNL     1      66.408   8.126   6.190  1.00  0.00     0.030 A 
HETATM    7  C   UNL     1      65.781   6.408   4.033  1.00  0.00     0.014 A 
HETATM    8  C   UNL     1      67.235   7.046   5.868  1.00  0.00     0.002 A 
HETATM    9  C   UNL     1      66.930   6.198   4.805  1.00  0.00     0.001 A 
HETATM   10  H   UNL     1      64.266  10.009   6.148  1.00  0.00     0.166 HD
ENDROOT
BRANCH   1  11
HETATM   11  C   UNL     1      62.225   9.976   4.266  1.00  0.00     0.226 C 
HETATM   12  O   UNL     1      62.107  11.156   4.552  1.00  0.00    -0.643 OA
HETATM   13  OXT UNL     1      61.214   9.306   3.672  1.00  0.00    -0.643 OA
ENDBRANCH   1  11
TORSDOF 1
ENDMDL
MODEL 5
REMARK VINA RESULT:      -4.3      1.663      2.545
REMARK  1 active torsions:
REMARK  status: ('A' for Active; 'I' for Inactive)
REMARK    1  A    between atoms: CA_1  and  C_4 
ROOT
HETATM    1  CA  UNL     1      62.902   7.507   4.840  1.00  0.00     0.111 A 
HETATM    2  N   UNL     1      62.964   6.676   3.743  1.00  0.00    -0.350 N 
HETATM    3  C   UNL     1      62.515   8.749   4.370  1.00  0.00     0.050 A 
HETATM    4  C   UNL     1      62.652   7.358   2.591  1.00  0.00     0.043 A 
HETATM    5  C   UNL     1      62.363   8.670   2.960  1.00  0.00    -0.007 A 
HETATM    6  C   UNL     1      62.608   6.920   1.262  1.00  0.00     0.030 A 
HETATM    7  C   UNL     1      62.010   9.595   1.960  1.00  0.00     0.014 A 
HETATM    8  C   UNL     1      62.261   7.858   0.284  1.00  0.00     0.002 A 
HETATM    9  C   UNL     1      61.967   9.177   0.625  1.00  0.00     0.001 A 
HETATM   10  H   UNL     1      63.201   5.721   3.781  1.00  0.00     0.166 HD
ENDROOT
BRANCH   1  11
HETATM   11  C   UNL     1      63.199   7.110   6.184  1.00  0.00     0.226 C 
HETATM   12  O   UNL     1      64.037   6.311   6.568  1.00  0.00    -0.643 OA
HETATM   13  OXT UNL     1      62.398   7.747   7.066  1.00  0.00    -0.643 OA
ENDBRANCH   1  11
TORSDOF 1
ENDMDL
MODEL 6
REMARK VINA RESULT:      -4.2      2.980      3.687
REMARK  1 active torsions:
REMARK  status: ('A' for Active; 'I' for Inactive)
REMARK    1  A    between atoms: CA_1  and  C_4 
ROOT
HETATM    1  CA  UNL     1      62.852   7.376   2.126  1.00  0.00     0.111 A 
HETATM    2  N   UNL     1      62.239   8.578   1.853  1.00  0.00    -0.350 N 
HETATM    3  C   UNL     1      63.346   7.471   3.416  1.00  0.00     0.050 A 
HETATM    4  C   UNL     1      62.348   9.440   2.917  1.00  0.00     0.043 A 
HETATM    5  C   UNL     1      63.042   8.764   3.919  1.00  0.00    -0.007 A 
HETATM    6  C   UNL     1      61.894  10.756   3.070  1.00  0.00     0.030 A 
HETATM    7  C   UNL     1      63.299   9.427   5.134  1.00  0.00     0.014 A 
HETATM    8  C   UNL     1      62.165  11.396   4.283  1.00  0.00     0.002 A 
HETATM    9  C   UNL     1      62.858  10.744   5.302  1.00  0.00     0.001 A 
HETATM   10  H   UNL     1      61.783   8.791   1.006  1.00  0.00     0.166 HD
ENDROOT
BRANCH   1  11
HETATM   11  C   UNL     1      62.940   6.276   1.213  1.00  0.00     0.226 C 
HETATM   12  O   UNL     1      63.894   5.932   0.535  1.00  0.00    -0.643 OA
HETATM   13  OXT UNL     1      61.775   5.596   1.159  1.00  0.00    -0.643 OA
ENDBRANCH   1  11
TORSDOF 1
ENDMDL
MODEL 7
REMARK VINA RESULT:      -4.1      2.733      3.799
REMARK  1 active torsions:
REMARK  status: ('A' for Active; 'I' for Inactive)
REMARK    1  A    between atoms: CA_1  and  C_4 
ROOT
HETATM    1  CA  UNL     1      65.994   6.248   6.966  1.00  0.00     0.111 A 
HETATM    2  N   UNL     1      65.326   7.449   6.882  1.00  0.00    -0.350 N 
HETATM    3  C   UNL     1      65.805   5.607   5.754  1.00  0.00     0.050 A 
HETATM    4  C   UNL     1      64.700   7.580   5.665  1.00  0.00     0.043 A 
HETATM    5  C   UNL     1      64.989   6.429   4.934  1.00  0.00    -0.007 A 
HETATM    6  C   UNL     1      63.905   8.616   5.160  1.00  0.00     0.030 A 
HETATM    7  C   UNL     1      64.462   6.300   3.634  1.00  0.00     0.014 A 
HETATM    8  C   UNL     1      63.387   8.463   3.870  1.00  0.00     0.002 A 
HETATM    9  C   UNL     1      63.659   7.323   3.116  1.00  0.00     0.001 A 
HETATM   10  H   UNL     1      65.301   8.124   7.598  1.00  0.00     0.166 HD
ENDROOT
BRANCH   1  11
HETATM   11  C   UNL     1      66.722   5.796   8.114  1.00  0.00     0.226 C 
HETATM   12  O   UNL     1      67.779   6.220   8.553  1.00  0.00    -0.643 OA
HETATM   13  OXT UNL     1      66.087   4.769   8.718  1.00  0.00    -0.643 OA
ENDBRANCH   1  11
TORSDOF 1
ENDMDL
MODEL 8
REMARK VINA RESULT:      -4.0     11.931     13.027
REMARK  1 active torsions:
REMARK  status: ('A' for Active; 'I' for Inactive)
REMARK    1  A    between atoms: CA_1  and  C_4 
ROOT
HETATM    1  CA  UNL     1      55.452   2.885  13.082  1.00  0.00     0.111 A 
HETATM    2  N   UNL     1      56.270   2.458  14.105  1.00  0.00    -0.350 N 
HETATM    3  C   UNL     1      56.114   2.592  11.902  1.00  0.00     0.050 A 
HETATM    4  C   UNL     1      57.438   1.927  13.613  1.00  0.00     0.043 A 
HETATM    5  C   UNL     1      57.364   1.998  12.223  1.00  0.00    -0.007 A 
HETATM    6  C   UNL     1      58.547   1.396  14.283  1.00  0.00     0.030 A 
HETATM    7  C   UNL     1      58.445   1.518  11.459  1.00  0.00     0.014 A 
HETATM    8  C   UNL     1      59.611   0.931  13.504  1.00  0.00     0.002 A 
HETATM    9  C   UNL     1      59.564   0.990  12.112  1.00  0.00     0.001 A 
HETATM   10  H   UNL     1      56.046   2.526  15.061  1.00  0.00     0.166 HD
ENDROOT
BRANCH   1  11
HETATM   11  C   UNL     1      54.177   3.511  13.261  1.00  0.00     0.226 C 
HETATM   12  O   UNL     1      53.798   4.588  12.831  1.00  0.00    -0.643 OA
HETATM   13  OXT UNL     1      53.361   2.744  14.015  1.00  0.00    -0.643 OA
ENDBRANCH   1  11
TORSDOF 1
ENDMDL
MODEL 9
REMARK VINA RESULT:      -4.0      1.690      2.113
REMARK  1 active torsions:
REMARK  status: ('A' for Active; 'I' for Inactive)
REMARK    1  A    between atoms: CA_1  and  C_4 
ROOT
HETATM    1  CA  UNL     1      64.566   7.282   6.148  1.00  0.00     0.111 A 
HETATM    2  N   UNL     1      64.438   8.628   5.882  1.00  0.00    -0.350 N 
HETATM    3  C   UNL     1      63.559   6.646   5.443  1.00  0.00     0.050 A 
HETATM    4  C   UNL     1      63.369   8.866   5.051  1.00  0.00     0.043 A 
HETATM    5  C   UNL     1      62.797   7.629   4.758  1.00  0.00    -0.007 A 
HETATM    6  C   UNL     1      62.864  10.070   4.544  1.00  0.00     0.030 A 
HETATM    7  C   UNL     1      61.669   7.584   3.918  1.00  0.00     0.014 A 
HETATM    8  C   UNL     1      61.740  10.001   3.716  1.00  0.00     0.002 A 
HETATM    9  C   UNL     1      61.148   8.778   3.406  1.00  0.00     0.001 A 
HETATM   10  H   UNL     1      65.033   9.325   6.240  1.00  0.00     0.166 HD
ENDROOT
BRANCH   1  11
HETATM   11  C   UNL     1      65.562   6.709   7.002  1.00  0.00     0.226 C 
HETATM   12  O   UNL     1      66.388   7.284   7.691  1.00  0.00    -0.643 OA
HETATM   13  OXT UNL     1      65.507   5.360   6.974  1.00  0.00    -0.643 OA
ENDBRANCH   1  11
TORSDOF 1
ENDMDL
