MODEL 1
REMARK VINA RESULT:      -4.8      0.000      0.000
REMARK  3 active torsions:
REMARK  status: ('A' for Active; 'I' for Inactive)
REMARK    1  A    between atoms: C_1  and  C_3 
REMARK    2  A    between atoms: N_11  and  C_13 
REMARK    3  A    between atoms: C_12  and  C_13 
ROOT
HETATM    1  C   UNL     1      64.791   7.412   4.791  1.00  0.00    -0.019 A 
HETATM    2  C   UNL     1      64.282   8.675   5.129  1.00  0.00     0.013 A 
HETATM    3  C   UNL     1      64.313   6.806   3.620  1.00  0.00     0.013 A 
HETATM    4  C   UNL     1      63.311   9.302   4.338  1.00  0.00     0.010 A 
HETATM    5  C   UNL     1      63.347   7.432   2.824  1.00  0.00     0.010 A 
HETATM    6  C   UNL     1      62.826   8.682   3.180  1.00  0.00    -0.033 A 
ENDROOT
BRANCH   1   7
HETATM    7  C   UNL     1      65.811   6.769   5.642  1.00  0.00     0.015 A 
HETATM    8  S   UNL     1      65.528   6.513   7.321  1.00  0.00    -0.101 SA
HETATM    9  C   UNL     1      67.053   5.782   7.550  1.00  0.00     0.050 A 
HETATM   10  C   UNL     1      67.786   5.748   6.386  1.00  0.00     0.008 A 
HETATM   11  C   UNL     1      67.074   6.320   5.292  1.00  0.00     0.020 A 
ENDBRANCH   1   7
BRANCH   6  12
HETATM   12  C   UNL     1      61.766   9.348   2.333  1.00  0.00     0.270 C 
BRANCH  12  13
HETATM   13  N   UNL     1      61.375  10.643   2.891  1.00  0.00    -0.075 N 
HETATM   14  C   UNL     1      61.753  11.734   2.005  1.00  0.00     0.267 C 
HETATM   15  H   UNL     1      61.838  10.771   3.792  1.00  0.00     0.277 HD
HETATM   16  H   UNL     1      60.362  10.655   3.003  1.00  0.00     0.277 HD
ENDBRANCH  12  13
ENDBRANCH   6  12
TORSDOF 3
ENDMDL
MODEL 2
REMARK VINA RESULT:      -4.7      3.176      6.322
REMARK  3 active torsions:
REMARK  status: ('A' for Active; 'I' for Inactive)
REMARK    1  A    between atoms: C_1  and  C_3 
REMARK    2  A    between atoms: N_11  and  C_13 
REMARK    3  A    between atoms: C_12  and  C_13 
ROOT
HETATM    1  C   UNL     1      63.631   8.375   4.852  1.00  0.00    -0.019 A 
HETATM    2  C   UNL     1      62.954   7.363   5.549  1.00  0.00     0.013 A 
HETATM    3  C   UNL     1      65.014   8.496   5.054  1.00  0.00     0.013 A 
HETATM    4  C   UNL     1      63.630   6.515   6.435  1.00  0.00     0.010 A 
HETATM    5  C   UNL     1      65.693   7.647   5.934  1.00  0.00     0.010 A 
HETATM    6  C   UNL     1      65.007   6.653   6.644  1.00  0.00    -0.033 A 
ENDROOT
BRANCH   1   7
HETATM    7  C   UNL     1      62.897   9.260   3.927  1.00  0.00     0.015 A 
HETATM    8  S   UNL     1      62.487   8.735   2.339  1.00  0.00    -0.101 SA
HETATM    9  C   UNL     1      61.719  10.212   1.961  1.00  0.00     0.050 A 
HETATM   10  C   UNL     1      61.787  11.108   3.004  1.00  0.00     0.008 A 
HETATM   11  C   UNL     1      62.469  10.562   4.130  1.00  0.00     0.020 A 
ENDBRANCH   1   7
BRANCH   6  12
HETATM   12  C   UNL     1      65.737   5.751   7.612  1.00  0.00     0.270 C 
BRANCH  12  13
HETATM   13  N   UNL     1      66.226   6.500   8.771  1.00  0.00    -0.075 N 
HETATM   14  C   UNL     1      67.606   6.155   9.077  1.00  0.00     0.267 C 
HETATM   15  H   UNL     1      65.642   6.282   9.579  1.00  0.00     0.277 HD
HETATM   16  H   UNL     1      66.183   7.495   8.555  1.00  0.00     0.277 HD
ENDBRANCH  12  13
ENDBRANCH   6  12
TORSDOF 3
ENDMDL
MODEL 3
REMARK VINA RESULT:      -4.6      1.589      2.377
REMARK  3 active torsions:
REMARK  status: ('A' for Active; 'I' for Inactive)
REMARK    1  A    between atoms: C_1  and  C_3 
REMARK    2  A    between atoms: N_11  and  C_13 
REMARK    3  A    between atoms: C_12  and  C_13 
ROOT
HETATM    1  C   UNL     1      63.960   8.017   4.405  1.00  0.00    -0.019 A 
HETATM    2  C   UNL     1      63.814   7.161   3.303  1.00  0.00     0.013 A 
HETATM    3  C   UNL     1      63.219   9.208   4.412  1.00  0.00     0.013 A 
HETATM    4  C   UNL     1      62.973   7.494   2.233  1.00  0.00     0.010 A 
HETATM    5  C   UNL     1      62.375   9.540   3.347  1.00  0.00     0.010 A 
HETATM    6  C   UNL     1      62.250   8.692   2.240  1.00  0.00    -0.033 A 
ENDROOT
BRANCH   1   7
HETATM    7  C   UNL     1      64.855   7.649   5.519  1.00  0.00     0.015 A 
HETATM    8  S   UNL     1      64.436   6.384   6.609  1.00  0.00    -0.101 SA
HETATM    9  C   UNL     1      65.872   6.576   7.512  1.00  0.00     0.050 A 
HETATM   10  C   UNL     1      66.655   7.596   7.022  1.00  0.00     0.008 A 
HETATM   11  C   UNL     1      66.067   8.215   5.881  1.00  0.00     0.020 A 
ENDBRANCH   1   7
BRANCH   6  12
HETATM   12  C   UNL     1      61.355   9.062   1.080  1.00  0.00     0.270 C 
BRANCH  12  13
HETATM   13  N   UNL     1      59.968   8.669   1.333  1.00  0.00    -0.075 N 
HETATM   14  C   UNL     1      59.517   7.676   0.369  1.00  0.00     0.267 C 
HETATM   15  H   UNL     1      59.370   9.494   1.265  1.00  0.00     0.277 HD
HETATM   16  H   UNL     1      59.912   8.261   2.266  1.00  0.00     0.277 HD
ENDBRANCH  12  13
ENDBRANCH   6  12
TORSDOF 3
ENDMDL
MODEL 4
REMARK VINA RESULT:      -4.6      1.511      1.912
REMARK  3 active torsions:
REMARK  status: ('A' for Active; 'I' for Inactive)
REMARK    1  A    between atoms: C_1  and  C_3 
REMARK    2  A    between atoms: N_11  and  C_13 
REMARK    3  A    between atoms: C_12  and  C_13 
ROOT
HETATM    1  C   UNL     1      64.140   7.911   4.842  1.00  0.00    -0.019 A 
HETATM    2  C   UNL     1      63.463   9.135   4.956  1.00  0.00     0.013 A 
HETATM    3  C   UNL     1      63.985   7.185   3.652  1.00  0.00     0.013 A 
HETATM    4  C   UNL     1      62.641   9.608   3.925  1.00  0.00     0.010 A 
HETATM    5  C   UNL     1      63.169   7.658   2.618  1.00  0.00     0.010 A 
HETATM    6  C   UNL     1      62.478   8.869   2.747  1.00  0.00    -0.033 A 
ENDROOT
BRANCH   1   7
HETATM    7  C   UNL     1      64.997   7.430   5.943  1.00  0.00     0.015 A 
HETATM    8  S   UNL     1      66.600   8.026   6.141  1.00  0.00    -0.101 SA
HETATM    9  C   UNL     1      66.878   7.056   7.518  1.00  0.00     0.050 A 
HETATM   10  C   UNL     1      65.790   6.269   7.820  1.00  0.00     0.008 A 
HETATM   11  C   UNL     1      64.712   6.481   6.912  1.00  0.00     0.020 A 
ENDBRANCH   1   7
BRANCH   6  12
HETATM   12  C   UNL     1      61.579   9.368   1.639  1.00  0.00     0.270 C 
BRANCH  12  13
HETATM   13  N   UNL     1      60.245   8.772   1.728  1.00  0.00    -0.075 N 
HETATM   14  C   UNL     1      59.916   8.035   0.517  1.00  0.00     0.267 C 
HETATM   15  H   UNL     1      59.557   9.514   1.863  1.00  0.00     0.277 HD
HETATM   16  H   UNL     1      60.232   8.123   2.514  1.00  0.00     0.277 HD
ENDBRANCH  12  13
ENDBRANCH   6  12
TORSDOF 3
ENDMDL
MODEL 5
REMARK VINA RESULT:      -4.5      3.123      6.223
REMARK  3 active torsions:
REMARK  status: ('A' for Active; 'I' for Inactive)
REMARK    1  A    between atoms: C_1  and  C_3 
REMARK    2  A    between atoms: N_11  and  C_13 
REMARK    3  A    between atoms: C_12  and  C_13 
ROOT
HETATM    1  C   UNL     1      63.687   8.245   4.855  1.00  0.00    -0.019 A 
HETATM    2  C   UNL     1      65.053   8.457   5.098  1.00  0.00     0.013 A 
HETATM    3  C   UNL     1      63.043   7.230   5.578  1.00  0.00     0.013 A 
HETATM    4  C   UNL     1      65.757   7.668   6.015  1.00  0.00     0.010 A 
HETATM    5  C   UNL     1      63.744   6.444   6.500  1.00  0.00     0.010 A 
HETATM    6  C   UNL     1      65.112   6.646   6.721  1.00  0.00    -0.033 A 
ENDROOT
BRANCH   1   7
HETATM    7  C   UNL     1      62.965   9.086   3.880  1.00  0.00     0.015 A 
HETATM    8  S   UNL     1      62.349  10.629   4.328  1.00  0.00    -0.101 SA
HETATM    9  C   UNL     1      61.717  10.920   2.769  1.00  0.00     0.050 A 
HETATM   10  C   UNL     1      61.940   9.862   1.919  1.00  0.00     0.008 A 
HETATM   11  C   UNL     1      62.653   8.807   2.559  1.00  0.00     0.020 A 
ENDBRANCH   1   7
BRANCH   6  12
HETATM   12  C   UNL     1      65.872   5.781   7.700  1.00  0.00     0.270 C 
BRANCH  12  13
HETATM   13  N   UNL     1      65.333   4.421   7.738  1.00  0.00    -0.075 N 
HETATM   14  C   UNL     1      66.266   3.469   7.155  1.00  0.00     0.267 C 
HETATM   15  H   UNL     1      64.459   4.395   7.212  1.00  0.00     0.277 HD
HETATM   16  H   UNL     1      65.174   4.163   8.711  1.00  0.00     0.277 HD
ENDBRANCH  12  13
ENDBRANCH   6  12
TORSDOF 3
ENDMDL
MODEL 6
REMARK VINA RESULT:      -4.5      2.925      6.112
REMARK  3 active torsions:
REMARK  status: ('A' for Active; 'I' for Inactive)
REMARK    1  A    between atoms: C_1  and  C_3 
REMARK    2  A    between atoms: N_11  and  C_13 
REMARK    3  A    between atoms: C_12  and  C_13 
ROOT
HETATM    1  C   UNL     1      63.638   7.777   3.498  1.00  0.00    -0.019 A 
HETATM    2  C   UNL     1      64.511   6.701   3.274  1.00  0.00     0.013 A 
HETATM    3  C   UNL     1      63.961   8.679   4.522  1.00  0.00     0.013 A 
HETATM    4  C   UNL     1      65.655   6.519   4.060  1.00  0.00     0.010 A 
HETATM    5  C   UNL     1      65.107   8.504   5.305  1.00  0.00     0.010 A 
HETATM    6  C   UNL     1      65.962   7.415   5.091  1.00  0.00    -0.033 A 
ENDROOT
BRANCH   1   7
HETATM    7  C   UNL     1      62.435   7.945   2.660  1.00  0.00     0.015 A 
HETATM    8  S   UNL     1      61.032   6.983   2.922  1.00  0.00    -0.101 SA
HETATM    9  C   UNL     1      60.176   7.738   1.654  1.00  0.00     0.050 A 
HETATM   10  C   UNL     1      60.938   8.690   1.015  1.00  0.00     0.008 A 
HETATM   11  C   UNL     1      62.237   8.804   1.591  1.00  0.00     0.020 A 
ENDBRANCH   1   7
BRANCH   6  12
HETATM   12  C   UNL     1      67.187   7.214   5.953  1.00  0.00     0.270 C 
BRANCH  12  13
HETATM   13  N   UNL     1      67.003   7.797   7.283  1.00  0.00    -0.075 N 
HETATM   14  C   UNL     1      66.685   6.774   8.267  1.00  0.00     0.267 C 
HETATM   15  H   UNL     1      66.240   8.473   7.247  1.00  0.00     0.277 HD
HETATM   16  H   UNL     1      67.872   8.252   7.560  1.00  0.00     0.277 HD
ENDBRANCH  12  13
ENDBRANCH   6  12
TORSDOF 3
ENDMDL
MODEL 7
REMARK VINA RESULT:      -4.0      1.487      1.711
REMARK  3 active torsions:
REMARK  status: ('A' for Active; 'I' for Inactive)
REMARK    1  A    between atoms: C_1  and  C_3 
REMARK    2  A    between atoms: N_11  and  C_13 
REMARK    3  A    between atoms: C_12  and  C_13 
ROOT
HETATM    1  C   UNL     1      64.817   7.064   5.464  1.00  0.00    -0.019 A 
HETATM    2  C   UNL     1      64.402   8.402   5.392  1.00  0.00     0.013 A 
HETATM    3  C   UNL     1      64.437   6.203   4.424  1.00  0.00     0.013 A 
HETATM    4  C   UNL     1      63.614   8.860   4.328  1.00  0.00     0.010 A 
HETATM    5  C   UNL     1      63.655   6.660   3.357  1.00  0.00     0.010 A 
HETATM    6  C   UNL     1      63.224   7.991   3.302  1.00  0.00    -0.033 A 
ENDROOT
BRANCH   1   7
HETATM    7  C   UNL     1      65.643   6.601   6.596  1.00  0.00     0.015 A 
HETATM    8  S   UNL     1      65.521   4.986   7.177  1.00  0.00    -0.101 SA
HETATM    9  C   UNL     1      66.702   5.244   8.383  1.00  0.00     0.050 A 
HETATM   10  C   UNL     1      67.172   6.537   8.373  1.00  0.00     0.008 A 
HETATM   11  C   UNL     1      66.559   7.317   7.351  1.00  0.00     0.020 A 
ENDBRANCH   1   7
BRANCH   6  12
HETATM   12  C   UNL     1      62.361   8.478   2.161  1.00  0.00     0.270 C 
BRANCH  12  13
HETATM   13  N   UNL     1      61.073   8.976   2.645  1.00  0.00    -0.075 N 
HETATM   14  C   UNL     1      60.209   7.882   3.064  1.00  0.00     0.267 C 
HETATM   15  H   UNL     1      60.613   9.495   1.896  1.00  0.00     0.277 HD
HETATM   16  H   UNL     1      61.240   9.580   3.449  1.00  0.00     0.277 HD
ENDBRANCH  12  13
ENDBRANCH   6  12
TORSDOF 3
ENDMDL
MODEL 8
REMARK VINA RESULT:      -4.0      3.322      6.392
REMARK  3 active torsions:
REMARK  status: ('A' for Active; 'I' for Inactive)
REMARK    1  A    between atoms: C_1  and  C_3 
REMARK    2  A    between atoms: N_11  and  C_13 
REMARK    3  A    between atoms: C_12  and  C_13 
ROOT
HETATM    1  C   UNL     1      62.163   7.872   3.263  1.00  0.00    -0.019 A 
HETATM    2  C   UNL     1      63.169   6.928   3.009  1.00  0.00     0.013 A 
HETATM    3  C   UNL     1      62.438   8.890   4.188  1.00  0.00     0.013 A 
HETATM    4  C   UNL     1      64.402   6.985   3.673  1.00  0.00     0.010 A 
HETATM    5  C   UNL     1      63.671   8.953   4.848  1.00  0.00     0.010 A 
HETATM    6  C   UNL     1      64.663   7.995   4.607  1.00  0.00    -0.033 A 
ENDROOT
BRANCH   1   7
HETATM    7  C   UNL     1      60.870   7.790   2.556  1.00  0.00     0.015 A 
HETATM    8  S   UNL     1      60.711   8.346   0.935  1.00  0.00    -0.101 SA
HETATM    9  C   UNL     1      59.058   7.927   0.867  1.00  0.00     0.050 A 
HETATM   10  C   UNL     1      58.613   7.396   2.055  1.00  0.00     0.008 A 
HETATM   11  C   UNL     1      59.653   7.322   3.027  1.00  0.00     0.020 A 
ENDBRANCH   1   7
BRANCH   6  12
HETATM   12  C   UNL     1      65.985   8.051   5.336  1.00  0.00     0.270 C 
BRANCH  12  13
HETATM   13  N   UNL     1      65.813   7.801   6.768  1.00  0.00    -0.075 N 
HETATM   14  C   UNL     1      66.036   6.399   7.089  1.00  0.00     0.267 C 
HETATM   15  H   UNL     1      64.862   8.057   7.039  1.00  0.00     0.277 HD
HETATM   16  H   UNL     1      66.494   8.361   7.279  1.00  0.00     0.277 HD
ENDBRANCH  12  13
ENDBRANCH   6  12
TORSDOF 3
ENDMDL
MODEL 9
REMARK VINA RESULT:      -3.8     11.502     12.497
REMARK  3 active torsions:
REMARK  status: ('A' for Active; 'I' for Inactive)
REMARK    1  A    between atoms: C_1  and  C_3 
REMARK    2  A    between atoms: N_11  and  C_13 
REMARK    3  A    between atoms: C_12  and  C_13 
ROOT
HETATM    1  C   UNL     1      59.233   0.935  12.302  1.00  0.00    -0.019 A 
HETATM    2  C   UNL     1      58.935   1.178  13.651  1.00  0.00     0.013 A 
HETATM    3  C   UNL     1      58.300   1.350  11.340  1.00  0.00     0.013 A 
HETATM    4  C   UNL     1      57.735   1.795  14.030  1.00  0.00     0.010 A 
HETATM    5  C   UNL     1      57.103   1.971  11.715  1.00  0.00     0.010 A 
HETATM    6  C   UNL     1      56.802   2.191  13.065  1.00  0.00    -0.033 A 
ENDROOT
BRANCH   1   7
HETATM    7  C   UNL     1      60.500   0.279  11.926  1.00  0.00     0.015 A 
HETATM    8  S   UNL     1      60.900   0.008  10.274  1.00  0.00    -0.101 SA
HETATM    9  C   UNL     1      62.391  -0.723  10.670  1.00  0.00     0.050 A 
HETATM   10  C   UNL     1      62.585  -0.790  12.031  1.00  0.00     0.008 A 
HETATM   11  C   UNL     1      61.496  -0.219  12.751  1.00  0.00     0.020 A 
ENDBRANCH   1   7
BRANCH   6  12
HETATM   12  C   UNL     1      55.499   2.842  13.470  1.00  0.00     0.270 C 
BRANCH  12  13
HETATM   13  N   UNL     1      55.034   2.339  14.763  1.00  0.00    -0.075 N 
HETATM   14  C   UNL     1      53.833   1.530  14.613  1.00  0.00     0.267 C 
HETATM   15  H   UNL     1      54.827   3.130  15.374  1.00  0.00     0.277 HD
HETATM   16  H   UNL     1      55.767   1.756  15.167  1.00  0.00     0.277 HD
ENDBRANCH  12  13
ENDBRANCH   6  12
TORSDOF 3
ENDMDL
