MODEL 1
REMARK VINA RESULT:      -3.9      0.000      0.000
REMARK  2 active torsions:
REMARK  status: ('A' for Active; 'I' for Inactive)
REMARK    1  A    between atoms: C_1  and  C_6 
REMARK    2  A    between atoms: C_6  and  N_9 
ROOT
HETATM    1  C   UNL     1      63.402   8.744   4.447  1.00  0.00     0.089 A 
HETATM    2  N   UNL     1      62.799   9.990   4.491  1.00  0.00    -0.293 N 
HETATM    3  N   UNL     1      62.127  10.304   3.361  1.00  0.00    -0.303 N 
ATOM      4  HN  UNL     1      61.615  11.163   3.161  1.00  0.00     0.186 HD
HETATM    5  C   UNL     1      63.056   8.256   3.187  1.00  0.00     0.060 A 
HETATM    6  C   UNL     1      62.279   9.248   2.568  1.00  0.00     0.024 A 
HETATM    7  C   UNL     1      62.824  11.025   5.498  1.00  0.00     0.178 C 
HETATM    8  C   UNL     1      61.657   9.231   1.223  1.00  0.00     0.070 C 
ENDROOT
BRANCH   1   9
HETATM    9  C   UNL     1      64.208   8.056   5.432  1.00  0.00     0.122 C 
HETATM   10  S   UNL     1      65.863   7.946   5.395  1.00  0.00    -0.059 SA
BRANCH   9  11
HETATM   11  N   UNL     1      63.541   7.520   6.501  1.00  0.00    -0.388 N 
HETATM   12  H   UNL     1      63.102   8.112   7.154  1.00  0.00     0.157 HD
HETATM   13  H   UNL     1      63.500   6.544   6.616  1.00  0.00     0.157 HD
ENDBRANCH   9  11
ENDBRANCH   1   9
TORSDOF 2
ENDMDL
MODEL 2
REMARK VINA RESULT:      -3.6      1.806      2.264
REMARK  2 active torsions:
REMARK  status: ('A' for Active; 'I' for Inactive)
REMARK    1  A    between atoms: C_1  and  C_6 
REMARK    2  A    between atoms: C_6  and  N_9 
ROOT
HETATM    1  C   UNL     1      62.375   8.626   4.445  1.00  0.00     0.089 A 
HETATM    2  N   UNL     1      61.269   8.318   3.671  1.00  0.00    -0.293 N 
HETATM    3  N   UNL     1      60.934   9.294   2.797  1.00  0.00    -0.303 N 
ATOM      4  HN  UNL     1      60.159   9.296   2.135  1.00  0.00     0.186 HD
HETATM    5  C   UNL     1      62.750   9.891   3.995  1.00  0.00     0.060 A 
HETATM    6  C   UNL     1      61.836  10.250   2.990  1.00  0.00     0.024 A 
HETATM    7  C   UNL     1      60.383   7.178   3.686  1.00  0.00     0.178 C 
HETATM    8  C   UNL     1      61.788  11.494   2.185  1.00  0.00     0.070 C 
ENDROOT
BRANCH   1   9
HETATM    9  C   UNL     1      63.033   7.865   5.485  1.00  0.00     0.122 C 
HETATM   10  S   UNL     1      64.242   6.758   5.230  1.00  0.00    -0.059 SA
BRANCH   9  11
HETATM   11  N   UNL     1      62.662   8.143   6.773  1.00  0.00    -0.388 N 
HETATM   12  H   UNL     1      63.311   8.041   7.505  1.00  0.00     0.157 HD
HETATM   13  H   UNL     1      61.745   8.444   6.967  1.00  0.00     0.157 HD
ENDBRANCH   9  11
ENDBRANCH   1   9
TORSDOF 2
ENDMDL
MODEL 3
REMARK VINA RESULT:      -3.6      3.523      5.958
REMARK  2 active torsions:
REMARK  status: ('A' for Active; 'I' for Inactive)
REMARK    1  A    between atoms: C_1  and  C_6 
REMARK    2  A    between atoms: C_6  and  N_9 
ROOT
HETATM    1  C   UNL     1      65.785   7.160   6.475  1.00  0.00     0.089 A 
HETATM    2  N   UNL     1      67.098   7.245   6.045  1.00  0.00    -0.293 N 
HETATM    3  N   UNL     1      67.993   6.810   6.959  1.00  0.00    -0.303 N 
ATOM      4  HN  UNL     1      69.009   6.784   6.870  1.00  0.00     0.186 HD
HETATM    5  C   UNL     1      65.892   6.615   7.753  1.00  0.00     0.060 A 
HETATM    6  C   UNL     1      67.261   6.423   7.997  1.00  0.00     0.024 A 
HETATM    7  C   UNL     1      67.670   7.778   4.830  1.00  0.00     0.178 C 
HETATM    8  C   UNL     1      67.916   5.868   9.206  1.00  0.00     0.070 C 
ENDROOT
BRANCH   1   9
HETATM    9  C   UNL     1      64.554   7.528   5.808  1.00  0.00     0.122 C 
HETATM   10  S   UNL     1      63.373   6.462   5.338  1.00  0.00    -0.059 SA
BRANCH   9  11
HETATM   11  N   UNL     1      64.338   8.867   5.621  1.00  0.00    -0.388 N 
HETATM   12  H   UNL     1      64.097   9.207   4.729  1.00  0.00     0.157 HD
HETATM   13  H   UNL     1      64.424   9.490   6.377  1.00  0.00     0.157 HD
ENDBRANCH   9  11
ENDBRANCH   1   9
TORSDOF 2
ENDMDL
MODEL 4
REMARK VINA RESULT:      -3.6      1.729      2.548
REMARK  2 active torsions:
REMARK  status: ('A' for Active; 'I' for Inactive)
REMARK    1  A    between atoms: C_1  and  C_6 
REMARK    2  A    between atoms: C_6  and  N_9 
ROOT
HETATM    1  C   UNL     1      64.469   8.131   4.906  1.00  0.00     0.089 A 
HETATM    2  N   UNL     1      64.026   7.593   3.710  1.00  0.00    -0.293 N 
HETATM    3  N   UNL     1      63.054   8.322   3.118  1.00  0.00    -0.303 N 
ATOM      4  HN  UNL     1      62.572   8.120   2.242  1.00  0.00     0.186 HD
HETATM    5  C   UNL     1      63.710   9.292   5.046  1.00  0.00     0.060 A 
HETATM    6  C   UNL     1      62.863   9.358   3.928  1.00  0.00     0.024 A 
HETATM    7  C   UNL     1      64.372   6.365   3.032  1.00  0.00     0.178 C 
HETATM    8  C   UNL     1      61.858  10.394   3.589  1.00  0.00     0.070 C 
ENDROOT
BRANCH   1   9
HETATM    9  C   UNL     1      65.474   7.656   5.833  1.00  0.00     0.122 C 
HETATM   10  S   UNL     1      67.111   7.708   5.569  1.00  0.00    -0.059 SA
BRANCH   9  11
HETATM   11  N   UNL     1      65.021   7.195   7.040  1.00  0.00    -0.388 N 
HETATM   12  H   UNL     1      64.479   6.374   7.082  1.00  0.00     0.157 HD
HETATM   13  H   UNL     1      65.237   7.684   7.866  1.00  0.00     0.157 HD
ENDBRANCH   9  11
ENDBRANCH   1   9
TORSDOF 2
ENDMDL
MODEL 5
REMARK VINA RESULT:      -3.6      2.229      3.719
REMARK  2 active torsions:
REMARK  status: ('A' for Active; 'I' for Inactive)
REMARK    1  A    between atoms: C_1  and  C_6 
REMARK    2  A    between atoms: C_6  and  N_9 
ROOT
HETATM    1  C   UNL     1      62.808   8.855   4.029  1.00  0.00     0.089 A 
HETATM    2  N   UNL     1      63.345   9.725   4.963  1.00  0.00    -0.293 N 
HETATM    3  N   UNL     1      64.524   9.306   5.473  1.00  0.00    -0.303 N 
ATOM      4  HN  UNL     1      65.098   9.774   6.175  1.00  0.00     0.186 HD
HETATM    5  C   UNL     1      63.747   7.826   3.959  1.00  0.00     0.060 A 
HETATM    6  C   UNL     1      64.772   8.153   4.861  1.00  0.00     0.024 A 
HETATM    7  C   UNL     1      62.833  10.952   5.526  1.00  0.00     0.178 C 
HETATM    8  C   UNL     1      66.009   7.397   5.168  1.00  0.00     0.070 C 
ENDROOT
BRANCH   1   9
HETATM    9  C   UNL     1      61.576   8.933   3.273  1.00  0.00     0.122 C 
HETATM   10  S   UNL     1      60.319   7.857   3.393  1.00  0.00    -0.059 SA
BRANCH   9  11
HETATM   11  N   UNL     1      61.431  10.019   2.453  1.00  0.00    -0.388 N 
HETATM   12  H   UNL     1      61.279   9.892   1.489  1.00  0.00     0.157 HD
HETATM   13  H   UNL     1      61.478  10.928   2.827  1.00  0.00     0.157 HD
ENDBRANCH   9  11
ENDBRANCH   1   9
TORSDOF 2
ENDMDL
MODEL 6
REMARK VINA RESULT:      -3.5      2.595      4.189
REMARK  2 active torsions:
REMARK  status: ('A' for Active; 'I' for Inactive)
REMARK    1  A    between atoms: C_1  and  C_6 
REMARK    2  A    between atoms: C_6  and  N_9 
ROOT
HETATM    1  C   UNL     1      63.906   8.698   5.320  1.00  0.00     0.089 A 
HETATM    2  N   UNL     1      63.472   7.494   5.846  1.00  0.00    -0.293 N 
HETATM    3  N   UNL     1      64.448   6.564   5.943  1.00  0.00    -0.303 N 
ATOM      4  HN  UNL     1      64.365   5.609   6.292  1.00  0.00     0.186 HD
HETATM    5  C   UNL     1      65.264   8.485   5.088  1.00  0.00     0.060 A 
HETATM    6  C   UNL     1      65.540   7.167   5.486  1.00  0.00     0.024 A 
HETATM    7  C   UNL     1      62.156   7.046   6.240  1.00  0.00     0.178 C 
HETATM    8  C   UNL     1      66.833   6.442   5.452  1.00  0.00     0.070 C 
ENDROOT
BRANCH   1   9
HETATM    9  C   UNL     1      63.180   9.921   5.049  1.00  0.00     0.122 C 
HETATM   10  S   UNL     1      62.035  10.102   3.862  1.00  0.00    -0.059 SA
BRANCH   9  11
HETATM   11  N   UNL     1      63.423  10.974   5.889  1.00  0.00    -0.388 N 
HETATM   12  H   UNL     1      62.720  11.642   6.058  1.00  0.00     0.157 HD
HETATM   13  H   UNL     1      64.302  11.065   6.323  1.00  0.00     0.157 HD
ENDBRANCH   9  11
ENDBRANCH   1   9
TORSDOF 2
ENDMDL
MODEL 7
REMARK VINA RESULT:      -3.3     11.920     13.039
REMARK  2 active torsions:
REMARK  status: ('A' for Active; 'I' for Inactive)
REMARK    1  A    between atoms: C_1  and  C_6 
REMARK    2  A    between atoms: C_6  and  N_9 
ROOT
HETATM    1  C   UNL     1      56.618   2.146  13.159  1.00  0.00     0.089 A 
HETATM    2  N   UNL     1      57.969   2.000  13.423  1.00  0.00    -0.293 N 
HETATM    3  N   UNL     1      58.764   2.400  12.406  1.00  0.00    -0.303 N 
ATOM      4  HN  UNL     1      59.783   2.380  12.368  1.00  0.00     0.186 HD
HETATM    5  C   UNL     1      56.591   2.692  11.876  1.00  0.00     0.060 A 
HETATM    6  C   UNL     1      57.927   2.825  11.465  1.00  0.00     0.024 A 
HETATM    7  C   UNL     1      58.662   1.436  14.558  1.00  0.00     0.178 C 
HETATM    8  C   UNL     1      58.453   3.357  10.185  1.00  0.00     0.070 C 
ENDROOT
BRANCH   1   9
HETATM    9  C   UNL     1      55.463   1.829  13.971  1.00  0.00     0.122 C 
HETATM   10  S   UNL     1      54.762   0.330  14.080  1.00  0.00    -0.059 SA
BRANCH   9  11
HETATM   11  N   UNL     1      54.969   2.840  14.751  1.00  0.00    -0.388 N 
HETATM   12  H   UNL     1      53.997   2.980  14.818  1.00  0.00     0.157 HD
HETATM   13  H   UNL     1      55.586   3.428  15.244  1.00  0.00     0.157 HD
ENDBRANCH   9  11
ENDBRANCH   1   9
TORSDOF 2
ENDMDL
MODEL 8
REMARK VINA RESULT:      -3.3      2.668      3.514
REMARK  2 active torsions:
REMARK  status: ('A' for Active; 'I' for Inactive)
REMARK    1  A    between atoms: C_1  and  C_6 
REMARK    2  A    between atoms: C_6  and  N_9 
ROOT
HETATM    1  C   UNL     1      65.343   7.132   4.567  1.00  0.00     0.089 A 
HETATM    2  N   UNL     1      65.567   8.058   5.572  1.00  0.00    -0.293 N 
HETATM    3  N   UNL     1      64.645   9.046   5.609  1.00  0.00    -0.303 N 
ATOM      4  HN  UNL     1      64.607   9.836   6.253  1.00  0.00     0.186 HD
HETATM    5  C   UNL     1      64.180   7.591   3.949  1.00  0.00     0.060 A 
HETATM    6  C   UNL     1      63.799   8.761   4.626  1.00  0.00     0.024 A 
HETATM    7  C   UNL     1      66.641   8.184   6.529  1.00  0.00     0.178 C 
HETATM    8  C   UNL     1      62.631   9.638   4.370  1.00  0.00     0.070 C 
ENDROOT
BRANCH   1   9
HETATM    9  C   UNL     1      66.094   5.953   4.193  1.00  0.00     0.122 C 
HETATM   10  S   UNL     1      65.541   4.394   4.326  1.00  0.00    -0.059 SA
BRANCH   9  11
HETATM   11  N   UNL     1      67.323   6.165   3.629  1.00  0.00    -0.388 N 
HETATM   12  H   UNL     1      68.053   5.522   3.783  1.00  0.00     0.157 HD
HETATM   13  H   UNL     1      67.478   6.960   3.071  1.00  0.00     0.157 HD
ENDBRANCH   9  11
ENDBRANCH   1   9
TORSDOF 2
ENDMDL
MODEL 9
REMARK VINA RESULT:      -3.3      2.926      4.254
REMARK  2 active torsions:
REMARK  status: ('A' for Active; 'I' for Inactive)
REMARK    1  A    between atoms: C_1  and  C_6 
REMARK    2  A    between atoms: C_6  and  N_9 
ROOT
HETATM    1  C   UNL     1      65.600   6.713   6.835  1.00  0.00     0.089 A 
HETATM    2  N   UNL     1      66.290   7.417   5.863  1.00  0.00    -0.293 N 
HETATM    3  N   UNL     1      65.484   8.055   4.986  1.00  0.00    -0.303 N 
ATOM      4  HN  UNL     1      65.763   8.626   4.187  1.00  0.00     0.186 HD
HETATM    5  C   UNL     1      64.262   6.953   6.527  1.00  0.00     0.060 A 
HETATM    6  C   UNL     1      64.250   7.777   5.390  1.00  0.00     0.024 A 
HETATM    7  C   UNL     1      67.704   7.528   5.591  1.00  0.00     0.178 C 
HETATM    8  C   UNL     1      63.083   8.326   4.659  1.00  0.00     0.070 C 
ENDROOT
BRANCH   1   9
HETATM    9  C   UNL     1      66.088   5.903   7.931  1.00  0.00     0.122 C 
HETATM   10  S   UNL     1      67.003   6.469   9.195  1.00  0.00    -0.059 SA
BRANCH   9  11
HETATM   11  N   UNL     1      65.699   4.591   7.942  1.00  0.00    -0.388 N 
HETATM   12  H   UNL     1      64.846   4.334   8.362  1.00  0.00     0.157 HD
HETATM   13  H   UNL     1      66.271   3.905   7.531  1.00  0.00     0.157 HD
ENDBRANCH   9  11
ENDBRANCH   1   9
TORSDOF 2
ENDMDL
