MODEL 1
REMARK VINA RESULT:      -3.9      0.000      0.000
REMARK  2 active torsions:
REMARK  status: ('A' for Active; 'I' for Inactive)
REMARK    1  A    between atoms: C_6  and  C_8 
REMARK    2  A    between atoms: C_8  and  N_9 
ROOT
HETATM    1  N   UNL     1      63.152   9.174   4.445  1.00  0.00    -0.301 N 
ATOM      2  HN  UNL     1      63.662   8.792   5.241  1.00  0.00     0.187 HD
HETATM    3  N   UNL     1      62.916   8.589   3.252  1.00  0.00    -0.301 N 
HETATM    4  C   UNL     1      62.204   9.376   2.384  1.00  0.00     0.026 A 
HETATM    5  C   UNL     1      61.955  10.546   3.077  1.00  0.00     0.054 A 
HETATM    6  C   UNL     1      62.560  10.374   4.344  1.00  0.00     0.053 A 
HETATM    7  C   UNL     1      63.398   7.247   3.020  1.00  0.00     0.177 C 
HETATM    8  C   UNL     1      61.825   8.994   1.004  1.00  0.00     0.070 C 
ENDROOT
BRANCH   6   9
HETATM    9  C   UNL     1      62.580  11.348   5.478  1.00  0.00     0.287 C 
BRANCH   9  10
HETATM   10  N   UNL     1      63.853  11.246   6.196  1.00  0.00    -0.074 N 
HETATM   11  H   UNL     1      64.246  10.314   6.058  1.00  0.00     0.274 HD
HETATM   12  H   UNL     1      63.697  11.405   7.190  1.00  0.00     0.274 HD
HETATM   13  H   UNL     1      64.502  11.945   5.837  1.00  0.00     0.274 HD
ENDBRANCH   9  10
ENDBRANCH   6   9
TORSDOF 2
ENDMDL
MODEL 2
REMARK VINA RESULT:      -3.8      1.923      2.478
REMARK  2 active torsions:
REMARK  status: ('A' for Active; 'I' for Inactive)
REMARK    1  A    between atoms: C_6  and  C_8 
REMARK    2  A    between atoms: C_8  and  N_9 
ROOT
HETATM    1  N   UNL     1      64.571   9.019   5.669  1.00  0.00    -0.301 N 
ATOM      2  HN  UNL     1      65.045   9.394   6.491  1.00  0.00     0.187 HD
HETATM    3  N   UNL     1      64.852   7.884   4.996  1.00  0.00    -0.301 N 
HETATM    4  C   UNL     1      64.031   7.665   3.920  1.00  0.00     0.026 A 
HETATM    5  C   UNL     1      63.152   8.730   3.911  1.00  0.00     0.054 A 
HETATM    6  C   UNL     1      63.525   9.540   5.009  1.00  0.00     0.053 A 
HETATM    7  C   UNL     1      65.929   7.039   5.460  1.00  0.00     0.177 C 
HETATM    8  C   UNL     1      64.130   6.510   2.996  1.00  0.00     0.070 C 
ENDROOT
BRANCH   6   9
HETATM    9  C   UNL     1      62.888  10.819   5.450  1.00  0.00     0.287 C 
BRANCH   9  10
HETATM   10  N   UNL     1      63.799  11.544   6.340  1.00  0.00    -0.074 N 
HETATM   11  H   UNL     1      63.770  11.124   7.270  1.00  0.00     0.274 HD
HETATM   12  H   UNL     1      63.512  12.521   6.399  1.00  0.00     0.274 HD
HETATM   13  H   UNL     1      64.748  11.490   5.973  1.00  0.00     0.274 HD
ENDBRANCH   9  10
ENDBRANCH   6   9
TORSDOF 2
ENDMDL
MODEL 3
REMARK VINA RESULT:      -3.7      1.553      2.271
REMARK  2 active torsions:
REMARK  status: ('A' for Active; 'I' for Inactive)
REMARK    1  A    between atoms: C_6  and  C_8 
REMARK    2  A    between atoms: C_8  and  N_9 
ROOT
HETATM    1  N   UNL     1      62.543   8.320   3.063  1.00  0.00    -0.301 N 
ATOM      2  HN  UNL     1      62.742   7.338   2.872  1.00  0.00     0.187 HD
HETATM    3  N   UNL     1      62.230   9.290   2.179  1.00  0.00    -0.301 N 
HETATM    4  C   UNL     1      62.032  10.517   2.757  1.00  0.00     0.026 A 
HETATM    5  C   UNL     1      62.218  10.315   4.111  1.00  0.00     0.054 A 
HETATM    6  C   UNL     1      62.532   8.943   4.251  1.00  0.00     0.053 A 
HETATM    7  C   UNL     1      62.124   8.957   0.778  1.00  0.00     0.177 C 
HETATM    8  C   UNL     1      61.700  11.761   2.022  1.00  0.00     0.070 C 
ENDROOT
BRANCH   6   9
HETATM    9  C   UNL     1      62.822   8.205   5.518  1.00  0.00     0.287 C 
BRANCH   9  10
HETATM   10  N   UNL     1      64.225   8.398   5.894  1.00  0.00    -0.074 N 
HETATM   11  H   UNL     1      64.493   9.368   5.719  1.00  0.00     0.274 HD
HETATM   12  H   UNL     1      64.815   7.777   5.341  1.00  0.00     0.274 HD
HETATM   13  H   UNL     1      64.344   8.187   6.884  1.00  0.00     0.274 HD
ENDBRANCH   9  10
ENDBRANCH   6   9
TORSDOF 2
ENDMDL
MODEL 4
REMARK VINA RESULT:      -3.6      2.504      3.482
REMARK  2 active torsions:
REMARK  status: ('A' for Active; 'I' for Inactive)
REMARK    1  A    between atoms: C_6  and  C_8 
REMARK    2  A    between atoms: C_8  and  N_9 
ROOT
HETATM    1  N   UNL     1      64.576   9.203   5.776  1.00  0.00    -0.301 N 
ATOM      2  HN  UNL     1      64.809   9.802   6.569  1.00  0.00     0.187 HD
HETATM    3  N   UNL     1      63.580   9.363   4.880  1.00  0.00    -0.301 N 
HETATM    4  C   UNL     1      63.527   8.372   3.935  1.00  0.00     0.026 A 
HETATM    5  C   UNL     1      64.573   7.523   4.239  1.00  0.00     0.054 A 
HETATM    6  C   UNL     1      65.192   8.077   5.384  1.00  0.00     0.053 A 
HETATM    7  C   UNL     1      62.716  10.516   4.987  1.00  0.00     0.177 C 
HETATM    8  C   UNL     1      62.523   8.286   2.847  1.00  0.00     0.070 C 
ENDROOT
BRANCH   6   9
HETATM    9  C   UNL     1      66.380   7.546   6.119  1.00  0.00     0.287 C 
BRANCH   9  10
HETATM   10  N   UNL     1      66.874   8.556   7.058  1.00  0.00    -0.074 N 
HETATM   11  H   UNL     1      66.172   8.719   7.782  1.00  0.00     0.274 HD
HETATM   12  H   UNL     1      67.055   9.426   6.558  1.00  0.00     0.274 HD
HETATM   13  H   UNL     1      67.736   8.227   7.489  1.00  0.00     0.274 HD
ENDBRANCH   9  10
ENDBRANCH   6   9
TORSDOF 2
ENDMDL
MODEL 5
REMARK VINA RESULT:      -3.4      2.358      3.112
REMARK  2 active torsions:
REMARK  status: ('A' for Active; 'I' for Inactive)
REMARK    1  A    between atoms: C_6  and  C_8 
REMARK    2  A    between atoms: C_8  and  N_9 
ROOT
HETATM    1  N   UNL     1      61.144   9.110   3.514  1.00  0.00    -0.301 N 
ATOM      2  HN  UNL     1      60.392   9.195   2.830  1.00  0.00     0.187 HD
HETATM    3  N   UNL     1      61.526   8.009   4.194  1.00  0.00    -0.301 N 
HETATM    4  C   UNL     1      62.569   8.229   5.056  1.00  0.00     0.026 A 
HETATM    5  C   UNL     1      62.887   9.565   4.907  1.00  0.00     0.054 A 
HETATM    6  C   UNL     1      61.979  10.067   3.945  1.00  0.00     0.053 A 
HETATM    7  C   UNL     1      60.843   6.759   3.949  1.00  0.00     0.177 C 
HETATM    8  C   UNL     1      63.173   7.204   5.939  1.00  0.00     0.070 C 
ENDROOT
BRANCH   6   9
HETATM    9  C   UNL     1      61.897  11.464   3.419  1.00  0.00     0.287 C 
BRANCH   9  10
HETATM   10  N   UNL     1      61.533  11.438   2.000  1.00  0.00    -0.074 N 
HETATM   11  H   UNL     1      60.589  11.809   1.885  1.00  0.00     0.274 HD
HETATM   12  H   UNL     1      61.566  10.478   1.658  1.00  0.00     0.274 HD
HETATM   13  H   UNL     1      62.190  12.010   1.471  1.00  0.00     0.274 HD
ENDBRANCH   9  10
ENDBRANCH   6   9
TORSDOF 2
ENDMDL
MODEL 6
REMARK VINA RESULT:      -3.4      1.893      4.006
REMARK  2 active torsions:
REMARK  status: ('A' for Active; 'I' for Inactive)
REMARK    1  A    between atoms: C_6  and  C_8 
REMARK    2  A    between atoms: C_8  and  N_9 
ROOT
HETATM    1  N   UNL     1      61.554  10.147   2.961  1.00  0.00    -0.301 N 
ATOM      2  HN  UNL     1      60.889  10.900   2.785  1.00  0.00     0.187 HD
HETATM    3  N   UNL     1      62.446  10.048   3.969  1.00  0.00    -0.301 N 
HETATM    4  C   UNL     1      63.210   8.911   3.917  1.00  0.00     0.026 A 
HETATM    5  C   UNL     1      62.765   8.225   2.803  1.00  0.00     0.054 A 
HETATM    6  C   UNL     1      61.743   9.028   2.245  1.00  0.00     0.053 A 
HETATM    7  C   UNL     1      62.499  11.092   4.966  1.00  0.00     0.177 C 
HETATM    8  C   UNL     1      64.278   8.559   4.882  1.00  0.00     0.070 C 
ENDROOT
BRANCH   6   9
HETATM    9  C   UNL     1      60.928   8.739   1.026  1.00  0.00     0.287 C 
BRANCH   9  10
HETATM   10  N   UNL     1      59.550   8.426   1.415  1.00  0.00    -0.074 N 
HETATM   11  H   UNL     1      59.287   7.517   1.030  1.00  0.00     0.274 HD
HETATM   12  H   UNL     1      58.923   9.143   1.053  1.00  0.00     0.274 HD
HETATM   13  H   UNL     1      59.483   8.396   2.431  1.00  0.00     0.274 HD
ENDBRANCH   9  10
ENDBRANCH   6   9
TORSDOF 2
ENDMDL
MODEL 7
REMARK VINA RESULT:      -3.3      1.587      3.852
REMARK  2 active torsions:
REMARK  status: ('A' for Active; 'I' for Inactive)
REMARK    1  A    between atoms: C_6  and  C_8 
REMARK    2  A    between atoms: C_8  and  N_9 
ROOT
HETATM    1  N   UNL     1      62.620   8.660   3.429  1.00  0.00    -0.301 N 
ATOM      2  HN  UNL     1      62.899   8.052   4.199  1.00  0.00     0.187 HD
HETATM    3  N   UNL     1      62.371   9.986   3.467  1.00  0.00    -0.301 N 
HETATM    4  C   UNL     1      62.003  10.512   2.256  1.00  0.00     0.026 A 
HETATM    5  C   UNL     1      62.033   9.448   1.375  1.00  0.00     0.054 A 
HETATM    6  C   UNL     1      62.418   8.326   2.145  1.00  0.00     0.053 A 
HETATM    7  C   UNL     1      62.523  10.693   4.718  1.00  0.00     0.177 C 
HETATM    8  C   UNL     1      61.652  11.932   2.016  1.00  0.00     0.070 C 
ENDROOT
BRANCH   6   9
HETATM    9  C   UNL     1      62.605   6.921   1.669  1.00  0.00     0.287 C 
BRANCH   9  10
HETATM   10  N   UNL     1      62.750   6.908   0.211  1.00  0.00    -0.074 N 
HETATM   11  H   UNL     1      63.419   6.185  -0.057  1.00  0.00     0.274 HD
HETATM   12  H   UNL     1      63.086   7.817  -0.106  1.00  0.00     0.274 HD
HETATM   13  H   UNL     1      61.847   6.711  -0.218  1.00  0.00     0.274 HD
ENDBRANCH   9  10
ENDBRANCH   6   9
TORSDOF 2
ENDMDL
MODEL 8
REMARK VINA RESULT:      -3.2      3.622      4.324
REMARK  2 active torsions:
REMARK  status: ('A' for Active; 'I' for Inactive)
REMARK    1  A    between atoms: C_6  and  C_8 
REMARK    2  A    between atoms: C_8  and  N_9 
ROOT
HETATM    1  N   UNL     1      64.506   6.842   6.720  1.00  0.00    -0.301 N 
ATOM      2  HN  UNL     1      64.433   6.158   7.474  1.00  0.00     0.187 HD
HETATM    3  N   UNL     1      63.503   7.417   6.024  1.00  0.00    -0.301 N 
HETATM    4  C   UNL     1      63.935   8.291   5.060  1.00  0.00     0.026 A 
HETATM    5  C   UNL     1      65.313   8.285   5.155  1.00  0.00     0.054 A 
HETATM    6  C   UNL     1      65.619   7.375   6.193  1.00  0.00     0.053 A 
HETATM    7  C   UNL     1      62.136   7.085   6.354  1.00  0.00     0.177 C 
HETATM    8  C   UNL     1      63.052   9.044   4.137  1.00  0.00     0.070 C 
ENDROOT
BRANCH   6   9
HETATM    9  C   UNL     1      66.974   7.003   6.703  1.00  0.00     0.287 C 
BRANCH   9  10
HETATM   10  N   UNL     1      67.107   7.417   8.102  1.00  0.00    -0.074 N 
HETATM   11  H   UNL     1      66.656   8.323   8.232  1.00  0.00     0.274 HD
HETATM   12  H   UNL     1      68.095   7.491   8.342  1.00  0.00     0.274 HD
HETATM   13  H   UNL     1      66.662   6.726   8.704  1.00  0.00     0.274 HD
ENDBRANCH   9  10
ENDBRANCH   6   9
TORSDOF 2
ENDMDL
MODEL 9
REMARK VINA RESULT:      -3.2      1.636      2.789
REMARK  2 active torsions:
REMARK  status: ('A' for Active; 'I' for Inactive)
REMARK    1  A    between atoms: C_6  and  C_8 
REMARK    2  A    between atoms: C_8  and  N_9 
ROOT
HETATM    1  N   UNL     1      62.820   9.688   4.608  1.00  0.00    -0.301 N 
ATOM      2  HN  UNL     1      62.844  10.285   5.434  1.00  0.00     0.187 HD
HETATM    3  N   UNL     1      62.358   9.993   3.377  1.00  0.00    -0.301 N 
HETATM    4  C   UNL     1      62.455   8.960   2.481  1.00  0.00     0.026 A 
HETATM    5  C   UNL     1      63.033   7.922   3.186  1.00  0.00     0.054 A 
HETATM    6  C   UNL     1      63.239   8.419   4.495  1.00  0.00     0.053 A 
HETATM    7  C   UNL     1      61.845  11.321   3.128  1.00  0.00     0.177 C 
HETATM    8  C   UNL     1      62.005   9.012   1.070  1.00  0.00     0.070 C 
ENDROOT
BRANCH   6   9
HETATM    9  C   UNL     1      63.843   7.694   5.654  1.00  0.00     0.287 C 
BRANCH   9  10
HETATM   10  N   UNL     1      62.841   6.817   6.266  1.00  0.00    -0.074 N 
HETATM   11  H   UNL     1      62.802   6.995   7.270  1.00  0.00     0.274 HD
HETATM   12  H   UNL     1      63.095   5.844   6.102  1.00  0.00     0.274 HD
HETATM   13  H   UNL     1      61.928   7.005   5.852  1.00  0.00     0.274 HD
ENDBRANCH   9  10
ENDBRANCH   6   9
TORSDOF 2
ENDMDL
