MODEL 1
REMARK VINA RESULT:      -3.8      0.000      0.000
REMARK  2 active torsions:
REMARK  status: ('A' for Active; 'I' for Inactive)
REMARK    1  A    between atoms: C_1  and  C_6 
REMARK    2  A    between atoms: C_6  and  O_7 
ROOT
HETATM    1  C   UNL     1      62.885  10.445   5.015  1.00  0.00    -0.028 A 
HETATM    2  S   UNL     1      62.989   8.384   3.461  1.00  0.00    -0.113 SA
HETATM    3  C   UNL     1      63.442   9.184   4.902  1.00  0.00     0.058 A 
HETATM    4  C   UNL     1      62.065  10.738   3.874  1.00  0.00     0.017 A 
HETATM    5  C   UNL     1      62.035   9.710   2.960  1.00  0.00     0.050 A 
ENDROOT
BRANCH   1   6
HETATM    6  C   UNL     1      63.097  11.378   6.163  1.00  0.00     0.203 C 
BRANCH   6   7
HETATM    7  O   UNL     1      64.478  11.515   6.475  1.00  0.00    -0.396 OA
HETATM    8  H   UNL     1      64.574  11.969   7.326  1.00  0.00     0.209 HD
ENDBRANCH   6   7
ENDBRANCH   1   6
TORSDOF 2
ENDMDL
MODEL 2
REMARK VINA RESULT:      -3.7      0.726      1.541
REMARK  2 active torsions:
REMARK  status: ('A' for Active; 'I' for Inactive)
REMARK    1  A    between atoms: C_1  and  C_6 
REMARK    2  A    between atoms: C_6  and  O_7 
ROOT
HETATM    1  C   UNL     1      62.930  10.359   5.007  1.00  0.00    -0.028 A 
HETATM    2  S   UNL     1      62.160   9.186   2.839  1.00  0.00    -0.113 SA
HETATM    3  C   UNL     1      62.085  10.506   3.922  1.00  0.00     0.058 A 
HETATM    4  C   UNL     1      63.649   9.120   4.923  1.00  0.00     0.017 A 
HETATM    5  C   UNL     1      63.327   8.392   3.801  1.00  0.00     0.050 A 
ENDROOT
BRANCH   1   6
HETATM    6  C   UNL     1      63.083  11.349   6.117  1.00  0.00     0.203 C 
BRANCH   6   7
HETATM    7  O   UNL     1      64.450  11.526   6.471  1.00  0.00    -0.396 OA
HETATM    8  H   UNL     1      64.703  12.452   6.329  1.00  0.00     0.209 HD
ENDBRANCH   6   7
ENDBRANCH   1   6
TORSDOF 2
ENDMDL
MODEL 3
REMARK VINA RESULT:      -3.3      1.881      2.177
REMARK  2 active torsions:
REMARK  status: ('A' for Active; 'I' for Inactive)
REMARK    1  A    between atoms: C_1  and  C_6 
REMARK    2  A    between atoms: C_6  and  O_7 
ROOT
HETATM    1  C   UNL     1      61.999  10.001   3.538  1.00  0.00    -0.028 A 
HETATM    2  S   UNL     1      61.207   7.909   2.245  1.00  0.00    -0.113 SA
HETATM    3  C   UNL     1      61.618   8.683   3.713  1.00  0.00     0.058 A 
HETATM    4  C   UNL     1      61.941  10.363   2.150  1.00  0.00     0.017 A 
HETATM    5  C   UNL     1      61.528   9.325   1.345  1.00  0.00     0.050 A 
ENDROOT
BRANCH   1   6
HETATM    6  C   UNL     1      62.411  10.930   4.634  1.00  0.00     0.203 C 
BRANCH   6   7
HETATM    7  O   UNL     1      62.061  12.276   4.334  1.00  0.00    -0.396 OA
HETATM    8  H   UNL     1      61.815  12.735   5.152  1.00  0.00     0.209 HD
ENDBRANCH   6   7
ENDBRANCH   1   6
TORSDOF 2
ENDMDL
MODEL 4
REMARK VINA RESULT:      -3.1      1.772      2.531
REMARK  2 active torsions:
REMARK  status: ('A' for Active; 'I' for Inactive)
REMARK    1  A    between atoms: C_1  and  C_6 
REMARK    2  A    between atoms: C_6  and  O_7 
ROOT
HETATM    1  C   UNL     1      62.083   9.865   3.921  1.00  0.00    -0.028 A 
HETATM    2  S   UNL     1      61.843   7.350   4.462  1.00  0.00    -0.113 SA
HETATM    3  C   UNL     1      61.378   8.729   3.565  1.00  0.00     0.058 A 
HETATM    4  C   UNL     1      63.028   9.568   4.960  1.00  0.00     0.017 A 
HETATM    5  C   UNL     1      63.001   8.246   5.344  1.00  0.00     0.050 A 
ENDROOT
BRANCH   1   6
HETATM    6  C   UNL     1      61.899  11.217   3.312  1.00  0.00     0.203 C 
BRANCH   6   7
HETATM    7  O   UNL     1      62.055  12.249   4.279  1.00  0.00    -0.396 OA
HETATM    8  H   UNL     1      61.252  12.793   4.304  1.00  0.00     0.209 HD
ENDBRANCH   6   7
ENDBRANCH   1   6
TORSDOF 2
ENDMDL
MODEL 5
REMARK VINA RESULT:      -3.1      1.536      2.250
REMARK  2 active torsions:
REMARK  status: ('A' for Active; 'I' for Inactive)
REMARK    1  A    between atoms: C_1  and  C_6 
REMARK    2  A    between atoms: C_6  and  O_7 
ROOT
HETATM    1  C   UNL     1      63.749   8.920   4.676  1.00  0.00    -0.028 A 
HETATM    2  S   UNL     1      61.935   9.571   2.956  1.00  0.00    -0.113 SA
HETATM    3  C   UNL     1      63.158   8.506   3.497  1.00  0.00     0.058 A 
HETATM    4  C   UNL     1      63.163  10.149   5.130  1.00  0.00     0.017 A 
HETATM    5  C   UNL     1      62.171  10.608   4.293  1.00  0.00     0.050 A 
ENDROOT
BRANCH   1   6
HETATM    6  C   UNL     1      64.844   8.196   5.390  1.00  0.00     0.203 C 
BRANCH   6   7
HETATM    7  O   UNL     1      65.681   9.095   6.108  1.00  0.00    -0.396 OA
HETATM    8  H   UNL     1      65.164   9.867   6.384  1.00  0.00     0.209 HD
ENDBRANCH   6   7
ENDBRANCH   1   6
TORSDOF 2
ENDMDL
MODEL 6
REMARK VINA RESULT:      -3.0      2.947      3.741
REMARK  2 active torsions:
REMARK  status: ('A' for Active; 'I' for Inactive)
REMARK    1  A    between atoms: C_1  and  C_6 
REMARK    2  A    between atoms: C_6  and  O_7 
ROOT
HETATM    1  C   UNL     1      62.143   9.628   2.702  1.00  0.00    -0.028 A 
HETATM    2  S   UNL     1      63.220   9.413   5.041  1.00  0.00    -0.113 SA
HETATM    3  C   UNL     1      62.846   8.752   3.509  1.00  0.00     0.058 A 
HETATM    4  C   UNL     1      61.919  10.872   3.383  1.00  0.00     0.017 A 
HETATM    5  C   UNL     1      62.449  10.888   4.653  1.00  0.00     0.050 A 
ENDROOT
BRANCH   1   6
HETATM    6  C   UNL     1      61.680   9.334   1.312  1.00  0.00     0.203 C 
BRANCH   6   7
HETATM    7  O   UNL     1      60.322   8.909   1.295  1.00  0.00    -0.396 OA
HETATM    8  H   UNL     1      60.126   8.421   2.109  1.00  0.00     0.209 HD
ENDBRANCH   6   7
ENDBRANCH   1   6
TORSDOF 2
ENDMDL
MODEL 7
REMARK VINA RESULT:      -2.8      4.830      5.939
REMARK  2 active torsions:
REMARK  status: ('A' for Active; 'I' for Inactive)
REMARK    1  A    between atoms: C_1  and  C_6 
REMARK    2  A    between atoms: C_6  and  O_7 
ROOT
HETATM    1  C   UNL     1      66.396   7.056   6.467  1.00  0.00    -0.028 A 
HETATM    2  S   UNL     1      66.625   5.595   8.585  1.00  0.00    -0.113 SA
HETATM    3  C   UNL     1      65.717   6.662   7.606  1.00  0.00     0.058 A 
HETATM    4  C   UNL     1      67.695   6.449   6.418  1.00  0.00     0.017 A 
HETATM    5  C   UNL     1      67.945   5.637   7.501  1.00  0.00     0.050 A 
ENDROOT
BRANCH   1   6
HETATM    6  C   UNL     1      65.859   7.981   5.423  1.00  0.00     0.203 C 
BRANCH   6   7
HETATM    7  O   UNL     1      65.456   9.224   5.986  1.00  0.00    -0.396 OA
HETATM    8  H   UNL     1      66.202   9.843   5.971  1.00  0.00     0.209 HD
ENDBRANCH   6   7
ENDBRANCH   1   6
TORSDOF 2
ENDMDL
MODEL 8
REMARK VINA RESULT:      -2.8      1.761      2.539
REMARK  2 active torsions:
REMARK  status: ('A' for Active; 'I' for Inactive)
REMARK    1  A    between atoms: C_1  and  C_6 
REMARK    2  A    between atoms: C_6  and  O_7 
ROOT
HETATM    1  C   UNL     1      63.550   9.030   5.341  1.00  0.00    -0.028 A 
HETATM    2  S   UNL     1      64.904   6.848   5.055  1.00  0.00    -0.113 SA
HETATM    3  C   UNL     1      64.773   8.547   4.912  1.00  0.00     0.058 A 
HETATM    4  C   UNL     1      62.715   7.956   5.797  1.00  0.00     0.017 A 
HETATM    5  C   UNL     1      63.325   6.726   5.697  1.00  0.00     0.050 A 
ENDROOT
BRANCH   1   6
HETATM    6  C   UNL     1      63.146  10.469   5.338  1.00  0.00     0.203 C 
BRANCH   6   7
HETATM    7  O   UNL     1      64.047  11.265   6.099  1.00  0.00    -0.396 OA
HETATM    8  H   UNL     1      64.122  12.143   5.695  1.00  0.00     0.209 HD
ENDBRANCH   6   7
ENDBRANCH   1   6
TORSDOF 2
ENDMDL
MODEL 9
REMARK VINA RESULT:      -2.7      3.889      4.437
REMARK  2 active torsions:
REMARK  status: ('A' for Active; 'I' for Inactive)
REMARK    1  A    between atoms: C_1  and  C_6 
REMARK    2  A    between atoms: C_6  and  O_7 
ROOT
HETATM    1  C   UNL     1      64.508   7.382   5.988  1.00  0.00    -0.028 A 
HETATM    2  S   UNL     1      66.937   6.829   6.672  1.00  0.00    -0.113 SA
HETATM    3  C   UNL     1      65.253   6.715   6.944  1.00  0.00     0.058 A 
HETATM    4  C   UNL     1      65.367   7.995   5.015  1.00  0.00     0.017 A 
HETATM    5  C   UNL     1      66.702   7.773   5.267  1.00  0.00     0.050 A 
ENDROOT
BRANCH   1   6
HETATM    6  C   UNL     1      63.016   7.458   5.961  1.00  0.00     0.203 C 
BRANCH   6   7
HETATM    7  O   UNL     1      62.498   7.968   7.184  1.00  0.00    -0.396 OA
HETATM    8  H   UNL     1      62.454   8.935   7.138  1.00  0.00     0.209 HD
ENDBRANCH   6   7
ENDBRANCH   1   6
TORSDOF 2
ENDMDL
