MODEL 1
REMARK VINA RESULT:      -5.0      0.000      0.000
REMARK  3 active torsions:
REMARK  status: ('A' for Active; 'I' for Inactive)
REMARK    1  A    between atoms: C_1  and  C_6 
REMARK    2  A    between atoms: C_5  and  C_11 
REMARK    3  A    between atoms: C_11  and  O_13 
ROOT
HETATM    1  C   UNK     1      63.497   8.325   4.763  1.00  0.00     0.086 A 
HETATM    2  N   UNK     1      64.734   8.501   5.197  1.00  0.00    -0.351 N 
ATOM      3  HN  UNK     1      65.359   9.244   4.883  1.00  0.00     0.166 HD
HETATM    4  S   UNK     1      62.652   7.028   5.528  1.00  0.00    -0.081 SA
HETATM    5  C   UNK     1      65.063   7.532   6.140  1.00  0.00     0.040 A 
HETATM    6  C   UNK     1      64.040   6.661   6.452  1.00  0.00     0.079 A 
ENDROOT
BRANCH   1   7
HETATM    7  C   UNK     1      62.838   9.164   3.752  1.00  0.00     0.013 A 
HETATM    8  C   UNK     1      62.332  10.434   4.025  1.00  0.00     0.101 A 
HETATM    9  N   UNK     1      61.725  11.239   3.115  1.00  0.00    -0.374 N 
HETATM   10  C   UNK     1      61.607  10.754   1.861  1.00  0.00     0.087 A 
ATOM     11  HN  UNK     1      61.376  12.164   3.367  1.00  0.00     0.164 HD
HETATM   12  C   UNK     1      62.061   9.503   1.481  1.00  0.00     0.018 A 
HETATM   13  C   UNK     1      62.677   8.701   2.442  1.00  0.00     0.017 A 
ENDBRANCH   1   7
BRANCH   5  14
HETATM   14  C   UNK     1      66.440   7.528   6.722  1.00  0.00     0.221 C 
BRANCH  14  15
HETATM   15  O   UNK     1      66.897   8.849   6.991  1.00  0.00    -0.395 OA
HETATM   16  H   UNK     1      67.365   9.194   6.214  1.00  0.00     0.209 HD
ENDBRANCH  14  15
ENDBRANCH   5  14
TORSDOF 3
ENDMDL
MODEL 2
REMARK VINA RESULT:      -4.9      2.322      5.307
REMARK  3 active torsions:
REMARK  status: ('A' for Active; 'I' for Inactive)
REMARK    1  A    between atoms: C_1  and  C_6 
REMARK    2  A    between atoms: C_5  and  C_11 
REMARK    3  A    between atoms: C_11  and  O_13 
ROOT
HETATM    1  C   UNK     1      64.725   7.974   5.175  1.00  0.00     0.086 A 
HETATM    2  N   UNK     1      64.572   9.148   5.762  1.00  0.00    -0.351 N 
ATOM      3  HN  UNK     1      65.155   9.498   6.523  1.00  0.00     0.166 HD
HETATM    4  S   UNK     1      63.636   7.684   3.866  1.00  0.00    -0.081 SA
HETATM    5  C   UNK     1      63.504   9.841   5.198  1.00  0.00     0.040 A 
HETATM    6  C   UNK     1      62.894   9.197   4.141  1.00  0.00     0.079 A 
ENDROOT
BRANCH   1   7
HETATM    7  C   UNK     1      65.751   6.986   5.538  1.00  0.00     0.013 A 
HETATM    8  C   UNK     1      66.169   6.763   6.849  1.00  0.00     0.101 A 
HETATM    9  N   UNK     1      67.107   5.855   7.221  1.00  0.00    -0.374 N 
HETATM   10  C   UNK     1      67.670   5.127   6.233  1.00  0.00     0.087 A 
ATOM     11  HN  UNK     1      67.373   5.729   8.198  1.00  0.00     0.164 HD
HETATM   12  C   UNK     1      67.342   5.273   4.896  1.00  0.00     0.018 A 
HETATM   13  C   UNK     1      66.376   6.217   4.549  1.00  0.00     0.017 A 
ENDBRANCH   1   7
BRANCH   5  14
HETATM   14  C   UNK     1      63.135  11.177   5.755  1.00  0.00     0.221 C 
BRANCH  14  15
HETATM   15  O   UNK     1      64.194  11.734   6.525  1.00  0.00    -0.395 OA
HETATM   16  H   UNK     1      63.838  12.098   7.351  1.00  0.00     0.209 HD
ENDBRANCH  14  15
ENDBRANCH   5  14
TORSDOF 3
ENDMDL
MODEL 3
REMARK VINA RESULT:      -4.7      1.959      2.392
REMARK  3 active torsions:
REMARK  status: ('A' for Active; 'I' for Inactive)
REMARK    1  A    between atoms: C_1  and  C_6 
REMARK    2  A    between atoms: C_5  and  C_11 
REMARK    3  A    between atoms: C_11  and  O_13 
ROOT
HETATM    1  C   UNK     1      65.247   7.955   5.536  1.00  0.00     0.086 A 
HETATM    2  N   UNK     1      65.210   7.566   6.799  1.00  0.00    -0.351 N 
ATOM      3  HN  UNK     1      64.397   7.652   7.409  1.00  0.00     0.166 HD
HETATM    4  S   UNK     1      66.736   7.616   4.730  1.00  0.00    -0.081 SA
HETATM    5  C   UNK     1      66.434   7.023   7.180  1.00  0.00     0.040 A 
HETATM    6  C   UNK     1      67.373   6.957   6.171  1.00  0.00     0.079 A 
ENDROOT
BRANCH   1   7
HETATM    7  C   UNK     1      64.127   8.584   4.822  1.00  0.00     0.013 A 
HETATM    8  C   UNK     1      63.512   9.759   5.248  1.00  0.00     0.101 A 
HETATM    9  N   UNK     1      62.481  10.371   4.610  1.00  0.00    -0.374 N 
HETATM   10  C   UNK     1      62.029   9.779   3.485  1.00  0.00     0.087 A 
ATOM     11  HN  UNK     1      62.069  11.235   4.964  1.00  0.00     0.164 HD
HETATM   12  C   UNK     1      62.555   8.604   2.977  1.00  0.00     0.018 A 
HETATM   13  C   UNK     1      63.611   8.000   3.659  1.00  0.00     0.017 A 
ENDBRANCH   1   7
BRANCH   5  14
HETATM   14  C   UNK     1      66.614   6.564   8.590  1.00  0.00     0.221 C 
BRANCH  14  15
HETATM   15  O   UNK     1      67.986   6.553   8.966  1.00  0.00    -0.395 OA
HETATM   16  H   UNK     1      68.058   6.447   9.928  1.00  0.00     0.209 HD
ENDBRANCH  14  15
ENDBRANCH   5  14
TORSDOF 3
ENDMDL
MODEL 4
REMARK VINA RESULT:      -4.6      2.217      2.848
REMARK  3 active torsions:
REMARK  status: ('A' for Active; 'I' for Inactive)
REMARK    1  A    between atoms: C_1  and  C_6 
REMARK    2  A    between atoms: C_5  and  C_11 
REMARK    3  A    between atoms: C_11  and  O_13 
ROOT
HETATM    1  C   UNK     1      65.165   7.851   5.607  1.00  0.00     0.086 A 
HETATM    2  N   UNK     1      65.012   7.401   6.841  1.00  0.00    -0.351 N 
ATOM      3  HN  UNK     1      64.135   7.419   7.361  1.00  0.00     0.166 HD
HETATM    4  S   UNK     1      66.748   7.621   4.956  1.00  0.00    -0.081 SA
HETATM    5  C   UNK     1      66.215   6.900   7.331  1.00  0.00     0.040 A 
HETATM    6  C   UNK     1      67.259   6.926   6.430  1.00  0.00     0.079 A 
ENDROOT
BRANCH   1   7
HETATM    7  C   UNK     1      64.097   8.459   4.801  1.00  0.00     0.013 A 
HETATM    8  C   UNK     1      63.644   7.917   3.599  1.00  0.00     0.101 A 
HETATM    9  N   UNK     1      62.655   8.447   2.833  1.00  0.00    -0.374 N 
HETATM   10  C   UNK     1      62.086   9.585   3.281  1.00  0.00     0.087 A 
ATOM     11  HN  UNK     1      62.359   8.007   1.961  1.00  0.00     0.164 HD
HETATM   12  C   UNK     1      62.465  10.217   4.453  1.00  0.00     0.018 A 
HETATM   13  C   UNK     1      63.486   9.648   5.215  1.00  0.00     0.017 A 
ENDBRANCH   1   7
BRANCH   5  14
HETATM   14  C   UNK     1      66.265   6.384   8.732  1.00  0.00     0.221 C 
BRANCH  14  15
HETATM   15  O   UNK     1      66.162   4.965   8.771  1.00  0.00    -0.395 OA
HETATM   16  H   UNK     1      65.548   4.666   8.081  1.00  0.00     0.209 HD
ENDBRANCH  14  15
ENDBRANCH   5  14
TORSDOF 3
ENDMDL
MODEL 5
REMARK VINA RESULT:      -4.6      2.224      5.397
REMARK  3 active torsions:
REMARK  status: ('A' for Active; 'I' for Inactive)
REMARK    1  A    between atoms: C_1  and  C_6 
REMARK    2  A    between atoms: C_5  and  C_11 
REMARK    3  A    between atoms: C_11  and  O_13 
ROOT
HETATM    1  C   UNK     1      64.166   8.099   4.787  1.00  0.00     0.086 A 
HETATM    2  N   UNK     1      63.526   9.256   4.766  1.00  0.00    -0.351 N 
ATOM      3  HN  UNK     1      63.620   9.984   5.474  1.00  0.00     0.166 HD
HETATM    4  S   UNK     1      63.866   7.093   3.416  1.00  0.00    -0.081 SA
HETATM    5  C   UNK     1      62.708   9.341   3.643  1.00  0.00     0.040 A 
HETATM    6  C   UNK     1      62.784   8.258   2.791  1.00  0.00     0.079 A 
ENDROOT
BRANCH   1   7
HETATM    7  C   UNK     1      65.099   7.679   5.842  1.00  0.00     0.013 A 
HETATM    8  C   UNK     1      66.337   8.285   6.054  1.00  0.00     0.101 A 
HETATM    9  N   UNK     1      67.220   7.928   7.022  1.00  0.00    -0.374 N 
HETATM   10  C   UNK     1      66.857   6.907   7.825  1.00  0.00     0.087 A 
ATOM     11  HN  UNK     1      68.113   8.409   7.136  1.00  0.00     0.164 HD
HETATM   12  C   UNK     1      65.659   6.225   7.699  1.00  0.00     0.018 A 
HETATM   13  C   UNK     1      64.777   6.614   6.691  1.00  0.00     0.017 A 
ENDBRANCH   1   7
BRANCH   5  14
HETATM   14  C   UNK     1      61.861  10.558   3.457  1.00  0.00     0.221 C 
BRANCH  14  15
HETATM   15  O   UNK     1      62.053  11.495   4.511  1.00  0.00    -0.395 OA
HETATM   16  H   UNK     1      62.242  12.370   4.136  1.00  0.00     0.209 HD
ENDBRANCH  14  15
ENDBRANCH   5  14
TORSDOF 3
ENDMDL
MODEL 6
REMARK VINA RESULT:      -4.5      2.583      6.112
REMARK  3 active torsions:
REMARK  status: ('A' for Active; 'I' for Inactive)
REMARK    1  A    between atoms: C_1  and  C_6 
REMARK    2  A    between atoms: C_5  and  C_11 
REMARK    3  A    between atoms: C_11  and  O_13 
ROOT
HETATM    1  C   UNK     1      65.056   7.080   5.955  1.00  0.00     0.086 A 
HETATM    2  N   UNK     1      64.594   8.297   6.187  1.00  0.00    -0.351 N 
ATOM      3  HN  UNK     1      64.721   8.810   7.060  1.00  0.00     0.166 HD
HETATM    4  S   UNK     1      64.750   6.494   4.359  1.00  0.00    -0.081 SA
HETATM    5  C   UNK     1      63.910   8.781   5.075  1.00  0.00     0.040 A 
HETATM    6  C   UNK     1      63.913   7.935   3.985  1.00  0.00     0.079 A 
ENDROOT
BRANCH   1   7
HETATM    7  C   UNK     1      65.812   6.274   6.923  1.00  0.00     0.013 A 
HETATM    8  C   UNK     1      65.536   4.932   7.183  1.00  0.00     0.101 A 
HETATM    9  N   UNK     1      66.218   4.157   8.065  1.00  0.00    -0.374 N 
HETATM   10  C   UNK     1      67.230   4.747   8.734  1.00  0.00     0.087 A 
ATOM     11  HN  UNK     1      65.977   3.176   8.214  1.00  0.00     0.164 HD
HETATM   12  C   UNK     1      67.584   6.075   8.566  1.00  0.00     0.018 A 
HETATM   13  C   UNK     1      66.861   6.844   7.655  1.00  0.00     0.017 A 
ENDBRANCH   1   7
BRANCH   5  14
HETATM   14  C   UNK     1      63.268  10.128   5.151  1.00  0.00     0.221 C 
BRANCH  14  15
HETATM   15  O   UNK     1      64.045  11.033   5.927  1.00  0.00    -0.395 OA
HETATM   16  H   UNK     1      63.668  11.925   5.857  1.00  0.00     0.209 HD
ENDBRANCH  14  15
ENDBRANCH   5  14
TORSDOF 3
ENDMDL
MODEL 7
REMARK VINA RESULT:      -4.1      9.500     11.629
REMARK  3 active torsions:
REMARK  status: ('A' for Active; 'I' for Inactive)
REMARK    1  A    between atoms: C_1  and  C_6 
REMARK    2  A    between atoms: C_5  and  C_11 
REMARK    3  A    between atoms: C_11  and  O_13 
ROOT
HETATM    1  C   UNK     1      57.941   2.736  10.668  1.00  0.00     0.086 A 
HETATM    2  N   UNK     1      58.562   3.887  10.470  1.00  0.00    -0.351 N 
ATOM      3  HN  UNK     1      59.099   4.387  11.179  1.00  0.00     0.166 HD
HETATM    4  S   UNK     1      57.174   2.090   9.262  1.00  0.00    -0.081 SA
HETATM    5  C   UNK     1      58.381   4.322   9.160  1.00  0.00     0.040 A 
HETATM    6  C   UNK     1      57.665   3.455   8.360  1.00  0.00     0.079 A 
ENDROOT
BRANCH   1   7
HETATM    7  C   UNK     1      57.918   2.008  11.944  1.00  0.00     0.013 A 
HETATM    8  C   UNK     1      56.792   1.339  12.422  1.00  0.00     0.101 A 
HETATM    9  N   UNK     1      56.737   0.651  13.592  1.00  0.00    -0.374 N 
HETATM   10  C   UNK     1      57.863   0.629  14.334  1.00  0.00     0.087 A 
ATOM     11  HN  UNK     1      55.887   0.174  13.893  1.00  0.00     0.164 HD
HETATM   12  C   UNK     1      59.034   1.268  13.964  1.00  0.00     0.018 A 
HETATM   13  C   UNK     1      59.055   1.969  12.759  1.00  0.00     0.017 A 
ENDBRANCH   1   7
BRANCH   5  14
HETATM   14  C   UNK     1      58.967   5.631   8.745  1.00  0.00     0.221 C 
BRANCH  14  15
HETATM   15  O   UNK     1      58.628   6.669   9.659  1.00  0.00    -0.395 OA
HETATM   16  H   UNK     1      57.922   7.216   9.280  1.00  0.00     0.209 HD
ENDBRANCH  14  15
ENDBRANCH   5  14
TORSDOF 3
ENDMDL
MODEL 8
REMARK VINA RESULT:      -4.0      3.943      5.804
REMARK  3 active torsions:
REMARK  status: ('A' for Active; 'I' for Inactive)
REMARK    1  A    between atoms: C_1  and  C_6 
REMARK    2  A    between atoms: C_5  and  C_11 
REMARK    3  A    between atoms: C_11  and  O_13 
ROOT
HETATM    1  C   UNK     1      61.255   8.719   2.336  1.00  0.00     0.086 A 
HETATM    2  N   UNK     1      59.985   8.350   2.309  1.00  0.00    -0.351 N 
ATOM      3  HN  UNK     1      59.319   8.502   3.067  1.00  0.00     0.166 HD
HETATM    4  S   UNK     1      62.122   8.395   0.878  1.00  0.00    -0.081 SA
HETATM    5  C   UNK     1      59.683   7.725   1.102  1.00  0.00     0.040 A 
HETATM    6  C   UNK     1      60.727   7.680   0.200  1.00  0.00     0.079 A 
ENDROOT
BRANCH   1   7
HETATM    7  C   UNK     1      61.905   9.392   3.469  1.00  0.00     0.013 A 
HETATM    8  C   UNK     1      62.692   8.724   4.406  1.00  0.00     0.101 A 
HETATM    9  N   UNK     1      63.313   9.315   5.459  1.00  0.00    -0.374 N 
HETATM   10  C   UNK     1      63.139  10.646   5.596  1.00  0.00     0.087 A 
ATOM     11  HN  UNK     1      63.883   8.779   6.114  1.00  0.00     0.164 HD
HETATM   12  C   UNK     1      62.368  11.408   4.733  1.00  0.00     0.018 A 
HETATM   13  C   UNK     1      61.742  10.768   3.664  1.00  0.00     0.017 A 
ENDBRANCH   1   7
BRANCH   5  14
HETATM   14  C   UNK     1      58.305   7.190   0.890  1.00  0.00     0.221 C 
BRANCH  14  15
HETATM   15  O   UNK     1      57.607   7.039   2.121  1.00  0.00    -0.395 OA
HETATM   16  H   UNK     1      57.750   7.825   2.673  1.00  0.00     0.209 HD
ENDBRANCH  14  15
ENDBRANCH   5  14
TORSDOF 3
ENDMDL
MODEL 9
REMARK VINA RESULT:      -4.0      4.091      5.256
REMARK  3 active torsions:
REMARK  status: ('A' for Active; 'I' for Inactive)
REMARK    1  A    between atoms: C_1  and  C_6 
REMARK    2  A    between atoms: C_5  and  C_11 
REMARK    3  A    between atoms: C_11  and  O_13 
ROOT
HETATM    1  C   UNK     1      61.594   5.849   6.592  1.00  0.00     0.086 A 
HETATM    2  N   UNK     1      60.455   6.165   7.184  1.00  0.00    -0.351 N 
ATOM      3  HN  UNK     1      60.084   7.112   7.263  1.00  0.00     0.166 HD
HETATM    4  S   UNK     1      61.928   4.155   6.548  1.00  0.00    -0.081 SA
HETATM    5  C   UNK     1      59.832   5.025   7.686  1.00  0.00     0.040 A 
HETATM    6  C   UNK     1      60.489   3.843   7.413  1.00  0.00     0.079 A 
ENDROOT
BRANCH   1   7
HETATM    7  C   UNK     1      62.508   6.816   5.967  1.00  0.00     0.013 A 
HETATM    8  C   UNK     1      63.788   7.081   6.452  1.00  0.00     0.101 A 
HETATM    9  N   UNK     1      64.660   7.962   5.896  1.00  0.00    -0.374 N 
HETATM   10  C   UNK     1      64.237   8.624   4.800  1.00  0.00     0.087 A 
ATOM     11  HN  UNK     1      65.590   8.115   6.289  1.00  0.00     0.164 HD
HETATM   12  C   UNK     1      62.982   8.450   4.240  1.00  0.00     0.018 A 
HETATM   13  C   UNK     1      62.110   7.540   4.838  1.00  0.00     0.017 A 
ENDBRANCH   1   7
BRANCH   5  14
HETATM   14  C   UNK     1      58.549   5.174   8.435  1.00  0.00     0.221 C 
BRANCH  14  15
HETATM   15  O   UNK     1      58.774   5.343   9.830  1.00  0.00    -0.395 OA
HETATM   16  H   UNK     1      58.677   4.489  10.280  1.00  0.00     0.209 HD
ENDBRANCH  14  15
ENDBRANCH   5  14
TORSDOF 3
ENDMDL
