MODEL 1
REMARK VINA RESULT:      -5.3      0.000      0.000
REMARK  3 active torsions:
REMARK  status: ('A' for Active; 'I' for Inactive)
REMARK    1  A    between atoms: C_1  and  C_6 
REMARK    2  A    between atoms: C_3  and  C_7 
REMARK    3  A    between atoms: C_7  and  O_9 
ROOT
HETATM    1  C   UNL     1      64.314   8.246   5.264  1.00  0.00     0.086 A 
HETATM    2  O   UNL     1      65.649   8.409   5.028  1.00  0.00    -0.314 OA
HETATM    3  C   UNL     1      65.434   6.734   6.519  1.00  0.00    -0.003 A 
HETATM    4  C   UNL     1      64.139   7.212   6.163  1.00  0.00     0.050 A 
HETATM    5  C   UNL     1      66.321   7.505   5.791  1.00  0.00     0.058 A 
HETATM    6  C   UNL     1      67.794   7.551   5.690  1.00  0.00     0.077 C 
ENDROOT
BRANCH   1   7
HETATM    7  C   UNL     1      63.415   9.169   4.576  1.00  0.00    -0.002 A 
HETATM    8  C   UNL     1      62.885   8.865   3.313  1.00  0.00     0.014 A 
HETATM    9  C   UNL     1      62.059   9.771   2.642  1.00  0.00     0.001 A 
HETATM   10  C   UNL     1      61.747  10.995   3.227  1.00  0.00     0.000 A 
HETATM   11  C   UNL     1      62.254  11.311   4.485  1.00  0.00     0.001 A 
HETATM   12  C   UNL     1      63.081  10.403   5.155  1.00  0.00     0.014 A 
ENDBRANCH   1   7
BRANCH   3  13
HETATM   13  C   UNL     1      65.750   5.654   7.485  1.00  0.00     0.205 C 
BRANCH  13  14
HETATM   14  O   UNL     1      66.196   6.175   8.732  1.00  0.00    -0.396 OA
HETATM   15  H   UNL     1      65.438   6.517   9.230  1.00  0.00     0.209 HD
ENDBRANCH  13  14
ENDBRANCH   3  13
TORSDOF 3
ENDMDL
MODEL 2
REMARK VINA RESULT:      -5.3      1.626      2.517
REMARK  3 active torsions:
REMARK  status: ('A' for Active; 'I' for Inactive)
REMARK    1  A    between atoms: C_1  and  C_6 
REMARK    2  A    between atoms: C_3  and  C_7 
REMARK    3  A    between atoms: C_7  and  O_9 
ROOT
HETATM    1  C   UNL     1      62.950   8.333   4.724  1.00  0.00     0.086 A 
HETATM    2  O   UNL     1      61.996   7.455   5.154  1.00  0.00    -0.314 OA
HETATM    3  C   UNL     1      63.944   6.848   6.110  1.00  0.00    -0.003 A 
HETATM    4  C   UNL     1      64.159   8.004   5.305  1.00  0.00     0.050 A 
HETATM    5  C   UNL     1      62.598   6.557   5.980  1.00  0.00     0.058 A 
HETATM    6  C   UNL     1      61.721   5.501   6.525  1.00  0.00     0.077 C 
ENDROOT
BRANCH   1   7
HETATM    7  C   UNL     1      62.513   9.353   3.773  1.00  0.00    -0.002 A 
HETATM    8  C   UNL     1      62.387   9.067   2.406  1.00  0.00     0.014 A 
HETATM    9  C   UNL     1      62.011  10.058   1.495  1.00  0.00     0.001 A 
HETATM   10  C   UNL     1      61.749  11.350   1.940  1.00  0.00     0.000 A 
HETATM   11  C   UNL     1      61.857  11.652   3.296  1.00  0.00     0.001 A 
HETATM   12  C   UNL     1      62.235  10.659   4.205  1.00  0.00     0.014 A 
ENDBRANCH   1   7
BRANCH   3  13
HETATM   13  C   UNL     1      64.960   6.109   6.898  1.00  0.00     0.205 C 
BRANCH  13  14
HETATM   14  O   UNL     1      65.347   6.826   8.064  1.00  0.00    -0.396 OA
HETATM   15  H   UNL     1      66.239   6.555   8.330  1.00  0.00     0.209 HD
ENDBRANCH  13  14
ENDBRANCH   3  13
TORSDOF 3
ENDMDL
MODEL 3
REMARK VINA RESULT:      -5.1      1.758      5.578
REMARK  3 active torsions:
REMARK  status: ('A' for Active; 'I' for Inactive)
REMARK    1  A    between atoms: C_1  and  C_6 
REMARK    2  A    between atoms: C_3  and  C_7 
REMARK    3  A    between atoms: C_7  and  O_9 
ROOT
HETATM    1  C   UNL     1      64.519   8.394   5.045  1.00  0.00     0.086 A 
HETATM    2  O   UNL     1      64.188   9.585   5.626  1.00  0.00    -0.314 OA
HETATM    3  C   UNL     1      62.763   9.259   3.912  1.00  0.00    -0.003 A 
HETATM    4  C   UNL     1      63.653   8.149   3.998  1.00  0.00     0.050 A 
HETATM    5  C   UNL     1      63.138  10.108   4.937  1.00  0.00     0.058 A 
HETATM    6  C   UNL     1      62.655  11.422   5.406  1.00  0.00     0.077 C 
ENDROOT
BRANCH   1   7
HETATM    7  C   UNL     1      65.671   7.694   5.608  1.00  0.00    -0.002 A 
HETATM    8  C   UNL     1      66.928   7.743   4.987  1.00  0.00     0.014 A 
HETATM    9  C   UNL     1      68.016   7.037   5.507  1.00  0.00     0.001 A 
HETATM   10  C   UNL     1      67.864   6.273   6.661  1.00  0.00     0.000 A 
HETATM   11  C   UNL     1      66.627   6.221   7.299  1.00  0.00     0.001 A 
HETATM   12  C   UNL     1      65.539   6.928   6.776  1.00  0.00     0.014 A 
ENDBRANCH   1   7
BRANCH   3  13
HETATM   13  C   UNL     1      61.683   9.460   2.916  1.00  0.00     0.205 C 
BRANCH  13  14
HETATM   14  O   UNL     1      60.444   8.921   3.365  1.00  0.00    -0.396 OA
HETATM   15  H   UNL     1      60.578   8.460   4.208  1.00  0.00     0.209 HD
ENDBRANCH  13  14
ENDBRANCH   3  13
TORSDOF 3
ENDMDL
MODEL 4
REMARK VINA RESULT:      -5.0      1.844      5.627
REMARK  3 active torsions:
REMARK  status: ('A' for Active; 'I' for Inactive)
REMARK    1  A    between atoms: C_1  and  C_6 
REMARK    2  A    between atoms: C_3  and  C_7 
REMARK    3  A    between atoms: C_7  and  O_9 
ROOT
HETATM    1  C   UNL     1      64.339   8.348   4.771  1.00  0.00     0.086 A 
HETATM    2  O   UNL     1      63.870   7.755   3.634  1.00  0.00    -0.314 OA
HETATM    3  C   UNL     1      62.731   9.681   3.903  1.00  0.00    -0.003 A 
HETATM    4  C   UNL     1      63.677   9.544   4.961  1.00  0.00     0.050 A 
HETATM    5  C   UNL     1      62.896   8.554   3.119  1.00  0.00     0.058 A 
HETATM    6  C   UNL     1      62.243   8.057   1.891  1.00  0.00     0.077 C 
ENDROOT
BRANCH   1   7
HETATM    7  C   UNL     1      65.361   7.613   5.513  1.00  0.00    -0.002 A 
HETATM    8  C   UNL     1      65.045   6.907   6.683  1.00  0.00     0.014 A 
HETATM    9  C   UNL     1      66.035   6.241   7.411  1.00  0.00     0.001 A 
HETATM   10  C   UNL     1      67.357   6.269   6.976  1.00  0.00     0.000 A 
HETATM   11  C   UNL     1      67.690   6.955   5.811  1.00  0.00     0.001 A 
HETATM   12  C   UNL     1      66.698   7.621   5.084  1.00  0.00     0.014 A 
ENDBRANCH   1   7
BRANCH   3  13
HETATM   13  C   UNL     1      61.766  10.789   3.708  1.00  0.00     0.205 C 
BRANCH  13  14
HETATM   14  O   UNL     1      62.174  11.971   4.388  1.00  0.00    -0.396 OA
HETATM   15  H   UNL     1      62.354  12.670   3.741  1.00  0.00     0.209 HD
ENDBRANCH  13  14
ENDBRANCH   3  13
TORSDOF 3
ENDMDL
MODEL 5
REMARK VINA RESULT:      -5.0      1.224      1.795
REMARK  3 active torsions:
REMARK  status: ('A' for Active; 'I' for Inactive)
REMARK    1  A    between atoms: C_1  and  C_6 
REMARK    2  A    between atoms: C_3  and  C_7 
REMARK    3  A    between atoms: C_7  and  O_9 
ROOT
HETATM    1  C   UNL     1      63.991   8.207   5.082  1.00  0.00     0.086 A 
HETATM    2  O   UNL     1      63.424   7.004   5.393  1.00  0.00    -0.314 OA
HETATM    3  C   UNL     1      65.508   7.002   6.248  1.00  0.00    -0.003 A 
HETATM    4  C   UNL     1      65.267   8.252   5.606  1.00  0.00     0.050 A 
HETATM    5  C   UNL     1      64.342   6.277   6.086  1.00  0.00     0.058 A 
HETATM    6  C   UNL     1      63.914   4.921   6.486  1.00  0.00     0.077 C 
ENDROOT
BRANCH   1   7
HETATM    7  C   UNL     1      63.180   9.120   4.280  1.00  0.00    -0.002 A 
HETATM    8  C   UNL     1      62.785   8.790   2.975  1.00  0.00     0.014 A 
HETATM    9  C   UNL     1      62.045   9.686   2.198  1.00  0.00     0.001 A 
HETATM   10  C   UNL     1      61.684  10.925   2.718  1.00  0.00     0.000 A 
HETATM   11  C   UNL     1      62.056  11.268   4.016  1.00  0.00     0.001 A 
HETATM   12  C   UNL     1      62.798  10.370   4.791  1.00  0.00     0.014 A 
ENDBRANCH   1   7
BRANCH   3  13
HETATM   13  C   UNL     1      66.757   6.573   6.923  1.00  0.00     0.205 C 
BRANCH  13  14
HETATM   14  O   UNL     1      67.203   7.537   7.870  1.00  0.00    -0.396 OA
HETATM   15  H   UNL     1      66.918   8.420   7.591  1.00  0.00     0.209 HD
ENDBRANCH  13  14
ENDBRANCH   3  13
TORSDOF 3
ENDMDL
MODEL 6
REMARK VINA RESULT:      -4.9      2.347      5.456
REMARK  3 active torsions:
REMARK  status: ('A' for Active; 'I' for Inactive)
REMARK    1  A    between atoms: C_1  and  C_6 
REMARK    2  A    between atoms: C_3  and  C_7 
REMARK    3  A    between atoms: C_7  and  O_9 
ROOT
HETATM    1  C   UNL     1      64.673   7.839   4.457  1.00  0.00     0.086 A 
HETATM    2  O   UNL     1      63.563   7.947   3.669  1.00  0.00    -0.314 OA
HETATM    3  C   UNL     1      63.566   9.714   5.066  1.00  0.00    -0.003 A 
HETATM    4  C   UNL     1      64.721   8.918   5.318  1.00  0.00     0.050 A 
HETATM    5  C   UNL     1      62.894   9.071   4.043  1.00  0.00     0.058 A 
HETATM    6  C   UNL     1      61.638   9.340   3.315  1.00  0.00     0.077 C 
ENDROOT
BRANCH   1   7
HETATM    7  C   UNL     1      65.505   6.656   4.250  1.00  0.00    -0.002 A 
HETATM    8  C   UNL     1      66.539   6.328   5.139  1.00  0.00     0.014 A 
HETATM    9  C   UNL     1      67.359   5.218   4.913  1.00  0.00     0.001 A 
HETATM   10  C   UNL     1      67.153   4.417   3.793  1.00  0.00     0.000 A 
HETATM   11  C   UNL     1      66.124   4.719   2.904  1.00  0.00     0.001 A 
HETATM   12  C   UNL     1      65.306   5.830   3.132  1.00  0.00     0.014 A 
ENDBRANCH   1   7
BRANCH   3  13
HETATM   13  C   UNL     1      63.169  10.956   5.772  1.00  0.00     0.205 C 
BRANCH  13  14
HETATM   14  O   UNL     1      64.265  11.544   6.464  1.00  0.00    -0.396 OA
HETATM   15  H   UNL     1      65.049  10.983   6.363  1.00  0.00     0.209 HD
ENDBRANCH  13  14
ENDBRANCH   3  13
TORSDOF 3
ENDMDL
MODEL 7
REMARK VINA RESULT:      -4.7      2.699      4.207
REMARK  3 active torsions:
REMARK  status: ('A' for Active; 'I' for Inactive)
REMARK    1  A    between atoms: C_1  and  C_6 
REMARK    2  A    between atoms: C_3  and  C_7 
REMARK    3  A    between atoms: C_7  and  O_9 
ROOT
HETATM    1  C   UNL     1      61.871   8.477   3.347  1.00  0.00     0.086 A 
HETATM    2  O   UNL     1      61.772   9.653   4.033  1.00  0.00    -0.314 OA
HETATM    3  C   UNL     1      63.759   8.733   4.565  1.00  0.00    -0.003 A 
HETATM    4  C   UNL     1      63.088   7.889   3.633  1.00  0.00     0.050 A 
HETATM    5  C   UNL     1      62.905   9.801   4.773  1.00  0.00     0.058 A 
HETATM    6  C   UNL     1      62.968  11.013   5.614  1.00  0.00     0.077 C 
ENDROOT
BRANCH   1   7
HETATM    7  C   UNL     1      60.720   8.103   2.529  1.00  0.00    -0.002 A 
HETATM    8  C   UNL     1      60.717   8.302   1.140  1.00  0.00     0.014 A 
HETATM    9  C   UNL     1      59.595   7.981   0.370  1.00  0.00     0.001 A 
HETATM   10  C   UNL     1      58.461   7.451   0.978  1.00  0.00     0.000 A 
HETATM   11  C   UNL     1      58.448   7.235   2.353  1.00  0.00     0.001 A 
HETATM   12  C   UNL     1      59.571   7.558   3.123  1.00  0.00     0.014 A 
ENDBRANCH   1   7
BRANCH   3  13
HETATM   13  C   UNL     1      65.083   8.495   5.190  1.00  0.00     0.205 C 
BRANCH  13  14
HETATM   14  O   UNL     1      64.961   7.871   6.463  1.00  0.00    -0.396 OA
HETATM   15  H   UNL     1      65.194   8.505   7.158  1.00  0.00     0.209 HD
ENDBRANCH  13  14
ENDBRANCH   3  13
TORSDOF 3
ENDMDL
MODEL 8
REMARK VINA RESULT:      -4.3      2.331      5.807
REMARK  3 active torsions:
REMARK  status: ('A' for Active; 'I' for Inactive)
REMARK    1  A    between atoms: C_1  and  C_6 
REMARK    2  A    between atoms: C_3  and  C_7 
REMARK    3  A    between atoms: C_7  and  O_9 
ROOT
HETATM    1  C   UNL     1      63.687   8.093   3.938  1.00  0.00     0.086 A 
HETATM    2  O   UNL     1      63.625   9.033   4.927  1.00  0.00    -0.314 OA
HETATM    3  C   UNL     1      62.374   9.785   3.210  1.00  0.00    -0.003 A 
HETATM    4  C   UNL     1      62.915   8.511   2.871  1.00  0.00     0.050 A 
HETATM    5  C   UNL     1      62.842  10.054   4.483  1.00  0.00     0.058 A 
HETATM    6  C   UNL     1      62.681  11.188   5.415  1.00  0.00     0.077 C 
ENDROOT
BRANCH   1   7
HETATM    7  C   UNL     1      64.533   6.931   4.197  1.00  0.00    -0.002 A 
HETATM    8  C   UNL     1      65.908   7.071   4.437  1.00  0.00     0.014 A 
HETATM    9  C   UNL     1      66.721   5.952   4.643  1.00  0.00     0.001 A 
HETATM   10  C   UNL     1      66.167   4.675   4.616  1.00  0.00     0.000 A 
HETATM   11  C   UNL     1      64.802   4.516   4.391  1.00  0.00     0.001 A 
HETATM   12  C   UNL     1      63.991   5.637   4.185  1.00  0.00     0.014 A 
ENDBRANCH   1   7
BRANCH   3  13
HETATM   13  C   UNL     1      61.512  10.642   2.360  1.00  0.00     0.205 C 
BRANCH  13  14
HETATM   14  O   UNL     1      62.178  11.837   1.970  1.00  0.00    -0.396 OA
HETATM   15  H   UNL     1      62.914  11.620   1.378  1.00  0.00     0.209 HD
ENDBRANCH  13  14
ENDBRANCH   3  13
TORSDOF 3
ENDMDL
MODEL 9
REMARK VINA RESULT:      -4.2      4.250      5.210
REMARK  3 active torsions:
REMARK  status: ('A' for Active; 'I' for Inactive)
REMARK    1  A    between atoms: C_1  and  C_6 
REMARK    2  A    between atoms: C_3  and  C_7 
REMARK    3  A    between atoms: C_7  and  O_9 
ROOT
HETATM    1  C   UNL     1      61.198   5.893   6.486  1.00  0.00     0.086 A 
HETATM    2  O   UNL     1      61.692   4.621   6.534  1.00  0.00    -0.314 OA
HETATM    3  C   UNL     1      59.907   4.698   7.907  1.00  0.00    -0.003 A 
HETATM    4  C   UNL     1      60.088   5.977   7.303  1.00  0.00     0.050 A 
HETATM    5  C   UNL     1      60.919   3.907   7.397  1.00  0.00     0.058 A 
HETATM    6  C   UNL     1      61.323   2.501   7.604  1.00  0.00     0.077 C 
ENDROOT
BRANCH   1   7
HETATM    7  C   UNL     1      61.929   6.843   5.651  1.00  0.00    -0.002 A 
HETATM    8  C   UNL     1      61.439   7.239   4.397  1.00  0.00     0.014 A 
HETATM    9  C   UNL     1      62.164   8.115   3.584  1.00  0.00     0.001 A 
HETATM   10  C   UNL     1      63.390   8.612   4.017  1.00  0.00     0.000 A 
HETATM   11  C   UNL     1      63.889   8.240   5.263  1.00  0.00     0.001 A 
HETATM   12  C   UNL     1      63.162   7.363   6.074  1.00  0.00     0.014 A 
ENDBRANCH   1   7
BRANCH   3  13
HETATM   13  C   UNL     1      58.864   4.317   8.889  1.00  0.00     0.205 C 
BRANCH  13  14
HETATM   14  O   UNL     1      58.713   5.300   9.907  1.00  0.00    -0.396 OA
HETATM   15  H   UNL     1      59.025   6.157   9.579  1.00  0.00     0.209 HD
ENDBRANCH  13  14
ENDBRANCH   3  13
TORSDOF 3
ENDMDL
