MODEL 1
REMARK VINA RESULT:      -4.2      0.000      0.000
REMARK  2 active torsions:
REMARK  status: ('A' for Active; 'I' for Inactive)
REMARK    1  A    between atoms: C_1  and  C_7 
REMARK    2  A    between atoms: C_7  and  N_10 
ROOT
HETATM    1  C   UNL     1      62.389  10.329   4.220  1.00  0.00     0.015 A 
HETATM    2  N   UNL     1      62.478   8.314   3.140  1.00  0.00    -0.303 N 
ATOM      3  HN  UNL     1      62.595   7.323   2.932  1.00  0.00     0.186 HD
HETATM    4  N   UNL     1      62.179   9.304   2.284  1.00  0.00    -0.300 N 
HETATM    5  C   UNL     1      62.096  10.537   2.879  1.00  0.00     0.034 A 
HETATM    6  C   UNL     1      62.588   8.923   4.326  1.00  0.00     0.032 A 
HETATM    7  C   UNL     1      61.996   8.963   0.892  1.00  0.00     0.177 C 
HETATM    8  C   UNL     1      61.749  11.776   2.138  1.00  0.00     0.070 C 
HETATM    9  C   UNL     1      62.878   8.108   5.531  1.00  0.00     0.070 C 
ENDROOT
BRANCH   1  10
HETATM   10  C   UNL     1      62.476  11.341   5.309  1.00  0.00     0.272 C 
BRANCH  10  11
HETATM   11  N   UNL     1      63.767  11.201   5.969  1.00  0.00    -0.075 N 
HETATM   12  H   UNL     1      64.324  12.039   5.804  1.00  0.00     0.274 HD
HETATM   13  H   UNL     1      64.254  10.388   5.594  1.00  0.00     0.274 HD
HETATM   14  H   UNL     1      63.623  11.080   6.972  1.00  0.00     0.274 HD
ENDBRANCH  10  11
ENDBRANCH   1  10
TORSDOF 2
ENDMDL
MODEL 2
REMARK VINA RESULT:      -4.0      1.641      2.710
REMARK  2 active torsions:
REMARK  status: ('A' for Active; 'I' for Inactive)
REMARK    1  A    between atoms: C_1  and  C_7 
REMARK    2  A    between atoms: C_7  and  N_10 
ROOT
HETATM    1  C   UNL     1      63.193   8.978   4.079  1.00  0.00     0.015 A 
HETATM    2  N   UNL     1      61.519  10.160   3.061  1.00  0.00    -0.303 N 
ATOM      3  HN  UNL     1      60.823  10.871   2.838  1.00  0.00     0.186 HD
HETATM    4  N   UNL     1      61.759   9.011   2.409  1.00  0.00    -0.300 N 
HETATM    5  C   UNL     1      62.767   8.265   2.965  1.00  0.00     0.034 A 
HETATM    6  C   UNL     1      62.399  10.160   4.068  1.00  0.00     0.032 A 
HETATM    7  C   UNL     1      60.953   8.711   1.249  1.00  0.00     0.177 C 
HETATM    8  C   UNL     1      63.228   6.972   2.400  1.00  0.00     0.070 C 
HETATM    9  C   UNL     1      62.443  11.324   4.987  1.00  0.00     0.070 C 
ENDROOT
BRANCH   1  10
HETATM   10  C   UNL     1      64.241   8.599   5.065  1.00  0.00     0.272 C 
BRANCH  10  11
HETATM   11  N   UNL     1      63.604   7.898   6.172  1.00  0.00    -0.075 N 
HETATM   12  H   UNL     1      63.765   8.413   7.037  1.00  0.00     0.274 HD
HETATM   13  H   UNL     1      64.000   6.962   6.254  1.00  0.00     0.274 HD
HETATM   14  H   UNL     1      62.601   7.830   5.998  1.00  0.00     0.274 HD
ENDBRANCH  10  11
ENDBRANCH   1  10
TORSDOF 2
ENDMDL
MODEL 3
REMARK VINA RESULT:      -3.9      1.520      3.427
REMARK  2 active torsions:
REMARK  status: ('A' for Active; 'I' for Inactive)
REMARK    1  A    between atoms: C_1  and  C_7 
REMARK    2  A    between atoms: C_7  and  N_10 
ROOT
HETATM    1  C   UNL     1      61.904   9.089   2.280  1.00  0.00     0.015 A 
HETATM    2  N   UNL     1      62.621   8.900   4.445  1.00  0.00    -0.303 N 
ATOM      3  HN  UNL     1      62.929   8.524   5.342  1.00  0.00     0.186 HD
HETATM    4  N   UNL     1      62.413  10.186   4.120  1.00  0.00    -0.300 N 
HETATM    5  C   UNL     1      61.997  10.364   2.826  1.00  0.00     0.034 A 
HETATM    6  C   UNL     1      62.334   8.225   3.327  1.00  0.00     0.032 A 
HETATM    7  C   UNL     1      62.639  11.186   5.138  1.00  0.00     0.177 C 
HETATM    8  C   UNL     1      61.732  11.699   2.233  1.00  0.00     0.070 C 
HETATM    9  C   UNL     1      62.497   6.750   3.313  1.00  0.00     0.070 C 
ENDROOT
BRANCH   1  10
HETATM   10  C   UNL     1      61.460   8.706   0.913  1.00  0.00     0.272 C 
BRANCH  10  11
HETATM   11  N   UNL     1      60.006   8.613   0.908  1.00  0.00    -0.075 N 
HETATM   12  H   UNL     1      59.651   8.795   1.846  1.00  0.00     0.274 HD
HETATM   13  H   UNL     1      59.727   7.678   0.613  1.00  0.00     0.274 HD
HETATM   14  H   UNL     1      59.624   9.302   0.260  1.00  0.00     0.274 HD
ENDBRANCH  10  11
ENDBRANCH   1  10
TORSDOF 2
ENDMDL
MODEL 4
REMARK VINA RESULT:      -3.9      1.970      3.804
REMARK  2 active torsions:
REMARK  status: ('A' for Active; 'I' for Inactive)
REMARK    1  A    between atoms: C_1  and  C_7 
REMARK    2  A    between atoms: C_7  and  N_10 
ROOT
HETATM    1  C   UNL     1      62.907   9.046   3.794  1.00  0.00     0.015 A 
HETATM    2  N   UNL     1      64.372   9.179   5.547  1.00  0.00    -0.303 N 
ATOM      3  HN  UNL     1      64.885   9.501   6.367  1.00  0.00     0.186 HD
HETATM    4  N   UNL     1      64.572   8.057   4.839  1.00  0.00    -0.300 N 
HETATM    5  C   UNL     1      63.711   7.913   3.782  1.00  0.00     0.034 A 
HETATM    6  C   UNL     1      63.347   9.780   4.932  1.00  0.00     0.032 A 
HETATM    7  C   UNL     1      65.636   7.174   5.259  1.00  0.00     0.177 C 
HETATM    8  C   UNL     1      63.724   6.737   2.876  1.00  0.00     0.070 C 
HETATM    9  C   UNL     1      62.822  11.054   5.483  1.00  0.00     0.070 C 
ENDROOT
BRANCH   1  10
HETATM   10  C   UNL     1      61.827   9.415   2.839  1.00  0.00     0.272 C 
BRANCH  10  11
HETATM   11  N   UNL     1      60.563   8.899   3.347  1.00  0.00    -0.075 N 
HETATM   12  H   UNL     1      60.541   8.994   4.362  1.00  0.00     0.274 HD
HETATM   13  H   UNL     1      60.472   7.916   3.094  1.00  0.00     0.274 HD
HETATM   14  H   UNL     1      59.792   9.429   2.939  1.00  0.00     0.274 HD
ENDBRANCH  10  11
ENDBRANCH   1  10
TORSDOF 2
ENDMDL
MODEL 5
REMARK VINA RESULT:      -3.9      1.472      3.020
REMARK  2 active torsions:
REMARK  status: ('A' for Active; 'I' for Inactive)
REMARK    1  A    between atoms: C_1  and  C_7 
REMARK    2  A    between atoms: C_7  and  N_10 
ROOT
HETATM    1  C   UNL     1      62.575   9.491   4.495  1.00  0.00     0.015 A 
HETATM    2  N   UNL     1      60.888   9.101   2.999  1.00  0.00    -0.303 N 
ATOM      3  HN  UNL     1      60.188   9.216   2.267  1.00  0.00     0.186 HD
HETATM    4  N   UNL     1      61.125   8.013   3.748  1.00  0.00    -0.300 N 
HETATM    5  C   UNL     1      62.139   8.181   4.655  1.00  0.00     0.034 A 
HETATM    6  C   UNL     1      61.779  10.001   3.431  1.00  0.00     0.032 A 
HETATM    7  C   UNL     1      60.307   6.844   3.520  1.00  0.00     0.177 C 
HETATM    8  C   UNL     1      62.599   7.107   5.571  1.00  0.00     0.070 C 
HETATM    9  C   UNL     1      61.829  11.335   2.783  1.00  0.00     0.070 C 
ENDROOT
BRANCH   1  10
HETATM   10  C   UNL     1      63.634  10.205   5.258  1.00  0.00     0.272 C 
BRANCH  10  11
HETATM   11  N   UNL     1      63.000  10.989   6.309  1.00  0.00    -0.075 N 
HETATM   12  H   UNL     1      62.905  10.418   7.148  1.00  0.00     0.274 HD
HETATM   13  H   UNL     1      62.078  11.293   5.997  1.00  0.00     0.274 HD
HETATM   14  H   UNL     1      63.575  11.806   6.517  1.00  0.00     0.274 HD
ENDBRANCH  10  11
ENDBRANCH   1  10
TORSDOF 2
ENDMDL
MODEL 6
REMARK VINA RESULT:      -3.8      1.462      2.560
REMARK  2 active torsions:
REMARK  status: ('A' for Active; 'I' for Inactive)
REMARK    1  A    between atoms: C_1  and  C_7 
REMARK    2  A    between atoms: C_7  and  N_10 
ROOT
HETATM    1  C   UNL     1      62.882   8.841   3.893  1.00  0.00     0.015 A 
HETATM    2  N   UNL     1      62.188   9.408   1.788  1.00  0.00    -0.303 N 
ATOM      3  HN  UNL     1      61.954   9.375   0.796  1.00  0.00     0.186 HD
HETATM    4  N   UNL     1      62.121  10.463   2.615  1.00  0.00    -0.300 N 
HETATM    5  C   UNL     1      62.510  10.180   3.898  1.00  0.00     0.034 A 
HETATM    6  C   UNL     1      62.630   8.409   2.560  1.00  0.00     0.032 A 
HETATM    7  C   UNL     1      61.670  11.722   2.068  1.00  0.00     0.177 C 
HETATM    8  C   UNL     1      62.493  11.182   4.994  1.00  0.00     0.070 C 
HETATM    9  C   UNL     1      62.787   7.057   1.971  1.00  0.00     0.070 C 
ENDROOT
BRANCH   1  10
HETATM   10  C   UNL     1      63.420   8.034   5.022  1.00  0.00     0.272 C 
BRANCH  10  11
HETATM   11  N   UNL     1      64.830   8.355   5.190  1.00  0.00    -0.075 N 
HETATM   12  H   UNL     1      64.954   8.911   6.036  1.00  0.00     0.274 HD
HETATM   13  H   UNL     1      65.157   8.885   4.383  1.00  0.00     0.274 HD
HETATM   14  H   UNL     1      65.368   7.491   5.270  1.00  0.00     0.274 HD
ENDBRANCH  10  11
ENDBRANCH   1  10
TORSDOF 2
ENDMDL
MODEL 7
REMARK VINA RESULT:      -3.6      1.922      3.311
REMARK  2 active torsions:
REMARK  status: ('A' for Active; 'I' for Inactive)
REMARK    1  A    between atoms: C_1  and  C_7 
REMARK    2  A    between atoms: C_7  and  N_10 
ROOT
HETATM    1  C   UNL     1      62.376   9.125   3.256  1.00  0.00     0.015 A 
HETATM    2  N   UNL     1      62.906   7.284   2.005  1.00  0.00    -0.303 N 
ATOM      3  HN  UNL     1      62.905   6.557   1.289  1.00  0.00     0.186 HD
HETATM    4  N   UNL     1      63.721   7.394   3.066  1.00  0.00    -0.300 N 
HETATM    5  C   UNL     1      63.461   8.490   3.846  1.00  0.00     0.034 A 
HETATM    6  C   UNL     1      62.096   8.344   2.099  1.00  0.00     0.032 A 
HETATM    7  C   UNL     1      64.731   6.376   3.251  1.00  0.00     0.177 C 
HETATM    8  C   UNL     1      64.252   8.834   5.055  1.00  0.00     0.070 C 
HETATM    9  C   UNL     1      61.073   8.565   1.047  1.00  0.00     0.070 C 
ENDROOT
BRANCH   1  10
HETATM   10  C   UNL     1      61.662  10.346   3.720  1.00  0.00     0.272 C 
BRANCH  10  11
HETATM   11  N   UNL     1      61.789  11.374   2.696  1.00  0.00    -0.075 N 
HETATM   12  H   UNL     1      62.671  11.871   2.821  1.00  0.00     0.274 HD
HETATM   13  H   UNL     1      61.013  12.030   2.775  1.00  0.00     0.274 HD
HETATM   14  H   UNL     1      61.773  10.937   1.774  1.00  0.00     0.274 HD
ENDBRANCH  10  11
ENDBRANCH   1  10
TORSDOF 2
ENDMDL
MODEL 8
REMARK VINA RESULT:      -3.6      1.444      2.704
REMARK  2 active torsions:
REMARK  status: ('A' for Active; 'I' for Inactive)
REMARK    1  A    between atoms: C_1  and  C_7 
REMARK    2  A    between atoms: C_7  and  N_10 
ROOT
HETATM    1  C   UNL     1      62.591   9.596   4.166  1.00  0.00     0.015 A 
HETATM    2  N   UNL     1      62.186  11.846   4.080  1.00  0.00    -0.303 N 
ATOM      3  HN  UNL     1      62.083  12.829   4.332  1.00  0.00     0.186 HD
HETATM    4  N   UNL     1      61.924  11.267   2.898  1.00  0.00    -0.300 N 
HETATM    5  C   UNL     1      62.164   9.917   2.884  1.00  0.00     0.034 A 
HETATM    6  C   UNL     1      62.612  10.842   4.854  1.00  0.00     0.032 A 
HETATM    7  C   UNL     1      61.433  12.105   1.829  1.00  0.00     0.177 C 
HETATM    8  C   UNL     1      61.975   9.070   1.679  1.00  0.00     0.070 C 
HETATM    9  C   UNL     1      63.036  11.134   6.246  1.00  0.00     0.070 C 
ENDROOT
BRANCH   1  10
HETATM   10  C   UNL     1      62.950   8.256   4.705  1.00  0.00     0.272 C 
BRANCH  10  11
HETATM   11  N   UNL     1      64.392   8.085   4.599  1.00  0.00    -0.075 N 
HETATM   12  H   UNL     1      64.860   8.917   4.957  1.00  0.00     0.274 HD
HETATM   13  H   UNL     1      64.646   7.944   3.622  1.00  0.00     0.274 HD
HETATM   14  H   UNL     1      64.678   7.272   5.146  1.00  0.00     0.274 HD
ENDBRANCH  10  11
ENDBRANCH   1  10
TORSDOF 2
ENDMDL
MODEL 9
REMARK VINA RESULT:      -3.6      2.978      4.379
REMARK  2 active torsions:
REMARK  status: ('A' for Active; 'I' for Inactive)
REMARK    1  A    between atoms: C_1  and  C_7 
REMARK    2  A    between atoms: C_7  and  N_10 
ROOT
HETATM    1  C   UNL     1      65.174   7.272   4.543  1.00  0.00     0.015 A 
HETATM    2  N   UNL     1      64.545   9.174   5.649  1.00  0.00    -0.303 N 
ATOM      3  HN  UNL     1      64.500   9.947   6.313  1.00  0.00     0.186 HD
HETATM    4  N   UNL     1      63.704   8.907   4.638  1.00  0.00    -0.300 N 
HETATM    5  C   UNL     1      64.040   7.785   3.926  1.00  0.00     0.034 A 
HETATM    6  C   UNL     1      65.456   8.197   5.589  1.00  0.00     0.032 A 
HETATM    7  C   UNL     1      62.586   9.800   4.435  1.00  0.00     0.177 C 
HETATM    8  C   UNL     1      63.274   7.310   2.746  1.00  0.00     0.070 C 
HETATM    9  C   UNL     1      66.583   8.200   6.555  1.00  0.00     0.070 C 
ENDROOT
BRANCH   1  10
HETATM   10  C   UNL     1      65.930   6.038   4.196  1.00  0.00     0.272 C 
BRANCH  10  11
HETATM   11  N   UNL     1      67.236   6.425   3.679  1.00  0.00    -0.075 N 
HETATM   12  H   UNL     1      67.437   5.894   2.832  1.00  0.00     0.274 HD
HETATM   13  H   UNL     1      67.950   6.232   4.380  1.00  0.00     0.274 HD
HETATM   14  H   UNL     1      67.233   7.423   3.462  1.00  0.00     0.274 HD
ENDBRANCH  10  11
ENDBRANCH   1  10
TORSDOF 2
ENDMDL
