MODEL 1
REMARK VINA RESULT:      -4.9      0.000      0.000
REMARK  3 active torsions:
REMARK  status: ('A' for Active; 'I' for Inactive)
REMARK    1  A    between atoms: N_1  and  C_2 
REMARK    2  A    between atoms: N_8  and  C_14 
REMARK    3  A    between atoms: C_9  and  C_14 
ROOT
HETATM    1  C   UNL     1      65.271   7.776   4.936  1.00  0.00     0.030 A 
HETATM    2  C   UNL     1      64.739   7.049   3.863  1.00  0.00     0.030 A 
HETATM    3  C   UNL     1      64.564   8.922   5.329  1.00  0.00     0.030 A 
HETATM    4  C   UNL     1      63.583   7.461   3.185  1.00  0.00     0.011 A 
HETATM    5  C   UNL     1      63.398   9.332   4.671  1.00  0.00     0.011 A 
HETATM    6  C   UNL     1      62.901   8.615   3.579  1.00  0.00    -0.033 A 
ENDROOT
BRANCH   1   7
HETATM    7  N   UNL     1      66.467   7.398   5.519  1.00  0.00    -0.377 N 
HETATM    8  C   UNL     1      66.736   7.590   6.954  1.00  0.00     0.149 C 
HETATM    9  C   UNL     1      66.715   6.246   7.691  1.00  0.00     0.187 C 
HETATM   10  O   UNL     1      67.647   5.322   7.105  1.00  0.00    -0.388 OA
HETATM   11  C   UNL     1      67.305   5.077   5.730  1.00  0.00     0.187 C 
HETATM   12  C   UNL     1      67.310   6.367   4.887  1.00  0.00     0.149 C 
ENDBRANCH   1   7
BRANCH   6  13
HETATM   13  C   UNL     1      61.695   9.121   2.817  1.00  0.00     0.270 C 
BRANCH  13  14
HETATM   14  N   UNL     1      61.408  10.527   3.102  1.00  0.00    -0.075 N 
HETATM   15  C   UNL     1      61.817  11.373   1.990  1.00  0.00     0.267 C 
HETATM   16  H   UNL     1      61.915  10.810   3.940  1.00  0.00     0.277 HD
HETATM   17  H   UNL     1      60.403  10.634   3.241  1.00  0.00     0.277 HD
ENDBRANCH  13  14
ENDBRANCH   6  13
TORSDOF 3
ENDMDL
MODEL 2
REMARK VINA RESULT:      -4.8      1.022      1.680
REMARK  3 active torsions:
REMARK  status: ('A' for Active; 'I' for Inactive)
REMARK    1  A    between atoms: N_1  and  C_2 
REMARK    2  A    between atoms: N_8  and  C_14 
REMARK    3  A    between atoms: C_9  and  C_14 
ROOT
HETATM    1  C   UNL     1      64.978   7.179   5.026  1.00  0.00     0.030 A 
HETATM    2  C   UNL     1      64.517   8.447   5.406  1.00  0.00     0.030 A 
HETATM    3  C   UNL     1      64.448   6.649   3.840  1.00  0.00     0.030 A 
HETATM    4  C   UNL     1      63.547   9.138   4.668  1.00  0.00     0.011 A 
HETATM    5  C   UNL     1      63.492   7.340   3.085  1.00  0.00     0.011 A 
HETATM    6  C   UNL     1      63.016   8.587   3.497  1.00  0.00    -0.033 A 
ENDROOT
BRANCH   1   7
HETATM    7  N   UNL     1      65.861   6.480   5.829  1.00  0.00    -0.377 N 
HETATM    8  C   UNL     1      66.488   7.085   7.016  1.00  0.00     0.149 C 
HETATM    9  C   UNL     1      65.890   6.498   8.300  1.00  0.00     0.187 C 
HETATM   10  O   UNL     1      66.013   5.066   8.318  1.00  0.00    -0.388 OA
HETATM   11  C   UNL     1      65.311   4.494   7.201  1.00  0.00     0.187 C 
HETATM   12  C   UNL     1      65.844   5.007   5.849  1.00  0.00     0.149 C 
ENDBRANCH   1   7
BRANCH   6  13
HETATM   13  C   UNL     1      61.916   9.280   2.725  1.00  0.00     0.270 C 
BRANCH  13  14
HETATM   14  N   UNL     1      61.682  10.646   3.195  1.00  0.00    -0.075 N 
HETATM   15  C   UNL     1      61.777  11.595   2.095  1.00  0.00     0.267 C 
HETATM   16  H   UNL     1      62.378  10.881   3.901  1.00  0.00     0.277 HD
HETATM   17  H   UNL     1      60.742  10.699   3.591  1.00  0.00     0.277 HD
ENDBRANCH  13  14
ENDBRANCH   6  13
TORSDOF 3
ENDMDL
MODEL 3
REMARK VINA RESULT:      -4.7      2.843      6.277
REMARK  3 active torsions:
REMARK  status: ('A' for Active; 'I' for Inactive)
REMARK    1  A    between atoms: N_1  and  C_2 
REMARK    2  A    between atoms: N_8  and  C_14 
REMARK    3  A    between atoms: C_9  and  C_14 
ROOT
HETATM    1  C   UNL     1      63.775   8.022   3.930  1.00  0.00     0.030 A 
HETATM    2  C   UNL     1      64.392   8.713   4.982  1.00  0.00     0.030 A 
HETATM    3  C   UNL     1      64.471   6.921   3.411  1.00  0.00     0.030 A 
HETATM    4  C   UNL     1      65.656   8.354   5.468  1.00  0.00     0.011 A 
HETATM    5  C   UNL     1      65.726   6.541   3.903  1.00  0.00     0.011 A 
HETATM    6  C   UNL     1      66.343   7.263   4.928  1.00  0.00    -0.033 A 
ENDROOT
BRANCH   1   7
HETATM    7  N   UNL     1      62.573   8.462   3.407  1.00  0.00    -0.377 N 
HETATM    8  C   UNL     1      61.871   9.642   3.940  1.00  0.00     0.149 C 
HETATM    9  C   UNL     1      61.969  10.816   2.959  1.00  0.00     0.187 C 
HETATM   10  O   UNL     1      61.463  10.450   1.664  1.00  0.00    -0.388 OA
HETATM   11  C   UNL     1      62.228   9.358   1.124  1.00  0.00     0.187 C 
HETATM   12  C   UNL     1      62.187   8.111   2.029  1.00  0.00     0.149 C 
ENDBRANCH   1   7
BRANCH   6  13
HETATM   13  C   UNL     1      67.740   6.902   5.385  1.00  0.00     0.270 C 
BRANCH  13  14
HETATM   14  N   UNL     1      67.870   6.924   6.842  1.00  0.00    -0.075 N 
HETATM   15  C   UNL     1      67.833   5.573   7.384  1.00  0.00     0.267 C 
HETATM   16  H   UNL     1      67.102   7.464   7.239  1.00  0.00     0.277 HD
HETATM   17  H   UNL     1      68.766   7.348   7.084  1.00  0.00     0.277 HD
ENDBRANCH  13  14
ENDBRANCH   6  13
TORSDOF 3
ENDMDL
MODEL 4
REMARK VINA RESULT:      -4.6      1.531      2.219
REMARK  3 active torsions:
REMARK  status: ('A' for Active; 'I' for Inactive)
REMARK    1  A    between atoms: N_1  and  C_2 
REMARK    2  A    between atoms: N_8  and  C_14 
REMARK    3  A    between atoms: C_9  and  C_14 
ROOT
HETATM    1  C   UNL     1      64.235   8.038   4.928  1.00  0.00     0.030 A 
HETATM    2  C   UNL     1      63.519   9.242   4.985  1.00  0.00     0.030 A 
HETATM    3  C   UNL     1      64.064   7.262   3.773  1.00  0.00     0.030 A 
HETATM    4  C   UNL     1      62.644   9.637   3.964  1.00  0.00     0.011 A 
HETATM    5  C   UNL     1      63.207   7.656   2.738  1.00  0.00     0.011 A 
HETATM    6  C   UNL     1      62.472   8.842   2.828  1.00  0.00    -0.033 A 
ENDROOT
BRANCH   1   7
HETATM    7  N   UNL     1      65.013   7.630   5.996  1.00  0.00    -0.377 N 
HETATM    8  C   UNL     1      64.736   6.390   6.740  1.00  0.00     0.149 C 
HETATM    9  C   UNL     1      65.789   5.323   6.420  1.00  0.00     0.187 C 
HETATM   10  O   UNL     1      67.115   5.808   6.691  1.00  0.00    -0.388 OA
HETATM   11  C   UNL     1      67.395   6.963   5.881  1.00  0.00     0.187 C 
HETATM   12  C   UNL     1      66.400   8.111   6.134  1.00  0.00     0.149 C 
ENDBRANCH   1   7
BRANCH   6  13
HETATM   13  C   UNL     1      61.478   9.210   1.748  1.00  0.00     0.270 C 
BRANCH  13  14
HETATM   14  N   UNL     1      60.200   8.517   1.910  1.00  0.00    -0.075 N 
HETATM   15  C   UNL     1      59.661   8.118   0.617  1.00  0.00     0.267 C 
HETATM   16  H   UNL     1      59.537   9.140   2.371  1.00  0.00     0.277 HD
HETATM   17  H   UNL     1      60.351   7.679   2.473  1.00  0.00     0.277 HD
ENDBRANCH  13  14
ENDBRANCH   6  13
TORSDOF 3
ENDMDL
MODEL 5
REMARK VINA RESULT:      -4.0      2.808      4.026
REMARK  3 active torsions:
REMARK  status: ('A' for Active; 'I' for Inactive)
REMARK    1  A    between atoms: N_1  and  C_2 
REMARK    2  A    between atoms: N_8  and  C_14 
REMARK    3  A    between atoms: C_9  and  C_14 
ROOT
HETATM    1  C   UNL     1      62.141   8.237   3.974  1.00  0.00     0.030 A 
HETATM    2  C   UNL     1      62.292   9.083   2.867  1.00  0.00     0.030 A 
HETATM    3  C   UNL     1      61.185   7.217   3.857  1.00  0.00     0.030 A 
HETATM    4  C   UNL     1      61.505   8.950   1.715  1.00  0.00     0.011 A 
HETATM    5  C   UNL     1      60.407   7.063   2.703  1.00  0.00     0.011 A 
HETATM    6  C   UNL     1      60.545   7.939   1.622  1.00  0.00    -0.033 A 
ENDROOT
BRANCH   1   7
HETATM    7  N   UNL     1      62.863   8.456   5.132  1.00  0.00    -0.377 N 
HETATM    8  C   UNL     1      62.746   7.578   6.308  1.00  0.00     0.149 C 
HETATM    9  C   UNL     1      64.009   6.724   6.471  1.00  0.00     0.187 C 
HETATM   10  O   UNL     1      65.183   7.549   6.552  1.00  0.00    -0.388 OA
HETATM   11  C   UNL     1      65.326   8.326   5.350  1.00  0.00     0.187 C 
HETATM   12  C   UNL     1      64.112   9.238   5.095  1.00  0.00     0.149 C 
ENDBRANCH   1   7
BRANCH   6  13
HETATM   13  C   UNL     1      59.633   7.821   0.421  1.00  0.00     0.270 C 
BRANCH  13  14
HETATM   14  N   UNL     1      58.359   7.180   0.751  1.00  0.00    -0.075 N 
HETATM   15  C   UNL     1      58.301   5.833   0.200  1.00  0.00     0.267 C 
HETATM   16  H   UNL     1      57.596   7.733   0.363  1.00  0.00     0.277 HD
HETATM   17  H   UNL     1      58.276   7.122   1.766  1.00  0.00     0.277 HD
ENDBRANCH  13  14
ENDBRANCH   6  13
TORSDOF 3
ENDMDL
MODEL 6
REMARK VINA RESULT:      -4.0      4.475      6.265
REMARK  3 active torsions:
REMARK  status: ('A' for Active; 'I' for Inactive)
REMARK    1  A    between atoms: N_1  and  C_2 
REMARK    2  A    between atoms: N_8  and  C_14 
REMARK    3  A    between atoms: C_9  and  C_14 
ROOT
HETATM    1  C   UNL     1      61.835   7.767   4.465  1.00  0.00     0.030 A 
HETATM    2  C   UNL     1      60.578   7.330   4.022  1.00  0.00     0.030 A 
HETATM    3  C   UNL     1      62.313   7.198   5.654  1.00  0.00     0.030 A 
HETATM    4  C   UNL     1      59.815   6.404   4.746  1.00  0.00     0.011 A 
HETATM    5  C   UNL     1      61.567   6.257   6.375  1.00  0.00     0.011 A 
HETATM    6  C   UNL     1      60.300   5.860   5.939  1.00  0.00    -0.033 A 
ENDROOT
BRANCH   1   7
HETATM    7  N   UNL     1      62.518   8.755   3.780  1.00  0.00    -0.377 N 
HETATM    8  C   UNL     1      62.606   8.774   2.310  1.00  0.00     0.149 C 
HETATM    9  C   UNL     1      61.738   9.897   1.732  1.00  0.00     0.187 C 
HETATM   10  O   UNL     1      62.102  11.170   2.292  1.00  0.00    -0.388 OA
HETATM   11  C   UNL     1      61.915  11.156   3.718  1.00  0.00     0.187 C 
HETATM   12  C   UNL     1      62.759  10.066   4.407  1.00  0.00     0.149 C 
ENDBRANCH   1   7
BRANCH   6  13
HETATM   13  C   UNL     1      59.464   4.916   6.776  1.00  0.00     0.270 C 
BRANCH  13  14
HETATM   14  N   UNL     1      58.318   5.586   7.391  1.00  0.00    -0.075 N 
HETATM   15  C   UNL     1      58.706   6.235   8.635  1.00  0.00     0.267 C 
HETATM   16  H   UNL     1      57.592   4.897   7.585  1.00  0.00     0.277 HD
HETATM   17  H   UNL     1      57.970   6.296   6.746  1.00  0.00     0.277 HD
ENDBRANCH  13  14
ENDBRANCH   6  13
TORSDOF 3
ENDMDL
MODEL 7
REMARK VINA RESULT:      -3.9      3.766      5.695
REMARK  3 active torsions:
REMARK  status: ('A' for Active; 'I' for Inactive)
REMARK    1  A    between atoms: N_1  and  C_2 
REMARK    2  A    between atoms: N_8  and  C_14 
REMARK    3  A    between atoms: C_9  and  C_14 
ROOT
HETATM    1  C   UNL     1      61.166   8.520   2.565  1.00  0.00     0.030 A 
HETATM    2  C   UNL     1      60.787   8.623   1.219  1.00  0.00     0.030 A 
HETATM    3  C   UNL     1      60.310   7.789   3.402  1.00  0.00     0.030 A 
HETATM    4  C   UNL     1      59.596   8.064   0.736  1.00  0.00     0.011 A 
HETATM    5  C   UNL     1      59.128   7.209   2.926  1.00  0.00     0.011 A 
HETATM    6  C   UNL     1      58.747   7.353   1.589  1.00  0.00    -0.033 A 
ENDROOT
BRANCH   1   7
HETATM    7  N   UNL     1      62.296   9.167   3.030  1.00  0.00    -0.377 N 
HETATM    8  C   UNL     1      62.290  10.595   3.388  1.00  0.00     0.149 C 
HETATM    9  C   UNL     1      62.371  10.770   4.909  1.00  0.00     0.187 C 
HETATM   10  O   UNL     1      63.528  10.104   5.443  1.00  0.00    -0.388 OA
HETATM   11  C   UNL     1      63.461   8.695   5.163  1.00  0.00     0.187 C 
HETATM   12  C   UNL     1      63.390   8.401   3.652  1.00  0.00     0.149 C 
ENDBRANCH   1   7
BRANCH   6  13
HETATM   13  C   UNL     1      57.421   6.804   1.108  1.00  0.00     0.270 C 
BRANCH  13  14
HETATM   14  N   UNL     1      56.410   6.789   2.165  1.00  0.00    -0.075 N 
HETATM   15  C   UNL     1      55.159   6.228   1.676  1.00  0.00     0.267 C 
HETATM   16  H   UNL     1      56.245   7.743   2.485  1.00  0.00     0.277 HD
HETATM   17  H   UNL     1      56.749   6.210   2.934  1.00  0.00     0.277 HD
ENDBRANCH  13  14
ENDBRANCH   6  13
TORSDOF 3
ENDMDL
MODEL 8
REMARK VINA RESULT:      -3.8      4.227      6.603
REMARK  3 active torsions:
REMARK  status: ('A' for Active; 'I' for Inactive)
REMARK    1  A    between atoms: N_1  and  C_2 
REMARK    2  A    between atoms: N_8  and  C_14 
REMARK    3  A    between atoms: C_9  and  C_14 
ROOT
HETATM    1  C   UNL     1      60.942   6.893   4.551  1.00  0.00     0.030 A 
HETATM    2  C   UNL     1      61.741   6.552   5.651  1.00  0.00     0.030 A 
HETATM    3  C   UNL     1      61.494   7.799   3.633  1.00  0.00     0.030 A 
HETATM    4  C   UNL     1      63.009   7.114   5.853  1.00  0.00     0.011 A 
HETATM    5  C   UNL     1      62.768   8.351   3.815  1.00  0.00     0.011 A 
HETATM    6  C   UNL     1      63.536   8.028   4.937  1.00  0.00    -0.033 A 
ENDROOT
BRANCH   1   7
HETATM    7  N   UNL     1      59.657   6.398   4.433  1.00  0.00    -0.377 N 
HETATM    8  C   UNL     1      59.053   5.532   5.459  1.00  0.00     0.149 C 
HETATM    9  C   UNL     1      57.978   6.293   6.243  1.00  0.00     0.187 C 
HETATM   10  O   UNL     1      56.978   6.829   5.360  1.00  0.00    -0.388 OA
HETATM   11  C   UNL     1      57.580   7.747   4.430  1.00  0.00     0.187 C 
HETATM   12  C   UNL     1      58.672   7.078   3.573  1.00  0.00     0.149 C 
ENDBRANCH   1   7
BRANCH   6  13
HETATM   13  C   UNL     1      64.870   8.703   5.171  1.00  0.00     0.270 C 
BRANCH  13  14
HETATM   14  N   UNL     1      65.529   8.225   6.387  1.00  0.00    -0.075 N 
HETATM   15  C   UNL     1      66.917   7.876   6.119  1.00  0.00     0.267 C 
HETATM   16  H   UNL     1      65.038   7.401   6.732  1.00  0.00     0.277 HD
HETATM   17  H   UNL     1      65.508   8.969   7.085  1.00  0.00     0.277 HD
ENDBRANCH  13  14
ENDBRANCH   6  13
TORSDOF 3
ENDMDL
MODEL 9
REMARK VINA RESULT:      -3.7      4.421      5.207
REMARK  3 active torsions:
REMARK  status: ('A' for Active; 'I' for Inactive)
REMARK    1  A    between atoms: N_1  and  C_2 
REMARK    2  A    between atoms: N_8  and  C_14 
REMARK    3  A    between atoms: C_9  and  C_14 
ROOT
HETATM    1  C   UNL     1      61.723   6.782   5.089  1.00  0.00     0.030 A 
HETATM    2  C   UNL     1      60.540   6.763   4.337  1.00  0.00     0.030 A 
HETATM    3  C   UNL     1      61.632   6.321   6.410  1.00  0.00     0.030 A 
HETATM    4  C   UNL     1      59.318   6.345   4.882  1.00  0.00     0.011 A 
HETATM    5  C   UNL     1      60.421   5.882   6.959  1.00  0.00     0.011 A 
HETATM    6  C   UNL     1      59.243   5.904   6.206  1.00  0.00    -0.033 A 
ENDROOT
BRANCH   1   7
HETATM    7  N   UNL     1      62.890   7.294   4.552  1.00  0.00    -0.377 N 
HETATM    8  C   UNL     1      62.992   8.685   4.081  1.00  0.00     0.149 C 
HETATM    9  C   UNL     1      63.850   9.518   5.040  1.00  0.00     0.187 C 
HETATM   10  O   UNL     1      65.150   8.930   5.213  1.00  0.00    -0.388 OA
HETATM   11  C   UNL     1      65.026   7.607   5.765  1.00  0.00     0.187 C 
HETATM   12  C   UNL     1      64.189   6.675   4.868  1.00  0.00     0.149 C 
ENDBRANCH   1   7
BRANCH   6  13
HETATM   13  C   UNL     1      57.924   5.518   6.839  1.00  0.00     0.270 C 
BRANCH  13  14
HETATM   14  N   UNL     1      57.642   6.290   8.050  1.00  0.00    -0.075 N 
HETATM   15  C   UNL     1      56.716   7.377   7.765  1.00  0.00     0.267 C 
HETATM   16  H   UNL     1      58.513   6.678   8.410  1.00  0.00     0.277 HD
HETATM   17  H   UNL     1      57.216   5.671   8.740  1.00  0.00     0.277 HD
ENDBRANCH  13  14
ENDBRANCH   6  13
TORSDOF 3
ENDMDL
