MODEL 1
REMARK VINA RESULT:      -4.8      0.000      0.000
REMARK  3 active torsions:
REMARK  status: ('A' for Active; 'I' for Inactive)
REMARK    1  A    between atoms: N_1  and  C_5 
REMARK    2  A    between atoms: C_12  and  C_14 
REMARK    3  A    between atoms: O_13  and  C_14 
ROOT
HETATM    1  C   UNL     1      64.306   8.061   5.023  1.00  0.00     0.039 A 
HETATM    2  C   UNL     1      63.596   9.262   5.144  1.00  0.00     0.030 A 
HETATM    3  C   UNL     1      64.129   7.278   3.873  1.00  0.00     0.030 A 
HETATM    4  C   UNL     1      63.259   7.692   2.861  1.00  0.00     0.011 A 
HETATM    5  C   UNL     1      62.733   9.677   4.123  1.00  0.00     0.011 A 
HETATM    6  C   UNL     1      62.557   8.895   2.975  1.00  0.00    -0.035 A 
ENDROOT
BRANCH   1   7
HETATM    7  N   UNL     1      65.215   7.653   6.038  1.00  0.00    -0.317 N 
HETATM    8  C   UNL     1      66.471   8.166   6.294  1.00  0.00     0.188 A 
HETATM    9  N   UNL     1      67.087   7.538   7.271  1.00  0.00    -0.360 N 
HETATM   10  C   UNL     1      66.206   6.583   7.688  1.00  0.00     0.106 A 
ATOM     11  HN  UNL     1      68.021   7.723   7.637  1.00  0.00     0.166 HD
HETATM   12  C   UNL     1      65.040   6.647   6.963  1.00  0.00     0.115 A 
ENDBRANCH   1   7
BRANCH   6  13
HETATM   13  C   UNL     1      61.633   9.353   1.881  1.00  0.00     0.202 C 
BRANCH  13  14
HETATM   14  O   UNL     1      61.313  10.727   2.049  1.00  0.00    -0.396 OA
HETATM   15  H   UNL     1      60.788  10.842   2.856  1.00  0.00     0.209 HD
ENDBRANCH  13  14
ENDBRANCH   6  13
TORSDOF 3
ENDMDL
MODEL 2
REMARK VINA RESULT:      -4.7      0.071      1.341
REMARK  3 active torsions:
REMARK  status: ('A' for Active; 'I' for Inactive)
REMARK    1  A    between atoms: N_1  and  C_5 
REMARK    2  A    between atoms: C_12  and  C_14 
REMARK    3  A    between atoms: O_13  and  C_14 
ROOT
HETATM    1  C   UNL     1      64.375   8.055   5.023  1.00  0.00     0.039 A 
HETATM    2  C   UNL     1      64.194   7.256   3.887  1.00  0.00     0.030 A 
HETATM    3  C   UNL     1      63.655   9.253   5.137  1.00  0.00     0.030 A 
HETATM    4  C   UNL     1      62.764   9.640   4.132  1.00  0.00     0.011 A 
HETATM    5  C   UNL     1      63.294   7.645   2.889  1.00  0.00     0.011 A 
HETATM    6  C   UNL     1      62.574   8.840   3.002  1.00  0.00    -0.035 A 
ENDROOT
BRANCH   1   7
HETATM    7  N   UNL     1      65.259   7.646   6.062  1.00  0.00    -0.317 N 
HETATM    8  C   UNL     1      66.509   8.156   6.347  1.00  0.00     0.188 A 
HETATM    9  N   UNL     1      67.099   7.528   7.340  1.00  0.00    -0.360 N 
HETATM   10  C   UNL     1      66.205   6.576   7.737  1.00  0.00     0.106 A 
ATOM     11  HN  UNL     1      68.024   7.711   7.729  1.00  0.00     0.166 HD
HETATM   12  C   UNL     1      65.058   6.642   6.984  1.00  0.00     0.115 A 
ENDBRANCH   1   7
BRANCH   6  13
HETATM   13  C   UNL     1      61.605   9.246   1.927  1.00  0.00     0.202 C 
BRANCH  13  14
HETATM   14  O   UNL     1      61.282  10.625   2.049  1.00  0.00    -0.396 OA
HETATM   15  H   UNL     1      60.541  10.838   1.460  1.00  0.00     0.209 HD
ENDBRANCH  13  14
ENDBRANCH   6  13
TORSDOF 3
ENDMDL
MODEL 3
REMARK VINA RESULT:      -4.4      1.715      2.198
REMARK  3 active torsions:
REMARK  status: ('A' for Active; 'I' for Inactive)
REMARK    1  A    between atoms: N_1  and  C_5 
REMARK    2  A    between atoms: C_12  and  C_14 
REMARK    3  A    between atoms: O_13  and  C_14 
ROOT
HETATM    1  C   UNL     1      64.338   7.015   6.214  1.00  0.00     0.039 A 
HETATM    2  C   UNL     1      64.909   8.029   5.434  1.00  0.00     0.030 A 
HETATM    3  C   UNL     1      62.969   6.740   6.078  1.00  0.00     0.030 A 
HETATM    4  C   UNL     1      62.188   7.465   5.175  1.00  0.00     0.011 A 
HETATM    5  C   UNL     1      64.123   8.746   4.525  1.00  0.00     0.011 A 
HETATM    6  C   UNL     1      62.757   8.471   4.389  1.00  0.00    -0.035 A 
ENDROOT
BRANCH   1   7
HETATM    7  N   UNL     1      65.139   6.255   7.112  1.00  0.00    -0.317 N 
HETATM    8  C   UNL     1      65.138   4.885   7.280  1.00  0.00     0.188 A 
HETATM    9  N   UNL     1      65.958   4.490   8.229  1.00  0.00    -0.360 N 
HETATM   10  C   UNL     1      66.534   5.635   8.698  1.00  0.00     0.106 A 
ATOM     11  HN  UNL     1      66.128   3.535   8.545  1.00  0.00     0.166 HD
HETATM   12  C   UNL     1      66.065   6.731   8.014  1.00  0.00     0.115 A 
ENDBRANCH   1   7
BRANCH   6  13
HETATM   13  C   UNL     1      61.923   9.241   3.404  1.00  0.00     0.202 C 
BRANCH  13  14
HETATM   14  O   UNL     1      61.363  10.391   4.025  1.00  0.00    -0.396 OA
HETATM   15  H   UNL     1      61.462  11.157   3.437  1.00  0.00     0.209 HD
ENDBRANCH  13  14
ENDBRANCH   6  13
TORSDOF 3
ENDMDL
MODEL 4
REMARK VINA RESULT:      -4.2      3.306      5.621
REMARK  3 active torsions:
REMARK  status: ('A' for Active; 'I' for Inactive)
REMARK    1  A    between atoms: N_1  and  C_5 
REMARK    2  A    between atoms: C_12  and  C_14 
REMARK    3  A    between atoms: O_13  and  C_14 
ROOT
HETATM    1  C   UNL     1      63.934   8.186   4.044  1.00  0.00     0.039 A 
HETATM    2  C   UNL     1      64.284   6.885   3.663  1.00  0.00     0.030 A 
HETATM    3  C   UNL     1      64.577   8.770   5.145  1.00  0.00     0.030 A 
HETATM    4  C   UNL     1      65.558   8.065   5.848  1.00  0.00     0.011 A 
HETATM    5  C   UNL     1      65.274   6.187   4.364  1.00  0.00     0.011 A 
HETATM    6  C   UNL     1      65.917   6.770   5.463  1.00  0.00    -0.035 A 
ENDROOT
BRANCH   1   7
HETATM    7  N   UNL     1      62.958   8.917   3.311  1.00  0.00    -0.317 N 
HETATM    8  C   UNL     1      62.245  10.021   3.734  1.00  0.00     0.188 A 
HETATM    9  N   UNL     1      61.376  10.438   2.839  1.00  0.00    -0.360 N 
HETATM   10  C   UNL     1      61.525   9.590   1.780  1.00  0.00     0.106 A 
ATOM     11  HN  UNL     1      60.731  11.224   2.919  1.00  0.00     0.166 HD
HETATM   12  C   UNL     1      62.506   8.661   2.034  1.00  0.00     0.115 A 
ENDBRANCH   1   7
BRANCH   6  13
HETATM   13  C   UNL     1      66.983   6.015   6.206  1.00  0.00     0.202 C 
BRANCH  13  14
HETATM   14  O   UNL     1      68.075   6.873   6.509  1.00  0.00    -0.396 OA
HETATM   15  H   UNL     1      68.633   6.977   5.723  1.00  0.00     0.209 HD
ENDBRANCH  13  14
ENDBRANCH   6  13
TORSDOF 3
ENDMDL
MODEL 5
REMARK VINA RESULT:      -4.2      3.352      5.603
REMARK  3 active torsions:
REMARK  status: ('A' for Active; 'I' for Inactive)
REMARK    1  A    between atoms: N_1  and  C_5 
REMARK    2  A    between atoms: C_12  and  C_14 
REMARK    3  A    between atoms: O_13  and  C_14 
ROOT
HETATM    1  C   UNL     1      63.956   8.230   5.363  1.00  0.00     0.039 A 
HETATM    2  C   UNL     1      65.302   8.616   5.330  1.00  0.00     0.030 A 
HETATM    3  C   UNL     1      63.588   7.099   6.107  1.00  0.00     0.030 A 
HETATM    4  C   UNL     1      64.552   6.371   6.810  1.00  0.00     0.011 A 
HETATM    5  C   UNL     1      66.261   7.888   6.044  1.00  0.00     0.011 A 
HETATM    6  C   UNL     1      65.894   6.760   6.787  1.00  0.00    -0.035 A 
ENDROOT
BRANCH   1   7
HETATM    7  N   UNL     1      62.969   8.988   4.673  1.00  0.00    -0.317 N 
HETATM    8  C   UNL     1      61.989   8.513   3.825  1.00  0.00     0.188 A 
HETATM    9  N   UNL     1      61.262   9.475   3.300  1.00  0.00    -0.360 N 
HETATM   10  C   UNL     1      61.767  10.628   3.828  1.00  0.00     0.106 A 
ATOM     11  HN  UNL     1      60.488   9.380   2.642  1.00  0.00     0.166 HD
HETATM   12  C   UNL     1      62.800  10.356   4.691  1.00  0.00     0.115 A 
ENDBRANCH   1   7
BRANCH   6  13
HETATM   13  C   UNL     1      66.931   5.988   7.556  1.00  0.00     0.202 C 
BRANCH  13  14
HETATM   14  O   UNL     1      67.685   6.865   8.382  1.00  0.00    -0.396 OA
HETATM   15  H   UNL     1      67.159   7.655   8.582  1.00  0.00     0.209 HD
ENDBRANCH  13  14
ENDBRANCH   6  13
TORSDOF 3
ENDMDL
MODEL 6
REMARK VINA RESULT:      -4.1      1.993      2.814
REMARK  3 active torsions:
REMARK  status: ('A' for Active; 'I' for Inactive)
REMARK    1  A    between atoms: N_1  and  C_5 
REMARK    2  A    between atoms: C_12  and  C_14 
REMARK    3  A    between atoms: O_13  and  C_14 
ROOT
HETATM    1  C   UNL     1      62.535   7.720   3.746  1.00  0.00     0.039 A 
HETATM    2  C   UNL     1      61.276   7.120   3.876  1.00  0.00     0.030 A 
HETATM    3  C   UNL     1      62.821   8.461   2.590  1.00  0.00     0.030 A 
HETATM    4  C   UNL     1      61.861   8.603   1.585  1.00  0.00     0.011 A 
HETATM    5  C   UNL     1      60.315   7.274   2.870  1.00  0.00     0.011 A 
HETATM    6  C   UNL     1      60.600   8.015   1.717  1.00  0.00    -0.035 A 
ENDROOT
BRANCH   1   7
HETATM    7  N   UNL     1      63.502   7.602   4.783  1.00  0.00    -0.317 N 
HETATM    8  C   UNL     1      63.294   7.175   6.079  1.00  0.00     0.188 A 
HETATM    9  N   UNL     1      64.383   7.228   6.813  1.00  0.00    -0.360 N 
HETATM   10  C   UNL     1      65.352   7.695   5.973  1.00  0.00     0.106 A 
ATOM     11  HN  UNL     1      64.483   6.976   7.796  1.00  0.00     0.166 HD
HETATM   12  C   UNL     1      64.844   7.910   4.715  1.00  0.00     0.115 A 
ENDBRANCH   1   7
BRANCH   6  13
HETATM   13  C   UNL     1      59.559   8.179   0.645  1.00  0.00     0.202 C 
BRANCH  13  14
HETATM   14  O   UNL     1      58.267   8.291   1.226  1.00  0.00    -0.396 OA
HETATM   15  H   UNL     1      58.049   9.228   1.351  1.00  0.00     0.209 HD
ENDBRANCH  13  14
ENDBRANCH   6  13
TORSDOF 3
ENDMDL
MODEL 7
REMARK VINA RESULT:      -4.1      3.299      5.486
REMARK  3 active torsions:
REMARK  status: ('A' for Active; 'I' for Inactive)
REMARK    1  A    between atoms: N_1  and  C_5 
REMARK    2  A    between atoms: C_12  and  C_14 
REMARK    3  A    between atoms: O_13  and  C_14 
ROOT
HETATM    1  C   UNL     1      63.350   7.945   3.379  1.00  0.00     0.039 A 
HETATM    2  C   UNL     1      63.540   8.925   4.362  1.00  0.00     0.030 A 
HETATM    3  C   UNL     1      64.262   6.884   3.289  1.00  0.00     0.030 A 
HETATM    4  C   UNL     1      65.342   6.802   4.172  1.00  0.00     0.011 A 
HETATM    5  C   UNL     1      64.618   8.832   5.250  1.00  0.00     0.011 A 
HETATM    6  C   UNL     1      65.528   7.772   5.161  1.00  0.00    -0.035 A 
ENDROOT
BRANCH   1   7
HETATM    7  N   UNL     1      62.233   8.011   2.499  1.00  0.00    -0.317 N 
HETATM    8  C   UNL     1      62.107   8.783   1.362  1.00  0.00     0.188 A 
HETATM    9  N   UNL     1      60.928   8.660   0.793  1.00  0.00    -0.360 N 
HETATM   10  C   UNL     1      60.252   7.765   1.571  1.00  0.00     0.106 A 
ATOM     11  HN  UNL     1      60.592   9.131  -0.047  1.00  0.00     0.166 HD
HETATM   12  C   UNL     1      61.038   7.333   2.612  1.00  0.00     0.115 A 
ENDBRANCH   1   7
BRANCH   6  13
HETATM   13  C   UNL     1      66.679   7.678   6.123  1.00  0.00     0.202 C 
BRANCH  13  14
HETATM   14  O   UNL     1      66.777   8.869   6.891  1.00  0.00    -0.396 OA
HETATM   15  H   UNL     1      66.109   8.858   7.594  1.00  0.00     0.209 HD
ENDBRANCH  13  14
ENDBRANCH   6  13
TORSDOF 3
ENDMDL
MODEL 8
REMARK VINA RESULT:      -3.8      3.595      5.621
REMARK  3 active torsions:
REMARK  status: ('A' for Active; 'I' for Inactive)
REMARK    1  A    between atoms: N_1  and  C_5 
REMARK    2  A    between atoms: C_12  and  C_14 
REMARK    3  A    between atoms: O_13  and  C_14 
ROOT
HETATM    1  C   UNL     1      62.202   7.511   4.403  1.00  0.00     0.039 A 
HETATM    2  C   UNL     1      63.338   8.089   3.823  1.00  0.00     0.030 A 
HETATM    3  C   UNL     1      62.310   6.920   5.671  1.00  0.00     0.030 A 
HETATM    4  C   UNL     1      63.533   6.914   6.347  1.00  0.00     0.011 A 
HETATM    5  C   UNL     1      64.558   8.088   4.508  1.00  0.00     0.011 A 
HETATM    6  C   UNL     1      64.665   7.499   5.774  1.00  0.00    -0.035 A 
ENDROOT
BRANCH   1   7
HETATM    7  N   UNL     1      60.949   7.544   3.729  1.00  0.00    -0.317 N 
HETATM    8  C   UNL     1      60.666   8.136   2.515  1.00  0.00     0.188 A 
HETATM    9  N   UNL     1      59.397   8.038   2.185  1.00  0.00    -0.360 N 
HETATM   10  C   UNL     1      58.819   7.346   3.209  1.00  0.00     0.106 A 
ATOM     11  HN  UNL     1      58.944   8.401   1.347  1.00  0.00     0.166 HD
HETATM   12  C   UNL     1      59.753   7.010   4.159  1.00  0.00     0.115 A 
ENDBRANCH   1   7
BRANCH   6  13
HETATM   13  C   UNL     1      65.979   7.509   6.506  1.00  0.00     0.202 C 
BRANCH  13  14
HETATM   14  O   UNL     1      66.454   8.841   6.647  1.00  0.00    -0.396 OA
HETATM   15  H   UNL     1      66.164   9.200   7.500  1.00  0.00     0.209 HD
ENDBRANCH  13  14
ENDBRANCH   6  13
TORSDOF 3
ENDMDL
MODEL 9
REMARK VINA RESULT:      -3.7      3.294      5.597
REMARK  3 active torsions:
REMARK  status: ('A' for Active; 'I' for Inactive)
REMARK    1  A    between atoms: N_1  and  C_5 
REMARK    2  A    between atoms: C_12  and  C_14 
REMARK    3  A    between atoms: O_13  and  C_14 
ROOT
HETATM    1  C   UNL     1      64.685   7.965   5.278  1.00  0.00     0.039 A 
HETATM    2  C   UNL     1      64.465   6.583   5.341  1.00  0.00     0.030 A 
HETATM    3  C   UNL     1      65.891   8.487   5.767  1.00  0.00     0.030 A 
HETATM    4  C   UNL     1      66.862   7.639   6.307  1.00  0.00     0.011 A 
HETATM    5  C   UNL     1      65.445   5.737   5.874  1.00  0.00     0.011 A 
HETATM    6  C   UNL     1      66.650   6.258   6.362  1.00  0.00    -0.035 A 
ENDROOT
BRANCH   1   7
HETATM    7  N   UNL     1      63.710   8.826   4.701  1.00  0.00    -0.317 N 
HETATM    8  C   UNL     1      63.226  10.010   5.220  1.00  0.00     0.188 A 
HETATM    9  N   UNL     1      62.289  10.547   4.470  1.00  0.00    -0.360 N 
HETATM   10  C   UNL     1      62.154   9.699   3.410  1.00  0.00     0.106 A 
ATOM     11  HN  UNL     1      61.775  11.411   4.643  1.00  0.00     0.166 HD
HETATM   12  C   UNL     1      63.031   8.646   3.515  1.00  0.00     0.115 A 
ENDBRANCH   1   7
BRANCH   6  13
HETATM   13  C   UNL     1      67.699   5.341   6.926  1.00  0.00     0.202 C 
BRANCH  13  14
HETATM   14  O   UNL     1      67.846   4.194   6.101  1.00  0.00    -0.396 OA
HETATM   15  H   UNL     1      67.844   3.396   6.652  1.00  0.00     0.209 HD
ENDBRANCH  13  14
ENDBRANCH   6  13
TORSDOF 3
ENDMDL
