MODEL 1
REMARK VINA RESULT:      -5.0      0.000      0.000
REMARK  2 active torsions:
REMARK  status: ('A' for Active; 'I' for Inactive)
REMARK    1  A    between atoms: N_1  and  C_4 
REMARK    2  A    between atoms: C_10  and  N_11 
ROOT
HETATM    1  C   UNL     1      63.525   8.787   4.804  1.00  0.00     0.056 A 
HETATM    2  C   UNL     1      63.105  10.045   5.254  1.00  0.00     0.034 A 
HETATM    3  C   UNL     1      63.179   8.373   3.512  1.00  0.00     0.034 A 
HETATM    4  C   UNL     1      61.973  10.452   3.142  1.00  0.00     0.025 A 
HETATM    5  C   UNL     1      62.359  10.879   4.413  1.00  0.00     0.031 A 
HETATM    6  C   UNL     1      62.423   9.213   2.686  1.00  0.00     0.031 A 
ENDROOT
BRANCH   1   7
HETATM    7  N   UNL     1      64.312   7.959   5.652  1.00  0.00    -0.268 N 
HETATM    8  N   UNL     1      65.569   8.324   6.024  1.00  0.00    -0.305 N 
HETATM    9  C   UNL     1      65.986   7.339   6.819  1.00  0.00     0.109 A 
ATOM     10  HN  UNL     1      66.079   9.165   5.753  1.00  0.00     0.186 HD
HETATM   11  C   UNL     1      65.032   6.324   6.967  1.00  0.00     0.038 A 
HETATM   12  C   UNL     1      63.970   6.740   6.202  1.00  0.00     0.118 A 
ENDBRANCH   1   7
BRANCH   4  13
HETATM   13  N   UNL     1      61.352  11.340   2.256  1.00  0.00    -0.399 N 
HETATM   14  H   UNL     1      61.714  12.248   2.135  1.00  0.00     0.156 HD
HETATM   15  H   UNL     1      60.553  11.058   1.755  1.00  0.00     0.156 HD
ENDBRANCH   4  13
TORSDOF 2
ENDMDL
MODEL 2
REMARK VINA RESULT:      -4.7      2.474      4.858
REMARK  2 active torsions:
REMARK  status: ('A' for Active; 'I' for Inactive)
REMARK    1  A    between atoms: N_1  and  C_4 
REMARK    2  A    between atoms: C_10  and  N_11 
ROOT
HETATM    1  C   UNL     1      62.030   9.077   3.054  1.00  0.00     0.056 A 
HETATM    2  C   UNL     1      62.907   8.505   3.985  1.00  0.00     0.034 A 
HETATM    3  C   UNL     1      61.652  10.417   3.207  1.00  0.00     0.034 A 
HETATM    4  C   UNL     1      62.994  10.593   5.226  1.00  0.00     0.025 A 
HETATM    5  C   UNL     1      63.405   9.272   5.045  1.00  0.00     0.031 A 
HETATM    6  C   UNL     1      62.149  11.168   4.277  1.00  0.00     0.031 A 
ENDROOT
BRANCH   1   7
HETATM    7  N   UNL     1      61.556   8.301   1.961  1.00  0.00    -0.268 N 
HETATM    8  N   UNL     1      60.240   8.301   1.616  1.00  0.00    -0.305 N 
HETATM    9  C   UNL     1      60.168   7.497   0.556  1.00  0.00     0.109 A 
ATOM     10  HN  UNL     1      59.477   8.805   2.069  1.00  0.00     0.186 HD
HETATM   11  C   UNL     1      61.411   6.954   0.205  1.00  0.00     0.038 A 
HETATM   12  C   UNL     1      62.284   7.478   1.126  1.00  0.00     0.118 A 
ENDBRANCH   1   7
BRANCH   4  13
HETATM   13  N   UNL     1      63.601  11.395   6.200  1.00  0.00    -0.399 N 
HETATM   14  H   UNL     1      64.538  11.232   6.459  1.00  0.00     0.156 HD
HETATM   15  H   UNL     1      63.093  12.122   6.628  1.00  0.00     0.156 HD
ENDBRANCH   4  13
TORSDOF 2
ENDMDL
MODEL 3
REMARK VINA RESULT:      -4.7      0.885      1.871
REMARK  2 active torsions:
REMARK  status: ('A' for Active; 'I' for Inactive)
REMARK    1  A    between atoms: N_1  and  C_4 
REMARK    2  A    between atoms: C_10  and  N_11 
ROOT
HETATM    1  C   UNL     1      63.902   8.513   4.829  1.00  0.00     0.056 A 
HETATM    2  C   UNL     1      63.651   7.874   3.608  1.00  0.00     0.034 A 
HETATM    3  C   UNL     1      63.249   9.718   5.116  1.00  0.00     0.034 A 
HETATM    4  C   UNL     1      62.129   9.655   2.958  1.00  0.00     0.025 A 
HETATM    5  C   UNL     1      62.748   8.431   2.695  1.00  0.00     0.031 A 
HETATM    6  C   UNL     1      62.356  10.269   4.189  1.00  0.00     0.031 A 
ENDROOT
BRANCH   1   7
HETATM    7  N   UNL     1      64.795   7.922   5.765  1.00  0.00    -0.268 N 
HETATM    8  N   UNL     1      64.344   7.081   6.734  1.00  0.00    -0.305 N 
HETATM    9  C   UNL     1      65.439   6.711   7.397  1.00  0.00     0.109 A 
ATOM     10  HN  UNL     1      63.381   6.796   6.913  1.00  0.00     0.186 HD
HETATM   11  C   UNL     1      66.603   7.306   6.893  1.00  0.00     0.038 A 
HETATM   12  C   UNL     1      66.163   8.086   5.852  1.00  0.00     0.118 A 
ENDBRANCH   1   7
BRANCH   4  13
HETATM   13  N   UNL     1      61.124  10.135   2.110  1.00  0.00    -0.399 N 
HETATM   14  H   UNL     1      61.321  10.861   1.474  1.00  0.00     0.156 HD
HETATM   15  H   UNL     1      60.219   9.748   2.150  1.00  0.00     0.156 HD
ENDBRANCH   4  13
TORSDOF 2
ENDMDL
MODEL 4
REMARK VINA RESULT:      -4.3      1.539      1.768
REMARK  2 active torsions:
REMARK  status: ('A' for Active; 'I' for Inactive)
REMARK    1  A    between atoms: N_1  and  C_4 
REMARK    2  A    between atoms: C_10  and  N_11 
ROOT
HETATM    1  C   UNL     1      64.078   8.172   4.253  1.00  0.00     0.056 A 
HETATM    2  C   UNL     1      63.238   9.233   4.615  1.00  0.00     0.034 A 
HETATM    3  C   UNL     1      63.717   7.353   3.175  1.00  0.00     0.034 A 
HETATM    4  C   UNL     1      61.676   8.634   2.852  1.00  0.00     0.025 A 
HETATM    5  C   UNL     1      62.061   9.475   3.897  1.00  0.00     0.031 A 
HETATM    6  C   UNL     1      62.532   7.600   2.473  1.00  0.00     0.031 A 
ENDROOT
BRANCH   1   7
HETATM    7  N   UNL     1      65.289   7.953   4.965  1.00  0.00    -0.268 N 
HETATM    8  N   UNL     1      65.495   8.509   6.190  1.00  0.00    -0.305 N 
HETATM    9  C   UNL     1      66.702   8.079   6.557  1.00  0.00     0.109 A 
ATOM     10  HN  UNL     1      64.866   9.119   6.711  1.00  0.00     0.186 HD
HETATM   11  C   UNL     1      67.302   7.262   5.590  1.00  0.00     0.038 A 
HETATM   12  C   UNL     1      66.380   7.203   4.574  1.00  0.00     0.118 A 
ENDBRANCH   1   7
BRANCH   4  13
HETATM   13  N   UNL     1      60.576   8.962   2.049  1.00  0.00    -0.399 N 
HETATM   14  H   UNL     1      60.236   9.886   2.034  1.00  0.00     0.156 HD
HETATM   15  H   UNL     1      60.142   8.269   1.501  1.00  0.00     0.156 HD
ENDBRANCH   4  13
TORSDOF 2
ENDMDL
MODEL 5
REMARK VINA RESULT:      -4.3      1.468      2.111
REMARK  2 active torsions:
REMARK  status: ('A' for Active; 'I' for Inactive)
REMARK    1  A    between atoms: N_1  and  C_4 
REMARK    2  A    between atoms: C_10  and  N_11 
ROOT
HETATM    1  C   UNL     1      62.751   8.711   4.029  1.00  0.00     0.056 A 
HETATM    2  C   UNL     1      62.485   8.621   2.657  1.00  0.00     0.034 A 
HETATM    3  C   UNL     1      62.584   9.941   4.678  1.00  0.00     0.034 A 
HETATM    4  C   UNL     1      61.922  10.984   2.583  1.00  0.00     0.025 A 
HETATM    5  C   UNL     1      62.046   9.747   1.950  1.00  0.00     0.031 A 
HETATM    6  C   UNL     1      62.154  11.061   3.956  1.00  0.00     0.031 A 
ENDROOT
BRANCH   1   7
HETATM    7  N   UNL     1      63.165   7.555   4.747  1.00  0.00    -0.268 N 
HETATM    8  N   UNL     1      63.877   6.567   4.140  1.00  0.00    -0.305 N 
HETATM    9  C   UNL     1      64.103   5.674   5.103  1.00  0.00     0.109 A 
ATOM     10  HN  UNL     1      64.172   6.520   3.165  1.00  0.00     0.186 HD
HETATM   11  C   UNL     1      63.539   6.047   6.330  1.00  0.00     0.038 A 
HETATM   12  C   UNL     1      62.935   7.254   6.074  1.00  0.00     0.118 A 
ENDBRANCH   1   7
BRANCH   4  13
HETATM   13  N   UNL     1      61.348  12.069   1.909  1.00  0.00    -0.399 N 
HETATM   14  H   UNL     1      60.880  12.772   2.415  1.00  0.00     0.156 HD
HETATM   15  H   UNL     1      61.412  12.129   0.928  1.00  0.00     0.156 HD
ENDBRANCH   4  13
TORSDOF 2
ENDMDL
MODEL 6
REMARK VINA RESULT:      -4.2      1.688      5.087
REMARK  2 active torsions:
REMARK  status: ('A' for Active; 'I' for Inactive)
REMARK    1  A    between atoms: N_1  and  C_4 
REMARK    2  A    between atoms: C_10  and  N_11 
ROOT
HETATM    1  C   UNL     1      64.363   8.170   5.433  1.00  0.00     0.056 A 
HETATM    2  C   UNL     1      65.737   8.230   5.169  1.00  0.00     0.034 A 
HETATM    3  C   UNL     1      63.852   7.079   6.148  1.00  0.00     0.034 A 
HETATM    4  C   UNL     1      66.075   6.104   6.299  1.00  0.00     0.025 A 
HETATM    5  C   UNL     1      66.586   7.215   5.627  1.00  0.00     0.031 A 
HETATM    6  C   UNL     1      64.711   6.066   6.590  1.00  0.00     0.031 A 
ENDROOT
BRANCH   1   7
HETATM    7  N   UNL     1      63.512   9.221   4.995  1.00  0.00    -0.268 N 
HETATM    8  N   UNL     1      63.382  10.369   5.714  1.00  0.00    -0.305 N 
HETATM    9  C   UNL     1      62.540  11.119   5.004  1.00  0.00     0.109 A 
ATOM     10  HN  UNL     1      63.831  10.603   6.599  1.00  0.00     0.186 HD
HETATM   11  C   UNL     1      62.100  10.481   3.838  1.00  0.00     0.038 A 
HETATM   12  C   UNL     1      62.729   9.261   3.858  1.00  0.00     0.118 A 
ENDBRANCH   1   7
BRANCH   4  13
HETATM   13  N   UNL     1      66.940   5.167   6.876  1.00  0.00    -0.399 N 
HETATM   14  H   UNL     1      66.851   4.936   7.829  1.00  0.00     0.156 HD
HETATM   15  H   UNL     1      67.638   4.739   6.329  1.00  0.00     0.156 HD
ENDBRANCH   4  13
TORSDOF 2
ENDMDL
MODEL 7
REMARK VINA RESULT:      -4.1      2.278      3.520
REMARK  2 active torsions:
REMARK  status: ('A' for Active; 'I' for Inactive)
REMARK    1  A    between atoms: N_1  and  C_4 
REMARK    2  A    between atoms: C_10  and  N_11 
ROOT
HETATM    1  C   UNL     1      65.543   6.919   6.770  1.00  0.00     0.056 A 
HETATM    2  C   UNL     1      65.992   8.000   5.999  1.00  0.00     0.034 A 
HETATM    3  C   UNL     1      64.212   6.499   6.645  1.00  0.00     0.034 A 
HETATM    4  C   UNL     1      63.783   8.252   5.016  1.00  0.00     0.025 A 
HETATM    5  C   UNL     1      65.121   8.639   5.109  1.00  0.00     0.031 A 
HETATM    6  C   UNL     1      63.350   7.154   5.759  1.00  0.00     0.031 A 
ENDROOT
BRANCH   1   7
HETATM    7  N   UNL     1      66.442   6.253   7.647  1.00  0.00    -0.268 N 
HETATM    8  N   UNL     1      67.313   6.951   8.425  1.00  0.00    -0.305 N 
HETATM    9  C   UNL     1      67.968   6.020   9.118  1.00  0.00     0.109 A 
ATOM     10  HN  UNL     1      67.437   7.963   8.469  1.00  0.00     0.186 HD
HETATM   11  C   UNL     1      67.556   4.720   8.799  1.00  0.00     0.038 A 
HETATM   12  C   UNL     1      66.583   4.895   7.847  1.00  0.00     0.118 A 
ENDBRANCH   1   7
BRANCH   4  13
HETATM   13  N   UNL     1      62.957   8.797   4.026  1.00  0.00    -0.399 N 
HETATM   14  H   UNL     1      62.271   9.461   4.269  1.00  0.00     0.156 HD
HETATM   15  H   UNL     1      63.061   8.518   3.088  1.00  0.00     0.156 HD
ENDBRANCH   4  13
TORSDOF 2
ENDMDL
MODEL 8
REMARK VINA RESULT:      -3.8      1.902      5.081
REMARK  2 active torsions:
REMARK  status: ('A' for Active; 'I' for Inactive)
REMARK    1  A    between atoms: N_1  and  C_4 
REMARK    2  A    between atoms: C_10  and  N_11 
ROOT
HETATM    1  C   UNL     1      63.266   8.070   4.171  1.00  0.00     0.056 A 
HETATM    2  C   UNL     1      62.738   7.962   5.464  1.00  0.00     0.034 A 
HETATM    3  C   UNL     1      64.336   7.247   3.799  1.00  0.00     0.034 A 
HETATM    4  C   UNL     1      64.365   6.241   6.013  1.00  0.00     0.025 A 
HETATM    5  C   UNL     1      63.270   7.031   6.365  1.00  0.00     0.031 A 
HETATM    6  C   UNL     1      64.864   6.329   4.714  1.00  0.00     0.031 A 
ENDROOT
BRANCH   1   7
HETATM    7  N   UNL     1      62.698   8.994   3.251  1.00  0.00    -0.268 N 
HETATM    8  N   UNL     1      62.566   8.685   1.933  1.00  0.00    -0.305 N 
HETATM    9  C   UNL     1      61.987   9.755   1.390  1.00  0.00     0.109 A 
ATOM     10  HN  UNL     1      62.849   7.824   1.464  1.00  0.00     0.186 HD
HETATM   11  C   UNL     1      61.748  10.771   2.324  1.00  0.00     0.038 A 
HETATM   12  C   UNL     1      62.220  10.264   3.509  1.00  0.00     0.118 A 
ENDBRANCH   1   7
BRANCH   4  13
HETATM   13  N   UNL     1      64.800   5.218   6.863  1.00  0.00    -0.399 N 
HETATM   14  H   UNL     1      65.747   4.947   6.863  1.00  0.00     0.156 HD
HETATM   15  H   UNL     1      64.160   4.768   7.461  1.00  0.00     0.156 HD
ENDBRANCH   4  13
TORSDOF 2
ENDMDL
MODEL 9
REMARK VINA RESULT:      -3.8      2.258      2.886
REMARK  2 active torsions:
REMARK  status: ('A' for Active; 'I' for Inactive)
REMARK    1  A    between atoms: N_1  and  C_4 
REMARK    2  A    between atoms: C_10  and  N_11 
ROOT
HETATM    1  C   UNL     1      62.585   7.987   3.111  1.00  0.00     0.056 A 
HETATM    2  C   UNL     1      61.432   7.325   3.553  1.00  0.00     0.034 A 
HETATM    3  C   UNL     1      62.530   8.736   1.929  1.00  0.00     0.034 A 
HETATM    4  C   UNL     1      60.195   8.131   1.622  1.00  0.00     0.025 A 
HETATM    5  C   UNL     1      60.241   7.424   2.825  1.00  0.00     0.031 A 
HETATM    6  C   UNL     1      61.335   8.817   1.205  1.00  0.00     0.031 A 
ENDROOT
BRANCH   1   7
HETATM    7  N   UNL     1      63.782   7.910   3.875  1.00  0.00    -0.268 N 
HETATM    8  N   UNL     1      64.687   6.916   3.667  1.00  0.00    -0.305 N 
HETATM    9  C   UNL     1      65.672   7.170   4.528  1.00  0.00     0.109 A 
ATOM     10  HN  UNL     1      64.626   6.147   3.000  1.00  0.00     0.186 HD
HETATM   11  C   UNL     1      65.425   8.304   5.312  1.00  0.00     0.038 A 
HETATM   12  C   UNL     1      64.203   8.757   4.881  1.00  0.00     0.118 A 
ENDBRANCH   1   7
BRANCH   4  13
HETATM   13  N   UNL     1      58.973   8.344   0.974  1.00  0.00    -0.399 N 
HETATM   14  H   UNL     1      58.302   7.624   0.939  1.00  0.00     0.156 HD
HETATM   15  H   UNL     1      58.784   9.214   0.553  1.00  0.00     0.156 HD
ENDBRANCH   4  13
TORSDOF 2
ENDMDL
