MODEL 1
REMARK VINA RESULT:      -5.1      0.000      0.000
REMARK  2 active torsions:
REMARK  status: ('A' for Active; 'I' for Inactive)
REMARK    1  A    between atoms: C_3  and  C_7 
REMARK    2  A    between atoms: C_9  and  N_10 
ROOT
HETATM    1  C   UNL     1      64.138   8.482   4.772  1.00  0.00    -0.007 A 
HETATM    2  C   UNL     1      63.684   9.742   5.192  1.00  0.00     0.042 A 
HETATM    3  C   UNL     1      62.655  10.405   4.514  1.00  0.00     0.026 A 
HETATM    4  C   UNL     1      63.553   7.894   3.643  1.00  0.00     0.014 A 
HETATM    5  C   UNL     1      62.558   8.567   2.934  1.00  0.00     0.003 A 
HETATM    6  C   UNL     1      62.132   9.826   3.356  1.00  0.00     0.029 A 
ENDROOT
BRANCH   1   7
HETATM    7  C   UNL     1      65.214   7.821   5.503  1.00  0.00     0.049 A 
HETATM    8  N   UNL     1      65.073   7.464   6.837  1.00  0.00    -0.353 N 
HETATM    9  C   UNL     1      66.173   6.882   7.268  1.00  0.00     0.047 A 
ATOM     10  HN  UNL     1      64.239   7.628   7.401  1.00  0.00     0.166 HD
HETATM   11  S   UNL     1      67.444   6.758   6.118  1.00  0.00    -0.087 SA
HETATM   12  C   UNL     1      66.366   6.347   8.642  1.00  0.00     0.076 C 
HETATM   13  C   UNL     1      66.449   7.528   4.956  1.00  0.00     0.081 A 
ENDBRANCH   1   7
BRANCH   3  14
HETATM   14  N   UNL     1      62.325  11.726   4.846  1.00  0.00    -0.399 N 
HETATM   15  H   UNL     1      61.478  12.115   4.531  1.00  0.00     0.156 HD
HETATM   16  H   UNL     1      62.941  12.264   5.395  1.00  0.00     0.156 HD
ENDBRANCH   3  14
TORSDOF 2
ENDMDL
MODEL 2
REMARK VINA RESULT:      -5.1      1.710      2.309
REMARK  2 active torsions:
REMARK  status: ('A' for Active; 'I' for Inactive)
REMARK    1  A    between atoms: C_3  and  C_7 
REMARK    2  A    between atoms: C_9  and  N_10 
ROOT
HETATM    1  C   UNL     1      63.280   9.034   4.723  1.00  0.00    -0.007 A 
HETATM    2  C   UNL     1      62.718   8.813   3.456  1.00  0.00     0.042 A 
HETATM    3  C   UNL     1      62.024   9.825   2.784  1.00  0.00     0.026 A 
HETATM    4  C   UNL     1      63.125  10.292   5.322  1.00  0.00     0.014 A 
HETATM    5  C   UNL     1      62.396  11.292   4.680  1.00  0.00     0.003 A 
HETATM    6  C   UNL     1      61.829  11.049   3.429  1.00  0.00     0.029 A 
ENDROOT
BRANCH   1   7
HETATM    7  C   UNL     1      63.997   7.955   5.394  1.00  0.00     0.049 A 
HETATM    8  N   UNL     1      65.135   8.198   6.150  1.00  0.00    -0.353 N 
HETATM    9  C   UNL     1      65.594   7.071   6.654  1.00  0.00     0.047 A 
ATOM     10  HN  UNL     1      65.556   9.117   6.295  1.00  0.00     0.166 HD
HETATM   11  S   UNL     1      64.712   5.659   6.228  1.00  0.00    -0.087 SA
HETATM   12  C   UNL     1      66.785   6.960   7.536  1.00  0.00     0.076 C 
HETATM   13  C   UNL     1      63.632   6.624   5.314  1.00  0.00     0.081 A 
ENDBRANCH   1   7
BRANCH   3  14
HETATM   14  N   UNL     1      61.333   9.541   1.599  1.00  0.00    -0.399 N 
HETATM   15  H   UNL     1      61.096  10.270   0.981  1.00  0.00     0.156 HD
HETATM   16  H   UNL     1      61.085   8.613   1.383  1.00  0.00     0.156 HD
ENDBRANCH   3  14
TORSDOF 2
ENDMDL
MODEL 3
REMARK VINA RESULT:      -5.0      1.244      1.372
REMARK  2 active torsions:
REMARK  status: ('A' for Active; 'I' for Inactive)
REMARK    1  A    between atoms: C_3  and  C_7 
REMARK    2  A    between atoms: C_9  and  N_10 
ROOT
HETATM    1  C   UNL     1      63.326   8.481   4.588  1.00  0.00    -0.007 A 
HETATM    2  C   UNL     1      63.040   9.766   5.076  1.00  0.00     0.042 A 
HETATM    3  C   UNL     1      62.342  10.698   4.301  1.00  0.00     0.026 A 
HETATM    4  C   UNL     1      62.912   8.143   3.292  1.00  0.00     0.014 A 
HETATM    5  C   UNL     1      62.255   9.080   2.495  1.00  0.00     0.003 A 
HETATM    6  C   UNL     1      61.996  10.358   2.991  1.00  0.00     0.029 A 
ENDROOT
BRANCH   1   7
HETATM    7  C   UNL     1      64.056   7.535   5.424  1.00  0.00     0.049 A 
HETATM    8  N   UNL     1      65.102   7.943   6.240  1.00  0.00    -0.353 N 
HETATM    9  C   UNL     1      65.594   6.913   6.895  1.00  0.00     0.047 A 
ATOM     10  HN  UNL     1      65.440   8.902   6.321  1.00  0.00     0.166 HD
HETATM   11  S   UNL     1      64.859   5.398   6.550  1.00  0.00    -0.087 SA
HETATM   12  C   UNL     1      66.708   6.986   7.877  1.00  0.00     0.076 C 
HETATM   13  C   UNL     1      63.798   6.177   5.455  1.00  0.00     0.081 A 
ENDBRANCH   1   7
BRANCH   3  14
HETATM   14  N   UNL     1      62.208  12.022   4.738  1.00  0.00    -0.399 N 
HETATM   15  H   UNL     1      61.857  12.210   5.639  1.00  0.00     0.156 HD
HETATM   16  H   UNL     1      62.466  12.765   4.145  1.00  0.00     0.156 HD
ENDBRANCH   3  14
TORSDOF 2
ENDMDL
MODEL 4
REMARK VINA RESULT:      -4.9      2.488      2.763
REMARK  2 active torsions:
REMARK  status: ('A' for Active; 'I' for Inactive)
REMARK    1  A    between atoms: C_3  and  C_7 
REMARK    2  A    between atoms: C_9  and  N_10 
ROOT
HETATM    1  C   UNL     1      63.410   8.633   3.901  1.00  0.00    -0.007 A 
HETATM    2  C   UNL     1      63.730   9.379   5.046  1.00  0.00     0.042 A 
HETATM    3  C   UNL     1      63.105  10.601   5.314  1.00  0.00     0.026 A 
HETATM    4  C   UNL     1      62.456   9.140   3.009  1.00  0.00     0.014 A 
HETATM    5  C   UNL     1      61.861  10.380   3.243  1.00  0.00     0.003 A 
HETATM    6  C   UNL     1      62.205  11.115   4.378  1.00  0.00     0.029 A 
ENDROOT
BRANCH   1   7
HETATM    7  C   UNL     1      64.082   7.362   3.654  1.00  0.00     0.049 A 
HETATM    8  N   UNL     1      65.359   7.109   4.137  1.00  0.00    -0.353 N 
HETATM    9  C   UNL     1      65.743   5.899   3.788  1.00  0.00     0.047 A 
ATOM     10  HN  UNL     1      65.918   7.765   4.683  1.00  0.00     0.166 HD
HETATM   11  S   UNL     1      64.619   5.010   2.840  1.00  0.00    -0.087 SA
HETATM   12  C   UNL     1      67.046   5.285   4.156  1.00  0.00     0.076 C 
HETATM   13  C   UNL     1      63.534   6.334   2.911  1.00  0.00     0.081 A 
ENDBRANCH   1   7
BRANCH   3  14
HETATM   14  N   UNL     1      63.551  11.407   6.370  1.00  0.00    -0.399 N 
HETATM   15  H   UNL     1      63.289  11.195   7.295  1.00  0.00     0.156 HD
HETATM   16  H   UNL     1      64.127  12.185   6.187  1.00  0.00     0.156 HD
ENDBRANCH   3  14
TORSDOF 2
ENDMDL
MODEL 5
REMARK VINA RESULT:      -4.6      2.710      5.330
REMARK  2 active torsions:
REMARK  status: ('A' for Active; 'I' for Inactive)
REMARK    1  A    between atoms: C_3  and  C_7 
REMARK    2  A    between atoms: C_9  and  N_10 
ROOT
HETATM    1  C   UNL     1      64.061   7.926   5.099  1.00  0.00    -0.007 A 
HETATM    2  C   UNL     1      65.319   8.405   5.497  1.00  0.00     0.042 A 
HETATM    3  C   UNL     1      66.108   7.699   6.412  1.00  0.00     0.026 A 
HETATM    4  C   UNL     1      63.592   6.724   5.646  1.00  0.00     0.014 A 
HETATM    5  C   UNL     1      64.351   6.037   6.593  1.00  0.00     0.003 A 
HETATM    6  C   UNL     1      65.591   6.538   6.990  1.00  0.00     0.029 A 
ENDROOT
BRANCH   1   7
HETATM    7  C   UNL     1      63.266   8.688   4.143  1.00  0.00     0.049 A 
HETATM    8  N   UNL     1      63.072   8.245   2.842  1.00  0.00    -0.353 N 
HETATM    9  C   UNL     1      62.321   9.101   2.180  1.00  0.00     0.047 A 
ATOM     10  HN  UNL     1      63.455   7.382   2.455  1.00  0.00     0.166 HD
HETATM   11  S   UNL     1      61.833  10.493   3.061  1.00  0.00    -0.087 SA
HETATM   12  C   UNL     1      61.889   8.933   0.767  1.00  0.00     0.076 C 
HETATM   13  C   UNL     1      62.677   9.905   4.431  1.00  0.00     0.081 A 
ENDBRANCH   1   7
BRANCH   3  14
HETATM   14  N   UNL     1      67.283   8.270   6.920  1.00  0.00    -0.399 N 
HETATM   15  H   UNL     1      67.446   9.235   6.816  1.00  0.00     0.156 HD
HETATM   16  H   UNL     1      67.944   7.705   7.383  1.00  0.00     0.156 HD
ENDBRANCH   3  14
TORSDOF 2
ENDMDL
MODEL 6
REMARK VINA RESULT:      -4.6      1.739      2.208
REMARK  2 active torsions:
REMARK  status: ('A' for Active; 'I' for Inactive)
REMARK    1  A    between atoms: C_3  and  C_7 
REMARK    2  A    between atoms: C_9  and  N_10 
ROOT
HETATM    1  C   UNL     1      64.514   7.847   4.831  1.00  0.00    -0.007 A 
HETATM    2  C   UNL     1      64.148   7.184   3.649  1.00  0.00     0.042 A 
HETATM    3  C   UNL     1      63.180   7.715   2.790  1.00  0.00     0.026 A 
HETATM    4  C   UNL     1      63.881   9.055   5.152  1.00  0.00     0.014 A 
HETATM    5  C   UNL     1      62.883   9.570   4.326  1.00  0.00     0.003 A 
HETATM    6  C   UNL     1      62.519   8.888   3.164  1.00  0.00     0.029 A 
ENDROOT
BRANCH   1   7
HETATM    7  C   UNL     1      65.528   7.263   5.702  1.00  0.00     0.049 A 
HETATM    8  N   UNL     1      65.394   7.277   7.084  1.00  0.00    -0.353 N 
HETATM    9  C   UNL     1      66.430   6.689   7.645  1.00  0.00     0.047 A 
ATOM     10  HN  UNL     1      64.607   7.682   7.591  1.00  0.00     0.166 HD
HETATM   11  S   UNL     1      67.633   6.118   6.560  1.00  0.00    -0.087 SA
HETATM   12  C   UNL     1      66.607   6.501   9.109  1.00  0.00     0.076 C 
HETATM   13  C   UNL     1      66.697   6.686   5.243  1.00  0.00     0.081 A 
ENDBRANCH   1   7
BRANCH   3  14
HETATM   14  N   UNL     1      62.710   6.965   1.703  1.00  0.00    -0.399 N 
HETATM   15  H   UNL     1      62.366   6.053   1.847  1.00  0.00     0.156 HD
HETATM   16  H   UNL     1      62.723   7.350   0.797  1.00  0.00     0.156 HD
ENDBRANCH   3  14
TORSDOF 2
ENDMDL
MODEL 7
REMARK VINA RESULT:      -4.4      2.303      5.411
REMARK  2 active torsions:
REMARK  status: ('A' for Active; 'I' for Inactive)
REMARK    1  A    between atoms: C_3  and  C_7 
REMARK    2  A    between atoms: C_9  and  N_10 
ROOT
HETATM    1  C   UNL     1      65.132   7.426   5.679  1.00  0.00    -0.007 A 
HETATM    2  C   UNL     1      65.034   6.583   6.797  1.00  0.00     0.042 A 
HETATM    3  C   UNL     1      66.177   6.101   7.444  1.00  0.00     0.026 A 
HETATM    4  C   UNL     1      66.403   7.772   5.202  1.00  0.00     0.014 A 
HETATM    5  C   UNL     1      67.548   7.260   5.812  1.00  0.00     0.003 A 
HETATM    6  C   UNL     1      67.431   6.409   6.912  1.00  0.00     0.029 A 
ENDROOT
BRANCH   1   7
HETATM    7  C   UNL     1      63.918   7.910   5.030  1.00  0.00     0.049 A 
HETATM    8  N   UNL     1      63.701   9.263   4.809  1.00  0.00    -0.353 N 
HETATM    9  C   UNL     1      62.544   9.444   4.209  1.00  0.00     0.047 A 
ATOM     10  HN  UNL     1      64.346  10.009   5.074  1.00  0.00     0.166 HD
HETATM   11  S   UNL     1      61.637   8.017   3.904  1.00  0.00    -0.087 SA
HETATM   12  C   UNL     1      62.000  10.766   3.797  1.00  0.00     0.076 C 
HETATM   13  C   UNL     1      62.888   7.087   4.615  1.00  0.00     0.081 A 
ENDBRANCH   1   7
BRANCH   3  14
HETATM   14  N   UNL     1      66.064   5.135   8.453  1.00  0.00    -0.399 N 
HETATM   15  H   UNL     1      65.192   4.972   8.882  1.00  0.00     0.156 HD
HETATM   16  H   UNL     1      66.855   4.620   8.733  1.00  0.00     0.156 HD
ENDBRANCH   3  14
TORSDOF 2
ENDMDL
MODEL 8
REMARK VINA RESULT:      -4.3      2.748      2.953
REMARK  2 active torsions:
REMARK  status: ('A' for Active; 'I' for Inactive)
REMARK    1  A    between atoms: C_3  and  C_7 
REMARK    2  A    between atoms: C_9  and  N_10 
ROOT
HETATM    1  C   UNL     1      62.761   8.427   3.268  1.00  0.00    -0.007 A 
HETATM    2  C   UNL     1      62.707   9.441   4.237  1.00  0.00     0.042 A 
HETATM    3  C   UNL     1      62.238  10.721   3.922  1.00  0.00     0.026 A 
HETATM    4  C   UNL     1      62.349   8.719   1.961  1.00  0.00     0.014 A 
HETATM    5  C   UNL     1      61.924  10.004   1.626  1.00  0.00     0.003 A 
HETATM    6  C   UNL     1      61.893  11.004   2.598  1.00  0.00     0.029 A 
ENDROOT
BRANCH   1   7
HETATM    7  C   UNL     1      63.255   7.104   3.633  1.00  0.00     0.049 A 
HETATM    8  N   UNL     1      62.481   6.215   4.367  1.00  0.00    -0.353 N 
HETATM    9  C   UNL     1      63.143   5.095   4.564  1.00  0.00     0.047 A 
ATOM     10  HN  UNL     1      61.537   6.403   4.703  1.00  0.00     0.166 HD
HETATM   11  S   UNL     1      64.734   5.051   3.915  1.00  0.00    -0.087 SA
HETATM   12  C   UNL     1      62.610   3.912   5.289  1.00  0.00     0.076 C 
HETATM   13  C   UNL     1      64.519   6.641   3.316  1.00  0.00     0.081 A 
ENDBRANCH   1   7
BRANCH   3  14
HETATM   14  N   UNL     1      62.342  11.762   4.855  1.00  0.00    -0.399 N 
HETATM   15  H   UNL     1      61.607  11.930   5.488  1.00  0.00     0.156 HD
HETATM   16  H   UNL     1      63.150  12.324   4.878  1.00  0.00     0.156 HD
ENDBRANCH   3  14
TORSDOF 2
ENDMDL
MODEL 9
REMARK VINA RESULT:      -4.3      2.787      5.630
REMARK  2 active torsions:
REMARK  status: ('A' for Active; 'I' for Inactive)
REMARK    1  A    between atoms: C_3  and  C_7 
REMARK    2  A    between atoms: C_9  and  N_10 
ROOT
HETATM    1  C   UNL     1      65.073   7.788   4.632  1.00  0.00    -0.007 A 
HETATM    2  C   UNL     1      65.617   6.724   3.896  1.00  0.00     0.042 A 
HETATM    3  C   UNL     1      66.763   6.051   4.334  1.00  0.00     0.026 A 
HETATM    4  C   UNL     1      65.707   8.185   5.817  1.00  0.00     0.014 A 
HETATM    5  C   UNL     1      66.876   7.550   6.238  1.00  0.00     0.003 A 
HETATM    6  C   UNL     1      67.412   6.506   5.484  1.00  0.00     0.029 A 
ENDROOT
BRANCH   1   7
HETATM    7  C   UNL     1      63.876   8.466   4.145  1.00  0.00     0.049 A 
HETATM    8  N   UNL     1      63.301   8.139   2.925  1.00  0.00    -0.353 N 
HETATM    9  C   UNL     1      62.236   8.883   2.713  1.00  0.00     0.047 A 
ATOM     10  HN  UNL     1      63.652   7.425   2.286  1.00  0.00     0.166 HD
HETATM   11  S   UNL     1      61.881  10.034   3.939  1.00  0.00    -0.087 SA
HETATM   12  C   UNL     1      61.358   8.785   1.517  1.00  0.00     0.076 C 
HETATM   13  C   UNL     1      63.243   9.490   4.824  1.00  0.00     0.081 A 
ENDBRANCH   1   7
BRANCH   3  14
HETATM   14  N   UNL     1      67.384   5.103   3.510  1.00  0.00    -0.399 N 
HETATM   15  H   UNL     1      66.840   4.442   3.023  1.00  0.00     0.156 HD
HETATM   16  H   UNL     1      68.365   5.097   3.417  1.00  0.00     0.156 HD
ENDBRANCH   3  14
TORSDOF 2
ENDMDL
