MODEL 1
REMARK VINA RESULT:      -5.7      0.000      0.000
REMARK  3 active torsions:
REMARK  status: ('A' for Active; 'I' for Inactive)
REMARK    1  A    between atoms: C_1  and  C_8 
REMARK    2  A    between atoms: C_2  and  C_7 
REMARK    3  A    between atoms: C_8  and  O_9 
ROOT
HETATM    1  C   UNL     1      64.094   7.209   6.116  1.00  0.00     0.026 A 
HETATM    2  C   UNL     1      64.198   8.441   5.492  1.00  0.00     0.119 A 
HETATM    3  O   UNL     1      65.420   8.975   5.783  1.00  0.00    -0.236 OA
HETATM    4  N   UNL     1      66.128   8.121   6.602  1.00  0.00    -0.265 N 
ATOM      5  HN  UNL     1      67.066   8.264   6.976  1.00  0.00     0.194 HD
HETATM    6  C   UNL     1      65.331   7.066   6.805  1.00  0.00     0.040 A 
HETATM    7  C   UNL     1      65.795   5.963   7.679  1.00  0.00     0.071 C 
ENDROOT
BRANCH   2   8
HETATM    8  C   UNL     1      63.334   9.266   4.652  1.00  0.00     0.000 A 
HETATM    9  C   UNL     1      62.957   8.829   3.372  1.00  0.00     0.014 A 
HETATM   10  C   UNL     1      62.176   9.634   2.538  1.00  0.00     0.001 A 
HETATM   11  C   UNL     1      61.756  10.888   2.972  1.00  0.00     0.000 A 
HETATM   12  C   UNL     1      62.102  11.330   4.245  1.00  0.00     0.001 A 
HETATM   13  C   UNL     1      62.880  10.522   5.080  1.00  0.00     0.014 A 
ENDBRANCH   2   8
BRANCH   1  14
HETATM   14  C   UNL     1      62.957   6.261   6.108  1.00  0.00     0.207 C 
BRANCH  14  15
HETATM   15  O   UNL     1      61.830   6.788   6.801  1.00  0.00    -0.396 OA
HETATM   16  H   UNL     1      62.047   7.668   7.148  1.00  0.00     0.209 HD
ENDBRANCH  14  15
ENDBRANCH   1  14
TORSDOF 3
ENDMDL
MODEL 2
REMARK VINA RESULT:      -5.4      1.567      2.746
REMARK  3 active torsions:
REMARK  status: ('A' for Active; 'I' for Inactive)
REMARK    1  A    between atoms: C_1  and  C_8 
REMARK    2  A    between atoms: C_2  and  C_7 
REMARK    3  A    between atoms: C_8  and  O_9 
ROOT
HETATM    1  C   UNL     1      64.096   7.622   5.224  1.00  0.00     0.026 A 
HETATM    2  C   UNL     1      62.923   8.085   4.652  1.00  0.00     0.119 A 
HETATM    3  O   UNL     1      61.903   7.254   5.016  1.00  0.00    -0.236 OA
HETATM    4  N   UNL     1      62.382   6.236   5.813  1.00  0.00    -0.265 N 
ATOM      5  HN  UNL     1      61.845   5.474   6.226  1.00  0.00     0.194 HD
HETATM    6  C   UNL     1      63.696   6.454   5.933  1.00  0.00     0.040 A 
HETATM    7  C   UNL     1      64.521   5.507   6.720  1.00  0.00     0.071 C 
ENDROOT
BRANCH   2   8
HETATM    8  C   UNL     1      62.550   9.193   3.777  1.00  0.00     0.000 A 
HETATM    9  C   UNL     1      62.322  10.474   4.306  1.00  0.00     0.014 A 
HETATM   10  C   UNL     1      61.912  11.528   3.486  1.00  0.00     0.001 A 
HETATM   11  C   UNL     1      61.727  11.321   2.122  1.00  0.00     0.000 A 
HETATM   12  C   UNL     1      61.967  10.064   1.576  1.00  0.00     0.001 A 
HETATM   13  C   UNL     1      62.381   9.011   2.396  1.00  0.00     0.014 A 
ENDBRANCH   2   8
BRANCH   1  14
HETATM   14  C   UNL     1      65.463   8.178   5.110  1.00  0.00     0.207 C 
BRANCH  14  15
HETATM   15  O   UNL     1      65.724   9.140   6.126  1.00  0.00    -0.396 OA
HETATM   16  H   UNL     1      66.674   9.152   6.323  1.00  0.00     0.209 HD
ENDBRANCH  14  15
ENDBRANCH   1  14
TORSDOF 3
ENDMDL
MODEL 3
REMARK VINA RESULT:      -5.3      1.738      2.825
REMARK  3 active torsions:
REMARK  status: ('A' for Active; 'I' for Inactive)
REMARK    1  A    between atoms: C_1  and  C_8 
REMARK    2  A    between atoms: C_2  and  C_7 
REMARK    3  A    between atoms: C_8  and  O_9 
ROOT
HETATM    1  C   UNL     1      66.224   7.489   5.741  1.00  0.00     0.026 A 
HETATM    2  C   UNL     1      64.878   7.818   5.745  1.00  0.00     0.119 A 
HETATM    3  O   UNL     1      64.328   7.384   6.916  1.00  0.00    -0.236 OA
HETATM    4  N   UNL     1      65.285   6.761   7.689  1.00  0.00    -0.265 N 
ATOM      5  HN  UNL     1      65.155   6.342   8.609  1.00  0.00     0.194 HD
HETATM    6  C   UNL     1      66.418   6.819   6.982  1.00  0.00     0.040 A 
HETATM    7  C   UNL     1      67.650   6.205   7.531  1.00  0.00     0.071 C 
ENDROOT
BRANCH   2   8
HETATM    8  C   UNL     1      63.957   8.472   4.820  1.00  0.00     0.000 A 
HETATM    9  C   UNL     1      63.327   9.676   5.174  1.00  0.00     0.014 A 
HETATM   10  C   UNL     1      62.402  10.282   4.320  1.00  0.00     0.001 A 
HETATM   11  C   UNL     1      62.094   9.696   3.095  1.00  0.00     0.000 A 
HETATM   12  C   UNL     1      62.723   8.515   2.718  1.00  0.00     0.001 A 
HETATM   13  C   UNL     1      63.651   7.911   3.571  1.00  0.00     0.014 A 
ENDBRANCH   2   8
BRANCH   1  14
HETATM   14  C   UNL     1      67.234   7.737   4.687  1.00  0.00     0.207 C 
BRANCH  14  15
HETATM   15  O   UNL     1      67.331   6.639   3.786  1.00  0.00    -0.396 OA
HETATM   16  H   UNL     1      66.472   6.192   3.727  1.00  0.00     0.209 HD
ENDBRANCH  14  15
ENDBRANCH   1  14
TORSDOF 3
ENDMDL
MODEL 4
REMARK VINA RESULT:      -5.0      1.937      4.951
REMARK  3 active torsions:
REMARK  status: ('A' for Active; 'I' for Inactive)
REMARK    1  A    between atoms: C_1  and  C_8 
REMARK    2  A    between atoms: C_2  and  C_7 
REMARK    3  A    between atoms: C_8  and  O_9 
ROOT
HETATM    1  C   UNL     1      63.534   8.827   4.294  1.00  0.00     0.026 A 
HETATM    2  C   UNL     1      64.564   8.781   5.218  1.00  0.00     0.119 A 
HETATM    3  O   UNL     1      64.574   9.953   5.918  1.00  0.00    -0.236 OA
HETATM    4  N   UNL     1      63.571  10.784   5.466  1.00  0.00    -0.265 N 
ATOM      5  HN  UNL     1      63.347  11.719   5.805  1.00  0.00     0.194 HD
HETATM    6  C   UNL     1      62.952  10.111   4.490  1.00  0.00     0.040 A 
HETATM    7  C   UNL     1      61.826  10.749   3.768  1.00  0.00     0.071 C 
ENDROOT
BRANCH   2   8
HETATM    8  C   UNL     1      65.603   7.821   5.582  1.00  0.00     0.000 A 
HETATM    9  C   UNL     1      65.373   6.871   6.591  1.00  0.00     0.014 A 
HETATM   10  C   UNL     1      66.378   5.984   6.986  1.00  0.00     0.001 A 
HETATM   11  C   UNL     1      67.628   6.030   6.376  1.00  0.00     0.000 A 
HETATM   12  C   UNL     1      67.869   6.949   5.360  1.00  0.00     0.001 A 
HETATM   13  C   UNL     1      66.862   7.834   4.963  1.00  0.00     0.014 A 
ENDBRANCH   2   8
BRANCH   1  14
HETATM   14  C   UNL     1      63.134   7.803   3.302  1.00  0.00     0.207 C 
BRANCH  14  15
HETATM   15  O   UNL     1      61.909   7.173   3.662  1.00  0.00    -0.396 OA
HETATM   16  H   UNL     1      61.222   7.412   3.021  1.00  0.00     0.209 HD
ENDBRANCH  14  15
ENDBRANCH   1  14
TORSDOF 3
ENDMDL
MODEL 5
REMARK VINA RESULT:      -4.9      1.624      2.277
REMARK  3 active torsions:
REMARK  status: ('A' for Active; 'I' for Inactive)
REMARK    1  A    between atoms: C_1  and  C_8 
REMARK    2  A    between atoms: C_2  and  C_7 
REMARK    3  A    between atoms: C_8  and  O_9 
ROOT
HETATM    1  C   UNL     1      62.738   6.718   4.743  1.00  0.00     0.026 A 
HETATM    2  C   UNL     1      62.954   8.085   4.700  1.00  0.00     0.119 A 
HETATM    3  O   UNL     1      63.694   8.444   5.789  1.00  0.00    -0.236 OA
HETATM    4  N   UNL     1      63.964   7.337   6.565  1.00  0.00    -0.265 N 
ATOM      5  HN  UNL     1      64.495   7.311   7.436  1.00  0.00     0.194 HD
HETATM    6  C   UNL     1      63.387   6.305   5.941  1.00  0.00     0.040 A 
HETATM    7  C   UNL     1      63.471   4.953   6.541  1.00  0.00     0.071 C 
ENDROOT
BRANCH   2   8
HETATM    8  C   UNL     1      62.573   9.179   3.810  1.00  0.00     0.000 A 
HETATM    9  C   UNL     1      62.310  10.459   4.324  1.00  0.00     0.014 A 
HETATM   10  C   UNL     1      61.892  11.498   3.489  1.00  0.00     0.001 A 
HETATM   11  C   UNL     1      61.735  11.277   2.124  1.00  0.00     0.000 A 
HETATM   12  C   UNL     1      62.011  10.022   1.592  1.00  0.00     0.001 A 
HETATM   13  C   UNL     1      62.433   8.983   2.427  1.00  0.00     0.014 A 
ENDBRANCH   2   8
BRANCH   1  14
HETATM   14  C   UNL     1      61.982   5.870   3.794  1.00  0.00     0.207 C 
BRANCH  14  15
HETATM   15  O   UNL     1      60.607   5.777   4.154  1.00  0.00    -0.396 OA
HETATM   16  H   UNL     1      60.519   5.238   4.956  1.00  0.00     0.209 HD
ENDBRANCH  14  15
ENDBRANCH   1  14
TORSDOF 3
ENDMDL
MODEL 6
REMARK VINA RESULT:      -4.8      2.071      6.119
REMARK  3 active torsions:
REMARK  status: ('A' for Active; 'I' for Inactive)
REMARK    1  A    between atoms: C_1  and  C_8 
REMARK    2  A    between atoms: C_2  and  C_7 
REMARK    3  A    between atoms: C_8  and  O_9 
ROOT
HETATM    1  C   UNL     1      65.152   7.094   5.164  1.00  0.00     0.026 A 
HETATM    2  C   UNL     1      65.237   6.777   6.509  1.00  0.00     0.119 A 
HETATM    3  O   UNL     1      64.162   7.319   7.153  1.00  0.00    -0.236 OA
HETATM    4  N   UNL     1      63.367   8.002   6.257  1.00  0.00    -0.265 N 
ATOM      5  HN  UNL     1      62.502   8.503   6.460  1.00  0.00     0.194 HD
HETATM    6  C   UNL     1      63.963   7.872   5.067  1.00  0.00     0.040 A 
HETATM    7  C   UNL     1      63.365   8.524   3.878  1.00  0.00     0.071 C 
ENDROOT
BRANCH   2   8
HETATM    8  C   UNL     1      66.177   6.050   7.357  1.00  0.00     0.000 A 
HETATM    9  C   UNL     1      66.876   6.713   8.379  1.00  0.00     0.014 A 
HETATM   10  C   UNL     1      67.818   6.040   9.161  1.00  0.00     0.001 A 
HETATM   11  C   UNL     1      68.074   4.690   8.937  1.00  0.00     0.000 A 
HETATM   12  C   UNL     1      67.377   4.011   7.943  1.00  0.00     0.001 A 
HETATM   13  C   UNL     1      66.432   4.684   7.164  1.00  0.00     0.014 A 
ENDBRANCH   2   8
BRANCH   1  14
HETATM   14  C   UNL     1      66.087   6.745   4.070  1.00  0.00     0.207 C 
BRANCH  14  15
HETATM   15  O   UNL     1      67.406   7.207   4.340  1.00  0.00    -0.396 OA
HETATM   16  H   UNL     1      67.970   7.044   3.568  1.00  0.00     0.209 HD
ENDBRANCH  14  15
ENDBRANCH   1  14
TORSDOF 3
ENDMDL
MODEL 7
REMARK VINA RESULT:      -4.7      1.718      2.281
REMARK  3 active torsions:
REMARK  status: ('A' for Active; 'I' for Inactive)
REMARK    1  A    between atoms: C_1  and  C_8 
REMARK    2  A    between atoms: C_2  and  C_7 
REMARK    3  A    between atoms: C_8  and  O_9 
ROOT
HETATM    1  C   UNL     1      63.586   6.580   5.392  1.00  0.00     0.026 A 
HETATM    2  C   UNL     1      63.830   7.159   4.158  1.00  0.00     0.119 A 
HETATM    3  O   UNL     1      65.014   6.680   3.678  1.00  0.00    -0.236 OA
HETATM    4  N   UNL     1      65.570   5.798   4.581  1.00  0.00    -0.265 N 
ATOM      5  HN  UNL     1      66.450   5.292   4.484  1.00  0.00     0.194 HD
HETATM    6  C   UNL     1      64.716   5.743   5.609  1.00  0.00     0.040 A 
HETATM    7  C   UNL     1      65.039   4.889   6.777  1.00  0.00     0.071 C 
ENDROOT
BRANCH   2   8
HETATM    8  C   UNL     1      63.152   8.132   3.305  1.00  0.00     0.000 A 
HETATM    9  C   UNL     1      62.759   9.379   3.818  1.00  0.00     0.014 A 
HETATM   10  C   UNL     1      62.062  10.295   3.026  1.00  0.00     0.001 A 
HETATM   11  C   UNL     1      61.750   9.982   1.707  1.00  0.00     0.000 A 
HETATM   12  C   UNL     1      62.149   8.761   1.174  1.00  0.00     0.001 A 
HETATM   13  C   UNL     1      62.850   7.846   1.965  1.00  0.00     0.014 A 
ENDBRANCH   2   8
BRANCH   1  14
HETATM   14  C   UNL     1      62.439   6.793   6.304  1.00  0.00     0.207 C 
BRANCH  14  15
HETATM   15  O   UNL     1      62.609   7.966   7.094  1.00  0.00    -0.396 OA
HETATM   16  H   UNL     1      62.279   7.802   7.991  1.00  0.00     0.209 HD
ENDBRANCH  14  15
ENDBRANCH   1  14
TORSDOF 3
ENDMDL
MODEL 8
REMARK VINA RESULT:      -4.6      1.898      2.971
REMARK  3 active torsions:
REMARK  status: ('A' for Active; 'I' for Inactive)
REMARK    1  A    between atoms: C_1  and  C_8 
REMARK    2  A    between atoms: C_2  and  C_7 
REMARK    3  A    between atoms: C_8  and  O_9 
ROOT
HETATM    1  C   UNL     1      64.976   6.952   4.716  1.00  0.00     0.026 A 
HETATM    2  C   UNL     1      63.822   7.668   4.441  1.00  0.00     0.119 A 
HETATM    3  O   UNL     1      63.203   7.965   5.621  1.00  0.00    -0.236 OA
HETATM    4  N   UNL     1      63.921   7.447   6.678  1.00  0.00    -0.265 N 
ATOM      5  HN  UNL     1      63.692   7.516   7.669  1.00  0.00     0.194 HD
HETATM    6  C   UNL     1      64.979   6.836   6.135  1.00  0.00     0.040 A 
HETATM    7  C   UNL     1      65.950   6.144   7.015  1.00  0.00     0.071 C 
ENDROOT
BRANCH   2   8
HETATM    8  C   UNL     1      63.141   8.136   3.237  1.00  0.00     0.000 A 
HETATM    9  C   UNL     1      62.565   9.416   3.197  1.00  0.00     0.014 A 
HETATM   10  C   UNL     1      61.864   9.855   2.071  1.00  0.00     0.001 A 
HETATM   11  C   UNL     1      61.732   9.022   0.963  1.00  0.00     0.000 A 
HETATM   12  C   UNL     1      62.314   7.759   0.976  1.00  0.00     0.001 A 
HETATM   13  C   UNL     1      63.018   7.323   2.101  1.00  0.00     0.014 A 
ENDBRANCH   2   8
BRANCH   1  14
HETATM   14  C   UNL     1      65.969   6.398   3.768  1.00  0.00     0.207 C 
BRANCH  14  15
HETATM   15  O   UNL     1      67.244   7.009   3.928  1.00  0.00    -0.396 OA
HETATM   16  H   UNL     1      67.524   6.936   4.854  1.00  0.00     0.209 HD
ENDBRANCH  14  15
ENDBRANCH   1  14
TORSDOF 3
ENDMDL
MODEL 9
REMARK VINA RESULT:      -4.4      2.127      2.911
REMARK  3 active torsions:
REMARK  status: ('A' for Active; 'I' for Inactive)
REMARK    1  A    between atoms: C_1  and  C_8 
REMARK    2  A    between atoms: C_2  and  C_7 
REMARK    3  A    between atoms: C_8  and  O_9 
ROOT
HETATM    1  C   UNL     1      65.856   7.002   4.982  1.00  0.00     0.026 A 
HETATM    2  C   UNL     1      64.526   7.147   4.625  1.00  0.00     0.119 A 
HETATM    3  O   UNL     1      63.947   5.912   4.589  1.00  0.00    -0.236 OA
HETATM    4  N   UNL     1      64.876   4.943   4.907  1.00  0.00    -0.265 N 
ATOM      5  HN  UNL     1      64.722   3.936   4.956  1.00  0.00     0.194 HD
HETATM    6  C   UNL     1      66.020   5.597   5.137  1.00  0.00     0.040 A 
HETATM    7  C   UNL     1      67.239   4.828   5.482  1.00  0.00     0.071 C 
ENDROOT
BRANCH   2   8
HETATM    8  C   UNL     1      63.650   8.263   4.276  1.00  0.00     0.000 A 
HETATM    9  C   UNL     1      63.011   8.303   3.026  1.00  0.00     0.014 A 
HETATM   10  C   UNL     1      62.215   9.391   2.659  1.00  0.00     0.001 A 
HETATM   11  C   UNL     1      62.041  10.456   3.539  1.00  0.00     0.000 A 
HETATM   12  C   UNL     1      62.648  10.425   4.790  1.00  0.00     0.001 A 
HETATM   13  C   UNL     1      63.441   9.334   5.157  1.00  0.00     0.014 A 
ENDBRANCH   2   8
BRANCH   1  14
HETATM   14  C   UNL     1      66.891   8.048   5.140  1.00  0.00     0.207 C 
BRANCH  14  15
HETATM   15  O   UNL     1      67.964   7.867   4.221  1.00  0.00    -0.396 OA
HETATM   16  H   UNL     1      68.064   6.922   4.023  1.00  0.00     0.209 HD
ENDBRANCH  14  15
ENDBRANCH   1  14
TORSDOF 3
ENDMDL
