MODEL 1
REMARK VINA RESULT:      -5.7      0.000      0.000
REMARK  3 active torsions:
REMARK  status: ('A' for Active; 'I' for Inactive)
REMARK    1  A    between atoms: C_3  and  C_9 
REMARK    2  A    between atoms: C_6  and  C_10 
REMARK    3  A    between atoms: C_10  and  O_11 
ROOT
HETATM    1  N   UNL     1      65.780   8.237   5.086  1.00  0.00    -0.345 N 
ATOM      2  HN  UNL     1      66.106   8.801   4.301  1.00  0.00     0.167 HD
HETATM    3  C   UNL     1      64.477   8.212   5.425  1.00  0.00     0.115 A 
HETATM    4  N   UNL     1      63.982   7.488   6.444  1.00  0.00    -0.351 N 
ATOM      5  HN  UNL     1      62.988   7.488   6.672  1.00  0.00     0.166 HD
HETATM    6  C   UNL     1      66.230   6.716   6.883  1.00  0.00     0.003 A 
HETATM    7  C   UNL     1      66.646   7.495   5.815  1.00  0.00     0.016 A 
HETATM    8  C   UNL     1      64.873   6.761   7.147  1.00  0.00     0.101 A 
HETATM    9  C   UNL     1      68.075   7.600   5.370  1.00  0.00     0.069 C 
ENDROOT
BRANCH   3  10
HETATM   10  C   UNL     1      63.544   9.035   4.629  1.00  0.00     0.008 A 
HETATM   11  C   UNL     1      63.070  10.273   5.107  1.00  0.00     0.015 A 
HETATM   12  C   UNL     1      62.187  11.060   4.361  1.00  0.00     0.001 A 
HETATM   13  C   UNL     1      61.753  10.625   3.113  1.00  0.00     0.000 A 
HETATM   14  C   UNL     1      62.201   9.406   2.614  1.00  0.00     0.001 A 
HETATM   15  C   UNL     1      63.085   8.621   3.364  1.00  0.00     0.015 A 
ENDBRANCH   3  10
BRANCH   6  16
HETATM   16  C   UNL     1      67.142   5.889   7.732  1.00  0.00     0.206 C 
BRANCH  16  17
HETATM   17  O   UNL     1      67.736   6.669   8.761  1.00  0.00    -0.396 OA
HETATM   18  H   UNL     1      68.544   7.087   8.424  1.00  0.00     0.209 HD
ENDBRANCH  16  17
ENDBRANCH   6  16
TORSDOF 3
ENDMDL
MODEL 2
REMARK VINA RESULT:      -5.4      0.823      2.144
REMARK  3 active torsions:
REMARK  status: ('A' for Active; 'I' for Inactive)
REMARK    1  A    between atoms: C_3  and  C_9 
REMARK    2  A    between atoms: C_6  and  C_10 
REMARK    3  A    between atoms: C_10  and  O_11 
ROOT
HETATM    1  N   UNL     1      63.940   6.846   5.757  1.00  0.00    -0.345 N 
ATOM      2  HN  UNL     1      63.045   6.523   5.393  1.00  0.00     0.167 HD
HETATM    3  C   UNL     1      64.369   8.102   5.524  1.00  0.00     0.115 A 
HETATM    4  N   UNL     1      65.535   8.591   5.979  1.00  0.00    -0.351 N 
ATOM      5  HN  UNL     1      65.828   9.550   5.788  1.00  0.00     0.166 HD
HETATM    6  C   UNL     1      65.950   6.439   6.998  1.00  0.00     0.003 A 
HETATM    7  C   UNL     1      64.730   6.025   6.486  1.00  0.00     0.016 A 
HETATM    8  C   UNL     1      66.295   7.745   6.702  1.00  0.00     0.101 A 
HETATM    9  C   UNL     1      64.175   4.645   6.678  1.00  0.00     0.069 C 
ENDROOT
BRANCH   3  10
HETATM   10  C   UNL     1      63.502   8.986   4.718  1.00  0.00     0.008 A 
HETATM   11  C   UNL     1      63.033   8.590   3.449  1.00  0.00     0.015 A 
HETATM   12  C   UNL     1      62.212   9.418   2.678  1.00  0.00     0.001 A 
HETATM   13  C   UNL     1      61.839  10.669   3.159  1.00  0.00     0.000 A 
HETATM   14  C   UNL     1      62.287  11.090   4.407  1.00  0.00     0.001 A 
HETATM   15  C   UNL     1      63.110  10.258   5.175  1.00  0.00     0.015 A 
ENDBRANCH   3  10
BRANCH   6  16
HETATM   16  C   UNL     1      66.870   5.573   7.796  1.00  0.00     0.206 C 
BRANCH  16  17
HETATM   17  O   UNL     1      68.071   6.259   8.121  1.00  0.00    -0.396 OA
HETATM   18  H   UNL     1      67.857   7.102   8.550  1.00  0.00     0.209 HD
ENDBRANCH  16  17
ENDBRANCH   6  16
TORSDOF 3
ENDMDL
MODEL 3
REMARK VINA RESULT:      -5.4      1.401      1.920
REMARK  3 active torsions:
REMARK  status: ('A' for Active; 'I' for Inactive)
REMARK    1  A    between atoms: C_3  and  C_9 
REMARK    2  A    between atoms: C_6  and  C_10 
REMARK    3  A    between atoms: C_10  and  O_11 
ROOT
HETATM    1  N   UNL     1      64.972   8.468   5.529  1.00  0.00    -0.345 N 
ATOM      2  HN  UNL     1      65.466   9.291   5.186  1.00  0.00     0.167 HD
HETATM    3  C   UNL     1      63.677   8.260   5.220  1.00  0.00     0.115 A 
HETATM    4  N   UNL     1      62.970   7.194   5.634  1.00  0.00    -0.351 N 
ATOM      5  HN  UNL     1      61.992   7.065   5.378  1.00  0.00     0.166 HD
HETATM    6  C   UNL     1      64.954   6.423   6.779  1.00  0.00     0.003 A 
HETATM    7  C   UNL     1      65.600   7.554   6.305  1.00  0.00     0.016 A 
HETATM    8  C   UNL     1      63.628   6.306   6.404  1.00  0.00     0.101 A 
HETATM    9  C   UNL     1      67.032   7.880   6.606  1.00  0.00     0.069 C 
ENDROOT
BRANCH   3  10
HETATM   10  C   UNL     1      63.000   9.270   4.381  1.00  0.00     0.008 A 
HETATM   11  C   UNL     1      62.639   8.990   3.047  1.00  0.00     0.015 A 
HETATM   12  C   UNL     1      61.998   9.938   2.244  1.00  0.00     0.001 A 
HETATM   13  C   UNL     1      61.701  11.196   2.758  1.00  0.00     0.000 A 
HETATM   14  C   UNL     1      62.045  11.505   4.070  1.00  0.00     0.001 A 
HETATM   15  C   UNL     1      62.688  10.552   4.870  1.00  0.00     0.015 A 
ENDBRANCH   3  10
BRANCH   6  16
HETATM   16  C   UNL     1      65.591   5.390   7.651  1.00  0.00     0.206 C 
BRANCH  16  17
HETATM   17  O   UNL     1      64.933   4.136   7.530  1.00  0.00    -0.396 OA
HETATM   18  H   UNL     1      65.527   3.429   7.825  1.00  0.00     0.209 HD
ENDBRANCH  16  17
ENDBRANCH   6  16
TORSDOF 3
ENDMDL
MODEL 4
REMARK VINA RESULT:      -5.2      2.654      5.889
REMARK  3 active torsions:
REMARK  status: ('A' for Active; 'I' for Inactive)
REMARK    1  A    between atoms: C_3  and  C_9 
REMARK    2  A    between atoms: C_6  and  C_10 
REMARK    3  A    between atoms: C_10  and  O_11 
ROOT
HETATM    1  N   UNL     1      64.103   7.577   3.966  1.00  0.00    -0.345 N 
ATOM      2  HN  UNL     1      64.389   6.704   3.523  1.00  0.00     0.167 HD
HETATM    3  C   UNL     1      64.638   7.963   5.141  1.00  0.00     0.115 A 
HETATM    4  N   UNL     1      64.309   9.101   5.775  1.00  0.00    -0.351 N 
ATOM      5  HN  UNL     1      64.736   9.366   6.662  1.00  0.00     0.166 HD
HETATM    6  C   UNL     1      62.772   9.570   3.969  1.00  0.00     0.003 A 
HETATM    7  C   UNL     1      63.176   8.377   3.391  1.00  0.00     0.016 A 
HETATM    8  C   UNL     1      63.383   9.873   5.173  1.00  0.00     0.101 A 
HETATM    9  C   UNL     1      62.629   7.855   2.095  1.00  0.00     0.069 C 
ENDROOT
BRANCH   3  10
HETATM   10  C   UNL     1      65.641   7.076   5.764  1.00  0.00     0.008 A 
HETATM   11  C   UNL     1      66.639   6.445   4.993  1.00  0.00     0.015 A 
HETATM   12  C   UNL     1      67.593   5.603   5.573  1.00  0.00     0.001 A 
HETATM   13  C   UNL     1      67.573   5.371   6.944  1.00  0.00     0.000 A 
HETATM   14  C   UNL     1      66.600   5.977   7.733  1.00  0.00     0.001 A 
HETATM   15  C   UNL     1      65.646   6.818   7.148  1.00  0.00     0.015 A 
ENDBRANCH   3  10
BRANCH   6  16
HETATM   16  C   UNL     1      61.743  10.485   3.388  1.00  0.00     0.206 C 
BRANCH  16  17
HETATM   17  O   UNL     1      61.967  11.831   3.786  1.00  0.00    -0.396 OA
HETATM   18  H   UNL     1      62.843  12.116   3.484  1.00  0.00     0.209 HD
ENDBRANCH  16  17
ENDBRANCH   6  16
TORSDOF 3
ENDMDL
MODEL 5
REMARK VINA RESULT:      -5.1      2.750      5.866
REMARK  3 active torsions:
REMARK  status: ('A' for Active; 'I' for Inactive)
REMARK    1  A    between atoms: C_3  and  C_9 
REMARK    2  A    between atoms: C_6  and  C_10 
REMARK    3  A    between atoms: C_10  and  O_11 
ROOT
HETATM    1  N   UNL     1      64.164   9.287   5.585  1.00  0.00    -0.345 N 
ATOM      2  HN  UNL     1      64.592   9.590   6.460  1.00  0.00     0.167 HD
HETATM    3  C   UNL     1      64.545   8.140   4.990  1.00  0.00     0.115 A 
HETATM    4  N   UNL     1      64.018   7.683   3.841  1.00  0.00    -0.351 N 
ATOM      5  HN  UNL     1      64.326   6.808   3.418  1.00  0.00     0.166 HD
HETATM    6  C   UNL     1      62.598   9.638   3.806  1.00  0.00     0.003 A 
HETATM    7  C   UNL     1      63.200  10.028   4.992  1.00  0.00     0.016 A 
HETATM    8  C   UNL     1      63.060   8.446   3.279  1.00  0.00     0.101 A 
HETATM    9  C   UNL     1      62.856  11.293   5.721  1.00  0.00     0.069 C 
ENDROOT
BRANCH   3  10
HETATM   10  C   UNL     1      65.606   7.346   5.642  1.00  0.00     0.008 A 
HETATM   11  C   UNL     1      65.423   6.797   6.927  1.00  0.00     0.015 A 
HETATM   12  C   UNL     1      66.421   6.044   7.554  1.00  0.00     0.001 A 
HETATM   13  C   UNL     1      67.632   5.821   6.907  1.00  0.00     0.000 A 
HETATM   14  C   UNL     1      67.844   6.350   5.638  1.00  0.00     0.001 A 
HETATM   15  C   UNL     1      66.842   7.104   5.015  1.00  0.00     0.015 A 
ENDBRANCH   3  10
BRANCH   6  16
HETATM   16  C   UNL     1      61.540  10.422   3.098  1.00  0.00     0.206 C 
BRANCH  16  17
HETATM   17  O   UNL     1      62.088  11.563   2.453  1.00  0.00    -0.396 OA
HETATM   18  H   UNL     1      61.424  12.270   2.424  1.00  0.00     0.209 HD
ENDBRANCH  16  17
ENDBRANCH   6  16
TORSDOF 3
ENDMDL
MODEL 6
REMARK VINA RESULT:      -4.8      1.738      2.172
REMARK  3 active torsions:
REMARK  status: ('A' for Active; 'I' for Inactive)
REMARK    1  A    between atoms: C_3  and  C_9 
REMARK    2  A    between atoms: C_6  and  C_10 
REMARK    3  A    between atoms: C_10  and  O_11 
ROOT
HETATM    1  N   UNL     1      63.520   6.531   4.511  1.00  0.00    -0.345 N 
ATOM      2  HN  UNL     1      62.917   6.329   3.714  1.00  0.00     0.167 HD
HETATM    3  C   UNL     1      63.727   7.799   4.917  1.00  0.00     0.115 A 
HETATM    4  N   UNL     1      64.505   8.132   5.961  1.00  0.00    -0.351 N 
ATOM      5  HN  UNL     1      64.638   9.103   6.246  1.00  0.00     0.166 HD
HETATM    6  C   UNL     1      64.953   5.778   6.278  1.00  0.00     0.003 A 
HETATM    7  C   UNL     1      64.133   5.533   5.189  1.00  0.00     0.016 A 
HETATM    8  C   UNL     1      65.099   7.113   6.612  1.00  0.00     0.101 A 
HETATM    9  C   UNL     1      63.853   4.160   4.652  1.00  0.00     0.069 C 
ENDROOT
BRANCH   3  10
HETATM   10  C   UNL     1      63.061   8.880   4.163  1.00  0.00     0.008 A 
HETATM   11  C   UNL     1      62.747  10.111   4.773  1.00  0.00     0.015 A 
HETATM   12  C   UNL     1      62.116  11.141   4.068  1.00  0.00     0.001 A 
HETATM   13  C   UNL     1      61.784  10.964   2.729  1.00  0.00     0.000 A 
HETATM   14  C   UNL     1      62.080   9.759   2.098  1.00  0.00     0.001 A 
HETATM   15  C   UNL     1      62.710   8.731   2.808  1.00  0.00     0.015 A 
ENDBRANCH   3  10
BRANCH   6  16
HETATM   16  C   UNL     1      65.667   4.719   7.055  1.00  0.00     0.206 C 
BRANCH  16  17
HETATM   17  O   UNL     1      66.959   4.469   6.518  1.00  0.00    -0.396 OA
HETATM   18  H   UNL     1      67.529   4.094   7.207  1.00  0.00     0.209 HD
ENDBRANCH  16  17
ENDBRANCH   6  16
TORSDOF 3
ENDMDL
MODEL 7
REMARK VINA RESULT:      -4.5      3.240      5.960
REMARK  3 active torsions:
REMARK  status: ('A' for Active; 'I' for Inactive)
REMARK    1  A    between atoms: C_3  and  C_9 
REMARK    2  A    between atoms: C_6  and  C_10 
REMARK    3  A    between atoms: C_10  and  O_11 
ROOT
HETATM    1  N   UNL     1      63.786   7.227   3.223  1.00  0.00    -0.345 N 
ATOM      2  HN  UNL     1      64.330   6.365   3.209  1.00  0.00     0.167 HD
HETATM    3  C   UNL     1      63.878   8.085   4.258  1.00  0.00     0.115 A 
HETATM    4  N   UNL     1      63.193   9.239   4.336  1.00  0.00    -0.351 N 
ATOM      5  HN  UNL     1      63.289   9.869   5.132  1.00  0.00     0.166 HD
HETATM    6  C   UNL     1      62.205   8.707   2.196  1.00  0.00     0.003 A 
HETATM    7  C   UNL     1      62.952   7.539   2.204  1.00  0.00     0.016 A 
HETATM    8  C   UNL     1      62.373   9.517   3.303  1.00  0.00     0.101 A 
HETATM    9  C   UNL     1      62.907   6.516   1.108  1.00  0.00     0.069 C 
ENDROOT
BRANCH   3  10
HETATM   10  C   UNL     1      64.783   7.728   5.369  1.00  0.00     0.008 A 
HETATM   11  C   UNL     1      66.052   8.328   5.500  1.00  0.00     0.015 A 
HETATM   12  C   UNL     1      66.917   7.996   6.548  1.00  0.00     0.001 A 
HETATM   13  C   UNL     1      66.531   7.054   7.495  1.00  0.00     0.000 A 
HETATM   14  C   UNL     1      65.285   6.443   7.393  1.00  0.00     0.001 A 
HETATM   15  C   UNL     1      64.424   6.776   6.341  1.00  0.00     0.015 A 
ENDBRANCH   3  10
BRANCH   6  16
HETATM   16  C   UNL     1      61.258   9.096   1.106  1.00  0.00     0.206 C 
BRANCH  16  17
HETATM   17  O   UNL     1      59.942   8.635   1.379  1.00  0.00    -0.396 OA
HETATM   18  H   UNL     1      59.824   7.750   1.001  1.00  0.00     0.209 HD
ENDBRANCH  16  17
ENDBRANCH   6  16
TORSDOF 3
ENDMDL
MODEL 8
REMARK VINA RESULT:      -4.4      2.222      2.279
REMARK  3 active torsions:
REMARK  status: ('A' for Active; 'I' for Inactive)
REMARK    1  A    between atoms: C_3  and  C_9 
REMARK    2  A    between atoms: C_6  and  C_10 
REMARK    3  A    between atoms: C_10  and  O_11 
ROOT
HETATM    1  N   UNL     1      64.547   6.778   3.501  1.00  0.00    -0.345 N 
ATOM      2  HN  UNL     1      64.137   6.885   2.574  1.00  0.00     0.167 HD
HETATM    3  C   UNL     1      64.316   7.687   4.468  1.00  0.00     0.115 A 
HETATM    4  N   UNL     1      64.822   7.603   5.711  1.00  0.00    -0.351 N 
ATOM      5  HN  UNL     1      64.623   8.307   6.422  1.00  0.00     0.166 HD
HETATM    6  C   UNL     1      65.906   5.548   5.045  1.00  0.00     0.003 A 
HETATM    7  C   UNL     1      65.339   5.720   3.792  1.00  0.00     0.016 A 
HETATM    8  C   UNL     1      65.606   6.537   5.964  1.00  0.00     0.101 A 
HETATM    9  C   UNL     1      65.550   4.773   2.648  1.00  0.00     0.069 C 
ENDROOT
BRANCH   3  10
HETATM   10  C   UNL     1      63.458   8.842   4.135  1.00  0.00     0.008 A 
HETATM   11  C   UNL     1      63.295   9.915   5.034  1.00  0.00     0.015 A 
HETATM   12  C   UNL     1      62.486  11.014   4.728  1.00  0.00     0.001 A 
HETATM   13  C   UNL     1      61.817  11.067   3.510  1.00  0.00     0.000 A 
HETATM   14  C   UNL     1      61.957  10.022   2.601  1.00  0.00     0.001 A 
HETATM   15  C   UNL     1      62.767   8.924   2.912  1.00  0.00     0.015 A 
ENDBRANCH   3  10
BRANCH   6  16
HETATM   16  C   UNL     1      66.800   4.409   5.419  1.00  0.00     0.206 C 
BRANCH  16  17
HETATM   17  O   UNL     1      66.052   3.310   5.921  1.00  0.00    -0.396 OA
HETATM   18  H   UNL     1      65.964   2.636   5.230  1.00  0.00     0.209 HD
ENDBRANCH  16  17
ENDBRANCH   6  16
TORSDOF 3
ENDMDL
MODEL 9
REMARK VINA RESULT:      -4.4      3.928      5.070
REMARK  3 active torsions:
REMARK  status: ('A' for Active; 'I' for Inactive)
REMARK    1  A    between atoms: C_3  and  C_9 
REMARK    2  A    between atoms: C_6  and  C_10 
REMARK    3  A    between atoms: C_10  and  O_11 
ROOT
HETATM    1  N   UNL     1      60.226   6.775   4.236  1.00  0.00    -0.345 N 
ATOM      2  HN  UNL     1      59.587   6.968   3.465  1.00  0.00     0.167 HD
HETATM    3  C   UNL     1      61.323   7.532   4.430  1.00  0.00     0.115 A 
HETATM    4  N   UNL     1      62.201   7.334   5.429  1.00  0.00    -0.351 N 
ATOM      5  HN  UNL     1      63.021   7.929   5.550  1.00  0.00     0.166 HD
HETATM    6  C   UNL     1      60.842   5.470   6.150  1.00  0.00     0.003 A 
HETATM    7  C   UNL     1      59.993   5.752   5.090  1.00  0.00     0.016 A 
HETATM    8  C   UNL     1      61.938   6.307   6.260  1.00  0.00     0.101 A 
HETATM    9  C   UNL     1      58.758   4.959   4.783  1.00  0.00     0.069 C 
ENDROOT
BRANCH   3  10
HETATM   10  C   UNL     1      61.571   8.639   3.485  1.00  0.00     0.008 A 
HETATM   11  C   UNL     1      61.690   8.404   2.100  1.00  0.00     0.015 A 
HETATM   12  C   UNL     1      61.924   9.445   1.196  1.00  0.00     0.001 A 
HETATM   13  C   UNL     1      62.046  10.752   1.657  1.00  0.00     0.000 A 
HETATM   14  C   UNL     1      61.936  11.016   3.019  1.00  0.00     0.001 A 
HETATM   15  C   UNL     1      61.702   9.971   3.920  1.00  0.00     0.015 A 
ENDBRANCH   3  10
BRANCH   6  16
HETATM   16  C   UNL     1      60.645   4.346   7.115  1.00  0.00     0.206 C 
BRANCH  16  17
HETATM   17  O   UNL     1      59.802   4.733   8.192  1.00  0.00    -0.396 OA
HETATM   18  H   UNL     1      58.903   4.886   7.861  1.00  0.00     0.209 HD
ENDBRANCH  16  17
ENDBRANCH   6  16
TORSDOF 3
ENDMDL
