MODEL 1
REMARK VINA RESULT:      -4.8      0.000      0.000
REMARK  2 active torsions:
REMARK  status: ('A' for Active; 'I' for Inactive)
REMARK    1  A    between atoms: C_5  and  C_11 
REMARK    2  A    between atoms: C_11  and  O_13 
ROOT
HETATM    1  N   UNL     1      62.656  10.053   3.870  1.00  0.00    -0.308 N 
HETATM    2  N   UNL     1      63.433   7.953   3.946  1.00  0.00    -0.344 N 
ATOM      3  HN  UNL     1      63.682   6.998   3.689  1.00  0.00     0.167 HD
HETATM    4  C   UNL     1      62.839   8.850   3.190  1.00  0.00     0.112 A 
HETATM    5  C   UNL     1      63.184   9.875   5.134  1.00  0.00     0.063 A 
HETATM    6  C   UNL     1      63.646   8.569   5.153  1.00  0.00     0.032 A 
HETATM    7  C   UNL     1      62.052  11.169   3.286  1.00  0.00     0.099 A 
HETATM    8  C   UNL     1      62.373   8.781   1.846  1.00  0.00     0.049 A 
HETATM    9  C   UNL     1      61.618  11.099   2.017  1.00  0.00     0.018 A 
HETATM   10  C   UNL     1      61.788   9.856   1.281  1.00  0.00     0.005 A 
HETATM   11  C   UNL     1      64.289   7.831   6.267  1.00  0.00     0.070 C 
ENDROOT
BRANCH   5  12
HETATM   12  C   UNL     1      63.174  10.904   6.194  1.00  0.00     0.223 C 
BRANCH  12  13
HETATM   13  O   UNL     1      64.505  11.366   6.362  1.00  0.00    -0.395 OA
HETATM   14  H   UNL     1      65.113  10.611   6.347  1.00  0.00     0.209 HD
ENDBRANCH  12  13
ENDBRANCH   5  12
TORSDOF 2
ENDMDL
MODEL 2
REMARK VINA RESULT:      -4.6      1.388      2.749
REMARK  2 active torsions:
REMARK  status: ('A' for Active; 'I' for Inactive)
REMARK    1  A    between atoms: C_5  and  C_11 
REMARK    2  A    between atoms: C_11  and  O_13 
ROOT
HETATM    1  N   UNL     1      62.802   8.571   3.052  1.00  0.00    -0.308 N 
HETATM    2  N   UNL     1      61.859  10.601   3.150  1.00  0.00    -0.344 N 
ATOM      3  HN  UNL     1      61.336  11.443   2.911  1.00  0.00     0.167 HD
HETATM    4  C   UNL     1      62.033   9.534   2.401  1.00  0.00     0.112 A 
HETATM    5  C   UNL     1      63.114   9.089   4.293  1.00  0.00     0.063 A 
HETATM    6  C   UNL     1      62.527  10.344   4.321  1.00  0.00     0.032 A 
HETATM    7  C   UNL     1      63.128   7.343   2.471  1.00  0.00     0.099 A 
HETATM    8  C   UNL     1      61.580   9.230   1.085  1.00  0.00     0.049 A 
HETATM    9  C   UNL     1      62.694   7.060   1.231  1.00  0.00     0.018 A 
HETATM   10  C   UNL     1      61.894   8.047   0.522  1.00  0.00     0.005 A 
HETATM   11  C   UNL     1      62.557  11.357   5.403  1.00  0.00     0.070 C 
ENDROOT
BRANCH   5  12
HETATM   12  C   UNL     1      63.944   8.397   5.301  1.00  0.00     0.223 C 
BRANCH  12  13
HETATM   13  O   UNL     1      65.103   9.186   5.522  1.00  0.00    -0.395 OA
HETATM   14  H   UNL     1      65.151   9.435   6.458  1.00  0.00     0.209 HD
ENDBRANCH  12  13
ENDBRANCH   5  12
TORSDOF 2
ENDMDL
MODEL 3
REMARK VINA RESULT:      -4.5      1.898      2.576
REMARK  2 active torsions:
REMARK  status: ('A' for Active; 'I' for Inactive)
REMARK    1  A    between atoms: C_5  and  C_11 
REMARK    2  A    between atoms: C_11  and  O_13 
ROOT
HETATM    1  N   UNL     1      63.399   9.009   4.429  1.00  0.00    -0.308 N 
HETATM    2  N   UNL     1      63.148   7.661   2.657  1.00  0.00    -0.344 N 
ATOM      3  HN  UNL     1      62.862   7.286   1.753  1.00  0.00     0.167 HD
HETATM    4  C   UNL     1      62.825   8.827   3.172  1.00  0.00     0.112 A 
HETATM    5  C   UNL     1      64.131   7.869   4.696  1.00  0.00     0.063 A 
HETATM    6  C   UNL     1      63.950   7.053   3.591  1.00  0.00     0.032 A 
HETATM    7  C   UNL     1      63.214  10.169   5.185  1.00  0.00     0.099 A 
HETATM    8  C   UNL     1      62.013   9.881   2.664  1.00  0.00     0.049 A 
HETATM    9  C   UNL     1      62.450  11.161   4.700  1.00  0.00     0.018 A 
HETATM   10  C   UNL     1      61.831  11.000   3.393  1.00  0.00     0.005 A 
HETATM   11  C   UNL     1      64.487   5.694   3.344  1.00  0.00     0.070 C 
ENDROOT
BRANCH   5  12
HETATM   12  C   UNL     1      64.884   7.635   5.946  1.00  0.00     0.223 C 
BRANCH  12  13
HETATM   13  O   UNL     1      63.951   7.269   6.950  1.00  0.00    -0.395 OA
HETATM   14  H   UNL     1      64.425   6.931   7.725  1.00  0.00     0.209 HD
ENDBRANCH  12  13
ENDBRANCH   5  12
TORSDOF 2
ENDMDL
MODEL 4
REMARK VINA RESULT:      -4.4      2.154      2.961
REMARK  2 active torsions:
REMARK  status: ('A' for Active; 'I' for Inactive)
REMARK    1  A    between atoms: C_5  and  C_11 
REMARK    2  A    between atoms: C_11  and  O_13 
ROOT
HETATM    1  N   UNL     1      62.756   8.734   3.410  1.00  0.00    -0.308 N 
HETATM    2  N   UNL     1      63.073   9.160   5.586  1.00  0.00    -0.344 N 
ATOM      3  HN  UNL     1      63.105   9.629   6.491  1.00  0.00     0.167 HD
HETATM    4  C   UNL     1      62.664   9.664   4.443  1.00  0.00     0.112 A 
HETATM    5  C   UNL     1      63.254   7.573   3.969  1.00  0.00     0.063 A 
HETATM    6  C   UNL     1      63.447   7.869   5.308  1.00  0.00     0.032 A 
HETATM    7  C   UNL     1      62.379   9.021   2.096  1.00  0.00     0.099 A 
HETATM    8  C   UNL     1      62.167  10.959   4.116  1.00  0.00     0.049 A 
HETATM    9  C   UNL     1      61.908  10.242   1.794  1.00  0.00     0.018 A 
HETATM   10  C   UNL     1      61.805  11.239   2.849  1.00  0.00     0.005 A 
HETATM   11  C   UNL     1      63.986   6.999   6.381  1.00  0.00     0.070 C 
ENDROOT
BRANCH   5  12
HETATM   12  C   UNL     1      63.532   6.335   3.211  1.00  0.00     0.223 C 
BRANCH  12  13
HETATM   13  O   UNL     1      64.936   6.246   3.031  1.00  0.00    -0.395 OA
HETATM   14  H   UNL     1      65.378   6.313   3.892  1.00  0.00     0.209 HD
ENDBRANCH  12  13
ENDBRANCH   5  12
TORSDOF 2
ENDMDL
MODEL 5
REMARK VINA RESULT:      -4.2      2.301      4.001
REMARK  2 active torsions:
REMARK  status: ('A' for Active; 'I' for Inactive)
REMARK    1  A    between atoms: C_5  and  C_11 
REMARK    2  A    between atoms: C_11  and  O_13 
ROOT
HETATM    1  N   UNL     1      62.801   9.070   3.434  1.00  0.00    -0.308 N 
HETATM    2  N   UNL     1      61.825   9.577   1.482  1.00  0.00    -0.344 N 
ATOM      3  HN  UNL     1      61.331  10.075   0.742  1.00  0.00     0.167 HD
HETATM    4  C   UNL     1      62.112  10.023   2.686  1.00  0.00     0.112 A 
HETATM    5  C   UNL     1      62.948   7.962   2.622  1.00  0.00     0.063 A 
HETATM    6  C   UNL     1      62.330   8.302   1.430  1.00  0.00     0.032 A 
HETATM    7  C   UNL     1      63.225   9.299   4.746  1.00  0.00     0.099 A 
HETATM    8  C   UNL     1      61.836  11.272   3.312  1.00  0.00     0.049 A 
HETATM    9  C   UNL     1      62.965  10.480   5.329  1.00  0.00     0.018 A 
HETATM   10  C   UNL     1      62.242  11.494   4.577  1.00  0.00     0.005 A 
HETATM   11  C   UNL     1      62.165   7.482   0.206  1.00  0.00     0.070 C 
ENDROOT
BRANCH   5  12
HETATM   12  C   UNL     1      63.605   6.705   3.037  1.00  0.00     0.223 C 
BRANCH  12  13
HETATM   13  O   UNL     1      62.641   5.921   3.722  1.00  0.00    -0.395 OA
HETATM   14  H   UNL     1      62.716   6.076   4.677  1.00  0.00     0.209 HD
ENDBRANCH  12  13
ENDBRANCH   5  12
TORSDOF 2
ENDMDL
MODEL 6
REMARK VINA RESULT:      -4.2      2.341      3.215
REMARK  2 active torsions:
REMARK  status: ('A' for Active; 'I' for Inactive)
REMARK    1  A    between atoms: C_5  and  C_11 
REMARK    2  A    between atoms: C_11  and  O_13 
ROOT
HETATM    1  N   UNL     1      63.020   8.983   3.754  1.00  0.00    -0.308 N 
HETATM    2  N   UNL     1      63.918   8.886   5.805  1.00  0.00    -0.344 N 
ATOM      3  HN  UNL     1      64.202   9.126   6.754  1.00  0.00     0.167 HD
HETATM    4  C   UNL     1      63.231   9.634   4.968  1.00  0.00     0.112 A 
HETATM    5  C   UNL     1      63.620   7.743   3.862  1.00  0.00     0.063 A 
HETATM    6  C   UNL     1      64.172   7.717   5.133  1.00  0.00     0.032 A 
HETATM    7  C   UNL     1      62.313   9.562   2.698  1.00  0.00     0.099 A 
HETATM    8  C   UNL     1      62.698  10.947   5.108  1.00  0.00     0.049 A 
HETATM    9  C   UNL     1      61.809  10.799   2.837  1.00  0.00     0.018 A 
HETATM   10  C   UNL     1      62.017  11.508   4.090  1.00  0.00     0.005 A 
HETATM   11  C   UNL     1      64.955   6.638   5.780  1.00  0.00     0.070 C 
ENDROOT
BRANCH   5  12
HETATM   12  C   UNL     1      63.654   6.737   2.781  1.00  0.00     0.223 C 
BRANCH  12  13
HETATM   13  O   UNL     1      62.543   5.873   2.960  1.00  0.00    -0.395 OA
HETATM   14  H   UNL     1      62.610   5.434   3.822  1.00  0.00     0.209 HD
ENDBRANCH  12  13
ENDBRANCH   5  12
TORSDOF 2
ENDMDL
MODEL 7
REMARK VINA RESULT:      -4.1      2.287      3.928
REMARK  2 active torsions:
REMARK  status: ('A' for Active; 'I' for Inactive)
REMARK    1  A    between atoms: C_5  and  C_11 
REMARK    2  A    between atoms: C_11  and  O_13 
ROOT
HETATM    1  N   UNL     1      63.662   8.125   3.813  1.00  0.00    -0.308 N 
HETATM    2  N   UNL     1      64.395   9.210   5.631  1.00  0.00    -0.344 N 
ATOM      3  HN  UNL     1      64.923   9.463   6.466  1.00  0.00     0.167 HD
HETATM    4  C   UNL     1      64.561   8.145   4.878  1.00  0.00     0.112 A 
HETATM    5  C   UNL     1      62.896   9.269   3.923  1.00  0.00     0.063 A 
HETATM    6  C   UNL     1      63.364   9.912   5.057  1.00  0.00     0.032 A 
HETATM    7  C   UNL     1      63.635   7.101   2.864  1.00  0.00     0.099 A 
HETATM    8  C   UNL     1      65.475   7.057   4.984  1.00  0.00     0.049 A 
HETATM    9  C   UNL     1      64.502   6.079   2.966  1.00  0.00     0.018 A 
HETATM   10  C   UNL     1      65.449   6.066   4.071  1.00  0.00     0.005 A 
HETATM   11  C   UNL     1      62.891  11.178   5.667  1.00  0.00     0.070 C 
ENDROOT
BRANCH   5  12
HETATM   12  C   UNL     1      61.797   9.628   3.003  1.00  0.00     0.223 C 
BRANCH  12  13
HETATM   13  O   UNL     1      60.575   9.465   3.705  1.00  0.00    -0.395 OA
HETATM   14  H   UNL     1      60.693   8.814   4.415  1.00  0.00     0.209 HD
ENDBRANCH  12  13
ENDBRANCH   5  12
TORSDOF 2
ENDMDL
MODEL 8
REMARK VINA RESULT:      -3.9      2.943      4.208
REMARK  2 active torsions:
REMARK  status: ('A' for Active; 'I' for Inactive)
REMARK    1  A    between atoms: C_5  and  C_11 
REMARK    2  A    between atoms: C_11  and  O_13 
ROOT
HETATM    1  N   UNL     1      64.718   7.316   4.324  1.00  0.00    -0.308 N 
HETATM    2  N   UNL     1      65.475   8.268   6.205  1.00  0.00    -0.344 N 
ATOM      3  HN  UNL     1      65.594   8.902   6.996  1.00  0.00     0.167 HD
HETATM    4  C   UNL     1      64.593   8.364   5.235  1.00  0.00     0.112 A 
HETATM    5  C   UNL     1      65.751   6.520   4.778  1.00  0.00     0.063 A 
HETATM    6  C   UNL     1      66.203   7.137   5.933  1.00  0.00     0.032 A 
HETATM    7  C   UNL     1      63.894   7.186   3.203  1.00  0.00     0.099 A 
HETATM    8  C   UNL     1      63.579   9.332   4.985  1.00  0.00     0.049 A 
HETATM    9  C   UNL     1      62.937   8.100   2.974  1.00  0.00     0.018 A 
HETATM   10  C   UNL     1      62.784   9.210   3.903  1.00  0.00     0.005 A 
HETATM   11  C   UNL     1      67.315   6.730   6.826  1.00  0.00     0.070 C 
ENDROOT
BRANCH   5  12
HETATM   12  C   UNL     1      66.234   5.307   4.087  1.00  0.00     0.223 C 
BRANCH  12  13
HETATM   13  O   UNL     1      67.356   5.676   3.301  1.00  0.00    -0.395 OA
HETATM   14  H   UNL     1      68.035   6.070   3.871  1.00  0.00     0.209 HD
ENDBRANCH  12  13
ENDBRANCH   5  12
TORSDOF 2
ENDMDL
MODEL 9
REMARK VINA RESULT:      -3.9      1.674      2.044
REMARK  2 active torsions:
REMARK  status: ('A' for Active; 'I' for Inactive)
REMARK    1  A    between atoms: C_5  and  C_11 
REMARK    2  A    between atoms: C_11  and  O_13 
ROOT
HETATM    1  N   UNL     1      62.969   8.364   3.096  1.00  0.00    -0.308 N 
HETATM    2  N   UNL     1      63.761   6.351   2.514  1.00  0.00    -0.344 N 
ATOM      3  HN  UNL     1      63.987   5.511   1.981  1.00  0.00     0.167 HD
HETATM    4  C   UNL     1      63.083   7.398   2.098  1.00  0.00     0.112 A 
HETATM    5  C   UNL     1      63.633   7.869   4.201  1.00  0.00     0.063 A 
HETATM    6  C   UNL     1      64.103   6.624   3.815  1.00  0.00     0.032 A 
HETATM    7  C   UNL     1      62.297   9.574   2.905  1.00  0.00     0.099 A 
HETATM    8  C   UNL     1      62.473   7.679   0.842  1.00  0.00     0.049 A 
HETATM    9  C   UNL     1      61.726   9.835   1.718  1.00  0.00     0.018 A 
HETATM   10  C   UNL     1      61.822   8.844   0.656  1.00  0.00     0.005 A 
HETATM   11  C   UNL     1      64.868   5.635   4.611  1.00  0.00     0.070 C 
ENDROOT
BRANCH   5  12
HETATM   12  C   UNL     1      63.734   8.571   5.498  1.00  0.00     0.223 C 
BRANCH  12  13
HETATM   13  O   UNL     1      64.974   9.259   5.521  1.00  0.00    -0.395 OA
HETATM   14  H   UNL     1      64.906  10.030   6.105  1.00  0.00     0.209 HD
ENDBRANCH  12  13
ENDBRANCH   5  12
TORSDOF 2
ENDMDL
