MODEL 1
REMARK VINA RESULT:      -5.0      0.000      0.000
REMARK  3 active torsions:
REMARK  status: ('A' for Active; 'I' for Inactive)
REMARK    1  A    between atoms: N_1  and  C_2 
REMARK    2  A    between atoms: C_8  and  C_12 
REMARK    3  A    between atoms: N_9  and  C_12 
ROOT
HETATM    1  C   UNL     1      63.247   8.543   4.610  1.00  0.00     0.038 A 
HETATM    2  C   UNL     1      64.634   8.557   4.834  1.00  0.00     0.038 A 
HETATM    3  C   UNL     1      65.227   7.709   5.788  1.00  0.00    -0.031 A 
HETATM    4  C   UNL     1      62.456   7.648   5.345  1.00  0.00     0.030 A 
HETATM    5  C   UNL     1      63.040   6.791   6.282  1.00  0.00     0.003 A 
HETATM    6  C   UNL     1      64.415   6.824   6.506  1.00  0.00     0.009 A 
ENDROOT
BRANCH   1   7
HETATM    7  N   UNL     1      62.653   9.440   3.666  1.00  0.00    -0.333 N 
HETATM    8  C   UNL     1      62.233  10.737   3.906  1.00  0.00     0.096 A 
HETATM    9  C   UNL     1      61.743  11.286   2.742  1.00  0.00     0.019 A 
HETATM   10  C   UNL     1      61.846  10.303   1.742  1.00  0.00     0.019 A 
HETATM   11  C   UNL     1      62.401   9.185   2.328  1.00  0.00     0.096 A 
ENDBRANCH   1   7
BRANCH   3  12
HETATM   12  C   UNL     1      66.706   7.795   6.065  1.00  0.00     0.268 C 
BRANCH  12  13
HETATM   13  N   UNL     1      66.993   8.597   7.248  1.00  0.00    -0.075 N 
HETATM   14  H   UNL     1      67.110   7.984   8.055  1.00  0.00     0.274 HD
HETATM   15  H   UNL     1      66.220   9.241   7.419  1.00  0.00     0.274 HD
HETATM   16  H   UNL     1      67.851   9.130   7.099  1.00  0.00     0.274 HD
ENDBRANCH  12  13
ENDBRANCH   3  12
TORSDOF 3
ENDMDL
MODEL 2
REMARK VINA RESULT:      -4.9      1.479      5.345
REMARK  3 active torsions:
REMARK  status: ('A' for Active; 'I' for Inactive)
REMARK    1  A    between atoms: N_1  and  C_2 
REMARK    2  A    between atoms: C_8  and  C_12 
REMARK    3  A    between atoms: N_9  and  C_12 
ROOT
HETATM    1  C   UNL     1      63.398   9.056   4.693  1.00  0.00     0.038 A 
HETATM    2  C   UNL     1      62.970   8.714   3.399  1.00  0.00     0.038 A 
HETATM    3  C   UNL     1      62.178   9.593   2.637  1.00  0.00    -0.031 A 
HETATM    4  C   UNL     1      63.038  10.308   5.211  1.00  0.00     0.030 A 
HETATM    5  C   UNL     1      62.267  11.194   4.453  1.00  0.00     0.003 A 
HETATM    6  C   UNL     1      61.836  10.838   3.176  1.00  0.00     0.009 A 
ENDROOT
BRANCH   1   7
HETATM    7  N   UNL     1      64.168   8.135   5.472  1.00  0.00    -0.333 N 
HETATM    8  C   UNL     1      63.686   7.057   6.196  1.00  0.00     0.096 A 
HETATM    9  C   UNL     1      64.737   6.392   6.788  1.00  0.00     0.019 A 
HETATM   10  C   UNL     1      65.914   7.077   6.436  1.00  0.00     0.019 A 
HETATM   11  C   UNL     1      65.543   8.136   5.636  1.00  0.00     0.096 A 
ENDBRANCH   1   7
BRANCH   3  12
HETATM   12  C   UNL     1      61.667   9.174   1.282  1.00  0.00     0.268 C 
BRANCH  12  13
HETATM   13  N   UNL     1      60.268   8.768   1.329  1.00  0.00    -0.075 N 
HETATM   14  H   UNL     1      60.211   7.755   1.440  1.00  0.00     0.274 HD
HETATM   15  H   UNL     1      59.804   9.043   0.463  1.00  0.00     0.274 HD
HETATM   16  H   UNL     1      59.808   9.222   2.119  1.00  0.00     0.274 HD
ENDBRANCH  12  13
ENDBRANCH   3  12
TORSDOF 3
ENDMDL
MODEL 3
REMARK VINA RESULT:      -4.9      1.500      5.241
REMARK  3 active torsions:
REMARK  status: ('A' for Active; 'I' for Inactive)
REMARK    1  A    between atoms: N_1  and  C_2 
REMARK    2  A    between atoms: C_8  and  C_12 
REMARK    3  A    between atoms: N_9  and  C_12 
ROOT
HETATM    1  C   UNL     1      64.143   7.926   4.745  1.00  0.00     0.038 A 
HETATM    2  C   UNL     1      63.443   9.143   4.774  1.00  0.00     0.038 A 
HETATM    3  C   UNL     1      62.625   9.540   3.699  1.00  0.00    -0.031 A 
HETATM    4  C   UNL     1      63.998   7.093   3.625  1.00  0.00     0.030 A 
HETATM    5  C   UNL     1      63.174   7.473   2.562  1.00  0.00     0.003 A 
HETATM    6  C   UNL     1      62.495   8.690   2.596  1.00  0.00     0.009 A 
ENDROOT
BRANCH   1   7
HETATM    7  N   UNL     1      65.003   7.554   5.826  1.00  0.00    -0.333 N 
HETATM    8  C   UNL     1      66.253   8.078   6.108  1.00  0.00     0.096 A 
HETATM    9  C   UNL     1      66.755   7.487   7.247  1.00  0.00     0.019 A 
HETATM   10  C   UNL     1      65.799   6.555   7.688  1.00  0.00     0.019 A 
HETATM   11  C   UNL     1      64.741   6.611   6.806  1.00  0.00     0.096 A 
ENDBRANCH   1   7
BRANCH   3  12
HETATM   12  C   UNL     1      61.943  10.884   3.720  1.00  0.00     0.268 C 
BRANCH  12  13
HETATM   13  N   UNL     1      61.558  11.321   2.384  1.00  0.00    -0.075 N 
HETATM   14  H   UNL     1      61.056  10.569   1.911  1.00  0.00     0.274 HD
HETATM   15  H   UNL     1      62.395  11.559   1.850  1.00  0.00     0.274 HD
HETATM   16  H   UNL     1      60.955  12.141   2.454  1.00  0.00     0.274 HD
ENDBRANCH  12  13
ENDBRANCH   3  12
TORSDOF 3
ENDMDL
MODEL 4
REMARK VINA RESULT:      -4.3      2.009      3.090
REMARK  3 active torsions:
REMARK  status: ('A' for Active; 'I' for Inactive)
REMARK    1  A    between atoms: N_1  and  C_2 
REMARK    2  A    between atoms: C_8  and  C_12 
REMARK    3  A    between atoms: N_9  and  C_12 
ROOT
HETATM    1  C   UNL     1      62.054   8.965   3.356  1.00  0.00     0.038 A 
HETATM    2  C   UNL     1      63.153   8.317   3.942  1.00  0.00     0.038 A 
HETATM    3  C   UNL     1      63.942   8.955   4.917  1.00  0.00    -0.031 A 
HETATM    4  C   UNL     1      61.738  10.266   3.776  1.00  0.00     0.030 A 
HETATM    5  C   UNL     1      62.507  10.900   4.756  1.00  0.00     0.003 A 
HETATM    6  C   UNL     1      63.604  10.251   5.320  1.00  0.00     0.009 A 
ENDROOT
BRANCH   1   7
HETATM    7  N   UNL     1      61.286   8.319   2.336  1.00  0.00    -0.333 N 
HETATM    8  C   UNL     1      60.582   7.133   2.455  1.00  0.00     0.096 A 
HETATM    9  C   UNL     1      59.946   6.852   1.265  1.00  0.00     0.019 A 
HETATM   10  C   UNL     1      60.268   7.886   0.367  1.00  0.00     0.019 A 
HETATM   11  C   UNL     1      61.087   8.767   1.040  1.00  0.00     0.096 A 
ENDBRANCH   1   7
BRANCH   3  12
HETATM   12  C   UNL     1      65.162   8.268   5.476  1.00  0.00     0.268 C 
BRANCH  12  13
HETATM   13  N   UNL     1      64.842   7.454   6.643  1.00  0.00    -0.075 N 
HETATM   14  H   UNL     1      65.590   7.536   7.331  1.00  0.00     0.274 HD
HETATM   15  H   UNL     1      64.744   6.479   6.361  1.00  0.00     0.274 HD
HETATM   16  H   UNL     1      63.965   7.778   7.053  1.00  0.00     0.274 HD
ENDBRANCH  12  13
ENDBRANCH   3  12
TORSDOF 3
ENDMDL
MODEL 5
REMARK VINA RESULT:      -4.3      1.956      3.246
REMARK  3 active torsions:
REMARK  status: ('A' for Active; 'I' for Inactive)
REMARK    1  A    between atoms: N_1  and  C_2 
REMARK    2  A    between atoms: C_8  and  C_12 
REMARK    3  A    between atoms: N_9  and  C_12 
ROOT
HETATM    1  C   UNL     1      65.430   7.663   5.314  1.00  0.00     0.038 A 
HETATM    2  C   UNL     1      65.322   7.172   6.625  1.00  0.00     0.038 A 
HETATM    3  C   UNL     1      66.406   6.536   7.258  1.00  0.00    -0.031 A 
HETATM    4  C   UNL     1      66.655   7.528   4.644  1.00  0.00     0.030 A 
HETATM    5  C   UNL     1      67.742   6.912   5.272  1.00  0.00     0.003 A 
HETATM    6  C   UNL     1      67.618   6.416   6.568  1.00  0.00     0.009 A 
ENDROOT
BRANCH   1   7
HETATM    7  N   UNL     1      64.306   8.271   4.669  1.00  0.00    -0.333 N 
HETATM    8  C   UNL     1      63.675   7.832   3.517  1.00  0.00     0.096 A 
HETATM    9  C   UNL     1      62.616   8.664   3.226  1.00  0.00     0.019 A 
HETATM   10  C   UNL     1      62.586   9.662   4.217  1.00  0.00     0.019 A 
HETATM   11  C   UNL     1      63.626   9.404   5.084  1.00  0.00     0.096 A 
ENDBRANCH   1   7
BRANCH   3  12
HETATM   12  C   UNL     1      66.243   5.949   8.637  1.00  0.00     0.268 C 
BRANCH  12  13
HETATM   13  N   UNL     1      66.641   4.547   8.683  1.00  0.00    -0.075 N 
HETATM   14  H   UNL     1      67.521   4.427   8.181  1.00  0.00     0.274 HD
HETATM   15  H   UNL     1      65.919   3.974   8.246  1.00  0.00     0.274 HD
HETATM   16  H   UNL     1      66.762   4.259   9.655  1.00  0.00     0.274 HD
ENDBRANCH  12  13
ENDBRANCH   3  12
TORSDOF 3
ENDMDL
MODEL 6
REMARK VINA RESULT:      -3.9      2.758      5.636
REMARK  3 active torsions:
REMARK  status: ('A' for Active; 'I' for Inactive)
REMARK    1  A    between atoms: N_1  and  C_2 
REMARK    2  A    between atoms: C_8  and  C_12 
REMARK    3  A    between atoms: N_9  and  C_12 
ROOT
HETATM    1  C   UNL     1      61.658   8.817   2.485  1.00  0.00     0.038 A 
HETATM    2  C   UNL     1      60.488   8.046   2.593  1.00  0.00     0.038 A 
HETATM    3  C   UNL     1      60.018   7.278   1.511  1.00  0.00    -0.031 A 
HETATM    4  C   UNL     1      62.370   8.794   1.277  1.00  0.00     0.030 A 
HETATM    5  C   UNL     1      61.919   8.020   0.204  1.00  0.00     0.003 A 
HETATM    6  C   UNL     1      60.749   7.270   0.318  1.00  0.00     0.009 A 
ENDROOT
BRANCH   1   7
HETATM    7  N   UNL     1      62.101   9.625   3.580  1.00  0.00    -0.333 N 
HETATM    8  C   UNL     1      62.855   9.210   4.665  1.00  0.00     0.096 A 
HETATM    9  C   UNL     1      63.105  10.284   5.490  1.00  0.00     0.019 A 
HETATM   10  C   UNL     1      62.481  11.406   4.915  1.00  0.00     0.019 A 
HETATM   11  C   UNL     1      61.873  10.980   3.754  1.00  0.00     0.096 A 
ENDBRANCH   1   7
BRANCH   3  12
HETATM   12  C   UNL     1      58.721   6.520   1.625  1.00  0.00     0.268 C 
BRANCH  12  13
HETATM   13  N   UNL     1      57.712   7.273   2.360  1.00  0.00    -0.075 N 
HETATM   14  H   UNL     1      57.931   8.269   2.316  1.00  0.00     0.274 HD
HETATM   15  H   UNL     1      57.704   6.969   3.334  1.00  0.00     0.274 HD
HETATM   16  H   UNL     1      56.795   7.109   1.945  1.00  0.00     0.274 HD
ENDBRANCH  12  13
ENDBRANCH   3  12
TORSDOF 3
ENDMDL
MODEL 7
REMARK VINA RESULT:      -3.9      9.545     11.476
REMARK  3 active torsions:
REMARK  status: ('A' for Active; 'I' for Inactive)
REMARK    1  A    between atoms: N_1  and  C_2 
REMARK    2  A    between atoms: C_8  and  C_12 
REMARK    3  A    between atoms: N_9  and  C_12 
ROOT
HETATM    1  C   UNL     1      58.351   2.381  11.640  1.00  0.00     0.038 A 
HETATM    2  C   UNL     1      57.024   2.455  12.093  1.00  0.00     0.038 A 
HETATM    3  C   UNL     1      56.672   2.038  13.390  1.00  0.00    -0.031 A 
HETATM    4  C   UNL     1      59.335   1.899  12.515  1.00  0.00     0.030 A 
HETATM    5  C   UNL     1      58.997   1.499  13.811  1.00  0.00     0.003 A 
HETATM    6  C   UNL     1      57.673   1.563  14.245  1.00  0.00     0.009 A 
ENDROOT
BRANCH   1   7
HETATM    7  N   UNL     1      58.687   2.771  10.304  1.00  0.00    -0.333 N 
HETATM    8  C   UNL     1      58.623   4.047   9.772  1.00  0.00     0.096 A 
HETATM    9  C   UNL     1      59.056   4.025   8.465  1.00  0.00     0.019 A 
HETATM   10  C   UNL     1      59.391   2.693   8.160  1.00  0.00     0.019 A 
HETATM   11  C   UNL     1      59.156   1.946   9.295  1.00  0.00     0.096 A 
ENDBRANCH   1   7
BRANCH   3  12
HETATM   12  C   UNL     1      55.230   2.055  13.829  1.00  0.00     0.268 C 
BRANCH  12  13
HETATM   13  N   UNL     1      54.950   3.160  14.737  1.00  0.00    -0.075 N 
HETATM   14  H   UNL     1      55.826   3.596  15.024  1.00  0.00     0.274 HD
HETATM   15  H   UNL     1      54.460   2.808  15.560  1.00  0.00     0.274 HD
HETATM   16  H   UNL     1      54.365   3.850  14.264  1.00  0.00     0.274 HD
ENDBRANCH  12  13
ENDBRANCH   3  12
TORSDOF 3
ENDMDL
MODEL 8
REMARK VINA RESULT:      -3.9      2.204      3.696
REMARK  3 active torsions:
REMARK  status: ('A' for Active; 'I' for Inactive)
REMARK    1  A    between atoms: N_1  and  C_2 
REMARK    2  A    between atoms: C_8  and  C_12 
REMARK    3  A    between atoms: N_9  and  C_12 
ROOT
HETATM    1  C   UNL     1      62.142   8.229   4.417  1.00  0.00     0.038 A 
HETATM    2  C   UNL     1      61.274   7.134   4.274  1.00  0.00     0.038 A 
HETATM    3  C   UNL     1      61.378   6.007   5.112  1.00  0.00    -0.031 A 
HETATM    4  C   UNL     1      63.110   8.193   5.431  1.00  0.00     0.030 A 
HETATM    5  C   UNL     1      63.207   7.085   6.278  1.00  0.00     0.003 A 
HETATM    6  C   UNL     1      62.350   5.997   6.117  1.00  0.00     0.009 A 
ENDROOT
BRANCH   1   7
HETATM    7  N   UNL     1      62.052   9.350   3.531  1.00  0.00    -0.333 N 
HETATM    8  C   UNL     1      62.030   9.313   2.147  1.00  0.00     0.096 A 
HETATM    9  C   UNL     1      61.906  10.592   1.653  1.00  0.00     0.019 A 
HETATM   10  C   UNL     1      61.860  11.462   2.758  1.00  0.00     0.019 A 
HETATM   11  C   UNL     1      61.953  10.684   3.891  1.00  0.00     0.096 A 
ENDBRANCH   1   7
BRANCH   3  12
HETATM   12  C   UNL     1      60.486   4.812   4.890  1.00  0.00     0.268 C 
BRANCH  12  13
HETATM   13  N   UNL     1      59.340   4.814   5.791  1.00  0.00    -0.075 N 
HETATM   14  H   UNL     1      58.897   3.895   5.781  1.00  0.00     0.274 HD
HETATM   15  H   UNL     1      58.668   5.519   5.487  1.00  0.00     0.274 HD
HETATM   16  H   UNL     1      59.652   5.029   6.739  1.00  0.00     0.274 HD
ENDBRANCH  12  13
ENDBRANCH   3  12
TORSDOF 3
ENDMDL
MODEL 9
REMARK VINA RESULT:      -3.9      1.980      5.274
REMARK  3 active torsions:
REMARK  status: ('A' for Active; 'I' for Inactive)
REMARK    1  A    between atoms: N_1  and  C_2 
REMARK    2  A    between atoms: C_8  and  C_12 
REMARK    3  A    between atoms: N_9  and  C_12 
ROOT
HETATM    1  C   UNL     1      64.508   8.033   4.587  1.00  0.00     0.038 A 
HETATM    2  C   UNL     1      64.030   7.344   3.460  1.00  0.00     0.038 A 
HETATM    3  C   UNL     1      62.893   7.789   2.761  1.00  0.00    -0.031 A 
HETATM    4  C   UNL     1      63.839   9.195   4.999  1.00  0.00     0.030 A 
HETATM    5  C   UNL     1      62.718   9.653   4.299  1.00  0.00     0.003 A 
HETATM    6  C   UNL     1      62.246   8.953   3.190  1.00  0.00     0.009 A 
ENDROOT
BRANCH   1   7
HETATM    7  N   UNL     1      65.641   7.545   5.313  1.00  0.00    -0.333 N 
HETATM    8  C   UNL     1      65.638   7.005   6.588  1.00  0.00     0.096 A 
HETATM    9  C   UNL     1      66.917   6.623   6.929  1.00  0.00     0.019 A 
HETATM   10  C   UNL     1      67.751   6.943   5.843  1.00  0.00     0.019 A 
HETATM   11  C   UNL     1      66.952   7.506   4.871  1.00  0.00     0.096 A 
ENDBRANCH   1   7
BRANCH   3  12
HETATM   12  C   UNL     1      62.354   6.992   1.600  1.00  0.00     0.268 C 
BRANCH  12  13
HETATM   13  N   UNL     1      63.359   6.093   1.044  1.00  0.00    -0.075 N 
HETATM   14  H   UNL     1      62.897   5.302   0.596  1.00  0.00     0.274 HD
HETATM   15  H   UNL     1      63.964   5.755   1.792  1.00  0.00     0.274 HD
HETATM   16  H   UNL     1      63.919   6.594   0.354  1.00  0.00     0.274 HD
ENDBRANCH  12  13
ENDBRANCH   3  12
TORSDOF 3
ENDMDL
