MODEL 1
REMARK VINA RESULT:      -5.7      0.000      0.000
REMARK  1 active torsions:
REMARK  status: ('A' for Active; 'I' for Inactive)
REMARK    1  A    between atoms: C_5  and  C_8 
ROOT
HETATM    1  N   UNL     1      65.078   8.463   5.759  1.00  0.00    -0.364 N 
ATOM      2  HN  UNL     1      65.515   9.348   5.502  1.00  0.00     0.165 HD
HETATM    3  N   UNL     1      66.467   4.792   8.549  1.00  0.00    -0.191 NA
HETATM    4  C   UNL     1      65.891   5.498   7.830  1.00  0.00     0.101 C 
HETATM    5  C   UNL     1      63.837   8.138   5.308  1.00  0.00     0.042 A 
HETATM    6  C   UNL     1      65.177   6.364   6.953  1.00  0.00     0.060 A 
HETATM    7  C   UNL     1      65.717   7.577   6.560  1.00  0.00     0.111 A 
HETATM    8  C   UNL     1      63.236   6.925   5.650  1.00  0.00     0.032 A 
HETATM    9  C   UNL     1      63.911   6.032   6.480  1.00  0.00     0.026 A 
ENDROOT
BRANCH   5  10
HETATM   10  C   UNL     1      63.153   9.157   4.489  1.00  0.00    -0.009 A 
HETATM   11  C   UNL     1      62.744   8.900   3.167  1.00  0.00     0.013 A 
HETATM   12  C   UNL     1      62.053   9.857   2.420  1.00  0.00     0.001 A 
HETATM   13  C   UNL     1      61.761  11.098   2.976  1.00  0.00     0.000 A 
HETATM   14  C   UNL     1      62.168  11.386   4.276  1.00  0.00     0.001 A 
HETATM   15  C   UNL     1      62.859  10.427   5.020  1.00  0.00     0.013 A 
ENDBRANCH   5  10
TORSDOF 1
ENDMDL
MODEL 2
REMARK VINA RESULT:      -5.7      0.894      1.883
REMARK  1 active torsions:
REMARK  status: ('A' for Active; 'I' for Inactive)
REMARK    1  A    between atoms: C_5  and  C_8 
ROOT
HETATM    1  N   UNL     1      63.037   7.331   5.657  1.00  0.00    -0.364 N 
ATOM      2  HN  UNL     1      62.031   7.247   5.518  1.00  0.00     0.165 HD
HETATM    3  N   UNL     1      66.197   4.926   8.381  1.00  0.00    -0.191 NA
HETATM    4  C   UNL     1      65.682   5.670   7.653  1.00  0.00     0.101 C 
HETATM    5  C   UNL     1      63.763   8.258   4.976  1.00  0.00     0.042 A 
HETATM    6  C   UNL     1      65.055   6.579   6.754  1.00  0.00     0.060 A 
HETATM    7  C   UNL     1      63.691   6.522   6.525  1.00  0.00     0.111 A 
HETATM    8  C   UNL     1      65.141   8.383   5.167  1.00  0.00     0.032 A 
HETATM    9  C   UNL     1      65.792   7.536   6.062  1.00  0.00     0.026 A 
ENDROOT
BRANCH   5  10
HETATM   10  C   UNL     1      63.022   9.076   3.997  1.00  0.00    -0.009 A 
HETATM   11  C   UNL     1      62.558  10.368   4.305  1.00  0.00     0.013 A 
HETATM   12  C   UNL     1      61.901  11.152   3.352  1.00  0.00     0.001 A 
HETATM   13  C   UNL     1      61.687  10.657   2.070  1.00  0.00     0.000 A 
HETATM   14  C   UNL     1      62.122   9.376   1.742  1.00  0.00     0.001 A 
HETATM   15  C   UNL     1      62.778   8.595   2.697  1.00  0.00     0.013 A 
ENDBRANCH   5  10
TORSDOF 1
ENDMDL
MODEL 3
REMARK VINA RESULT:      -5.0      1.754      6.146
REMARK  1 active torsions:
REMARK  status: ('A' for Active; 'I' for Inactive)
REMARK    1  A    between atoms: C_5  and  C_8 
ROOT
HETATM    1  N   UNL     1      65.519   8.361   6.177  1.00  0.00    -0.364 N 
ATOM      2  HN  UNL     1      66.459   8.699   6.381  1.00  0.00     0.165 HD
HETATM    3  N   UNL     1      61.835  10.186   3.669  1.00  0.00    -0.191 NA
HETATM    4  C   UNL     1      62.523   9.523   4.328  1.00  0.00     0.101 C 
HETATM    5  C   UNL     1      65.099   7.148   6.625  1.00  0.00     0.042 A 
HETATM    6  C   UNL     1      63.367   8.703   5.131  1.00  0.00     0.060 A 
HETATM    7  C   UNL     1      64.652   9.107   5.450  1.00  0.00     0.111 A 
HETATM    8  C   UNL     1      63.810   6.682   6.355  1.00  0.00     0.032 A 
HETATM    9  C   UNL     1      62.938   7.465   5.601  1.00  0.00     0.026 A 
ENDROOT
BRANCH   5  10
HETATM   10  C   UNL     1      66.094   6.343   7.360  1.00  0.00    -0.009 A 
HETATM   11  C   UNL     1      66.465   5.052   6.940  1.00  0.00     0.013 A 
HETATM   12  C   UNL     1      67.445   4.321   7.616  1.00  0.00     0.001 A 
HETATM   13  C   UNL     1      68.070   4.861   8.735  1.00  0.00     0.000 A 
HETATM   14  C   UNL     1      67.711   6.129   9.183  1.00  0.00     0.001 A 
HETATM   15  C   UNL     1      66.731   6.858   8.504  1.00  0.00     0.013 A 
ENDBRANCH   5  10
TORSDOF 1
ENDMDL
MODEL 4
REMARK VINA RESULT:      -4.9      1.787      2.266
REMARK  1 active torsions:
REMARK  status: ('A' for Active; 'I' for Inactive)
REMARK    1  A    between atoms: C_5  and  C_8 
ROOT
HETATM    1  N   UNL     1      63.953   6.918   4.048  1.00  0.00    -0.364 N 
ATOM      2  HN  UNL     1      64.553   7.266   3.300  1.00  0.00     0.165 HD
HETATM    3  N   UNL     1      64.442   3.395   7.294  1.00  0.00    -0.191 NA
HETATM    4  C   UNL     1      64.051   4.272   6.642  1.00  0.00     0.101 C 
HETATM    5  C   UNL     1      62.749   7.496   4.305  1.00  0.00     0.042 A 
HETATM    6  C   UNL     1      63.571   5.354   5.851  1.00  0.00     0.060 A 
HETATM    7  C   UNL     1      64.333   5.868   4.815  1.00  0.00     0.111 A 
HETATM    8  C   UNL     1      61.920   7.021   5.323  1.00  0.00     0.032 A 
HETATM    9  C   UNL     1      62.335   5.942   6.103  1.00  0.00     0.026 A 
ENDROOT
BRANCH   5  10
HETATM   10  C   UNL     1      62.402   8.674   3.486  1.00  0.00    -0.009 A 
HETATM   11  C   UNL     1      62.227   9.950   4.053  1.00  0.00     0.013 A 
HETATM   12  C   UNL     1      61.947  11.066   3.260  1.00  0.00     0.001 A 
HETATM   13  C   UNL     1      61.828  10.929   1.881  1.00  0.00     0.000 A 
HETATM   14  C   UNL     1      61.980   9.675   1.295  1.00  0.00     0.001 A 
HETATM   15  C   UNL     1      62.259   8.562   2.091  1.00  0.00     0.013 A 
ENDBRANCH   5  10
TORSDOF 1
ENDMDL
MODEL 5
REMARK VINA RESULT:      -4.8      2.721      3.277
REMARK  1 active torsions:
REMARK  status: ('A' for Active; 'I' for Inactive)
REMARK    1  A    between atoms: C_5  and  C_8 
ROOT
HETATM    1  N   UNL     1      60.507   6.968   4.466  1.00  0.00    -0.364 N 
ATOM      2  HN  UNL     1      59.775   7.221   3.803  1.00  0.00     0.165 HD
HETATM    3  N   UNL     1      60.981   3.383   7.645  1.00  0.00    -0.191 NA
HETATM    4  C   UNL     1      61.134   4.333   6.996  1.00  0.00     0.101 C 
HETATM    5  C   UNL     1      61.652   7.698   4.555  1.00  0.00     0.042 A 
HETATM    6  C   UNL     1      61.329   5.495   6.196  1.00  0.00     0.060 A 
HETATM    7  C   UNL     1      60.370   5.896   5.283  1.00  0.00     0.111 A 
HETATM    8  C   UNL     1      62.656   7.362   5.465  1.00  0.00     0.032 A 
HETATM    9  C   UNL     1      62.494   6.251   6.291  1.00  0.00     0.026 A 
ENDROOT
BRANCH   5  10
HETATM   10  C   UNL     1      61.787   8.820   3.606  1.00  0.00    -0.009 A 
HETATM   11  C   UNL     1      61.864   8.615   2.216  1.00  0.00     0.013 A 
HETATM   12  C   UNL     1      61.941   9.689   1.325  1.00  0.00     0.001 A 
HETATM   13  C   UNL     1      61.951  10.994   1.807  1.00  0.00     0.000 A 
HETATM   14  C   UNL     1      61.892  11.226   3.178  1.00  0.00     0.001 A 
HETATM   15  C   UNL     1      61.815  10.150   4.065  1.00  0.00     0.013 A 
ENDBRANCH   5  10
TORSDOF 1
ENDMDL
MODEL 6
REMARK VINA RESULT:      -4.6      2.555      3.802
REMARK  1 active torsions:
REMARK  status: ('A' for Active; 'I' for Inactive)
REMARK    1  A    between atoms: C_5  and  C_8 
ROOT
HETATM    1  N   UNL     1      62.927   7.154   3.513  1.00  0.00    -0.364 N 
ATOM      2  HN  UNL     1      62.764   6.306   2.971  1.00  0.00     0.165 HD
HETATM    3  N   UNL     1      66.529   8.596   6.366  1.00  0.00    -0.191 NA
HETATM    4  C   UNL     1      65.539   8.514   5.765  1.00  0.00     0.101 C 
HETATM    5  C   UNL     1      62.034   8.179   3.495  1.00  0.00     0.042 A 
HETATM    6  C   UNL     1      64.328   8.421   5.021  1.00  0.00     0.060 A 
HETATM    7  C   UNL     1      64.042   7.293   4.271  1.00  0.00     0.111 A 
HETATM    8  C   UNL     1      62.249   9.341   4.240  1.00  0.00     0.032 A 
HETATM    9  C   UNL     1      63.406   9.463   5.008  1.00  0.00     0.026 A 
ENDROOT
BRANCH   5  10
HETATM   10  C   UNL     1      60.865   8.012   2.610  1.00  0.00    -0.009 A 
HETATM   11  C   UNL     1      60.929   8.288   1.232  1.00  0.00     0.013 A 
HETATM   12  C   UNL     1      59.829   8.077   0.396  1.00  0.00     0.001 A 
HETATM   13  C   UNL     1      58.636   7.593   0.923  1.00  0.00     0.000 A 
HETATM   14  C   UNL     1      58.540   7.325   2.285  1.00  0.00     0.001 A 
HETATM   15  C   UNL     1      59.642   7.537   3.118  1.00  0.00     0.013 A 
ENDBRANCH   5  10
TORSDOF 1
ENDMDL
MODEL 7
REMARK VINA RESULT:      -4.6      3.464      4.722
REMARK  1 active torsions:
REMARK  status: ('A' for Active; 'I' for Inactive)
REMARK    1  A    between atoms: C_5  and  C_8 
ROOT
HETATM    1  N   UNL     1      61.326   7.118   4.482  1.00  0.00    -0.364 N 
ATOM      2  HN  UNL     1      60.840   6.253   4.718  1.00  0.00     0.165 HD
HETATM    3  N   UNL     1      65.603   8.939   5.737  1.00  0.00    -0.191 NA
HETATM    4  C   UNL     1      64.548   8.765   5.286  1.00  0.00     0.101 C 
HETATM    5  C   UNL     1      60.774   8.020   3.627  1.00  0.00     0.042 A 
HETATM    6  C   UNL     1      63.257   8.551   4.724  1.00  0.00     0.060 A 
HETATM    7  C   UNL     1      62.541   7.401   5.010  1.00  0.00     0.111 A 
HETATM    8  C   UNL     1      61.431   9.209   3.305  1.00  0.00     0.032 A 
HETATM    9  C   UNL     1      62.683   9.476   3.857  1.00  0.00     0.026 A 
ENDROOT
BRANCH   5  10
HETATM   10  C   UNL     1      59.479   7.644   3.028  1.00  0.00    -0.009 A 
HETATM   11  C   UNL     1      59.316   7.494   1.639  1.00  0.00     0.013 A 
HETATM   12  C   UNL     1      58.097   7.089   1.089  1.00  0.00     0.001 A 
HETATM   13  C   UNL     1      57.009   6.834   1.917  1.00  0.00     0.000 A 
HETATM   14  C   UNL     1      57.137   6.990   3.294  1.00  0.00     0.001 A 
HETATM   15  C   UNL     1      58.357   7.395   3.841  1.00  0.00     0.013 A 
ENDBRANCH   5  10
TORSDOF 1
ENDMDL
MODEL 8
REMARK VINA RESULT:      -4.5      4.749      5.803
REMARK  1 active torsions:
REMARK  status: ('A' for Active; 'I' for Inactive)
REMARK    1  A    between atoms: C_5  and  C_8 
ROOT
HETATM    1  N   UNL     1      59.917   6.520   4.879  1.00  0.00    -0.364 N 
ATOM      2  HN  UNL     1      60.908   6.286   4.826  1.00  0.00     0.165 HD
HETATM    3  N   UNL     1      56.430   5.396   8.004  1.00  0.00    -0.191 NA
HETATM    4  C   UNL     1      57.042   5.807   7.107  1.00  0.00     0.101 C 
HETATM    5  C   UNL     1      59.338   7.327   3.950  1.00  0.00     0.042 A 
HETATM    6  C   UNL     1      57.791   6.320   6.010  1.00  0.00     0.060 A 
HETATM    7  C   UNL     1      59.139   6.035   5.876  1.00  0.00     0.111 A 
HETATM    8  C   UNL     1      57.980   7.645   4.012  1.00  0.00     0.032 A 
HETATM    9  C   UNL     1      57.200   7.139   5.051  1.00  0.00     0.026 A 
ENDROOT
BRANCH   5  10
HETATM   10  C   UNL     1      60.234   7.881   2.917  1.00  0.00    -0.009 A 
HETATM   11  C   UNL     1      60.085   7.566   1.554  1.00  0.00     0.013 A 
HETATM   12  C   UNL     1      60.909   8.137   0.580  1.00  0.00     0.001 A 
HETATM   13  C   UNL     1      61.908   9.031   0.950  1.00  0.00     0.000 A 
HETATM   14  C   UNL     1      62.089   9.349   2.293  1.00  0.00     0.001 A 
HETATM   15  C   UNL     1      61.263   8.776   3.264  1.00  0.00     0.013 A 
ENDBRANCH   5  10
TORSDOF 1
ENDMDL
MODEL 9
REMARK VINA RESULT:      -4.4      2.916      6.192
REMARK  1 active torsions:
REMARK  status: ('A' for Active; 'I' for Inactive)
REMARK    1  A    between atoms: C_5  and  C_8 
ROOT
HETATM    1  N   UNL     1      61.113   7.411   4.023  1.00  0.00    -0.364 N 
ATOM      2  HN  UNL     1      60.481   6.664   3.738  1.00  0.00     0.165 HD
HETATM    3  N   UNL     1      61.904  11.864   2.368  1.00  0.00    -0.191 NA
HETATM    4  C   UNL     1      61.939  10.865   2.957  1.00  0.00     0.101 C 
HETATM    5  C   UNL     1      61.941   7.260   5.091  1.00  0.00     0.042 A 
HETATM    6  C   UNL     1      61.979   9.643   3.688  1.00  0.00     0.060 A 
HETATM    7  C   UNL     1      61.152   8.586   3.348  1.00  0.00     0.111 A 
HETATM    8  C   UNL     1      62.814   8.277   5.482  1.00  0.00     0.032 A 
HETATM    9  C   UNL     1      62.832   9.479   4.776  1.00  0.00     0.026 A 
ENDROOT
BRANCH   5  10
HETATM   10  C   UNL     1      61.823   5.989   5.833  1.00  0.00    -0.009 A 
HETATM   11  C   UNL     1      62.867   5.046   5.866  1.00  0.00     0.013 A 
HETATM   12  C   UNL     1      62.761   3.870   6.614  1.00  0.00     0.001 A 
HETATM   13  C   UNL     1      61.604   3.607   7.338  1.00  0.00     0.000 A 
HETATM   14  C   UNL     1      60.549   4.514   7.310  1.00  0.00     0.001 A 
HETATM   15  C   UNL     1      60.658   5.689   6.562  1.00  0.00     0.013 A 
ENDBRANCH   5  10
TORSDOF 1
ENDMDL
