MODEL 1
REMARK VINA RESULT:      -5.4      0.000      0.000
REMARK  2 active torsions:
REMARK  status: ('A' for Active; 'I' for Inactive)
REMARK    1  A    between atoms: N_1  and  C_3 
REMARK    2  A    between atoms: C_2  and  C_4 
ROOT
HETATM    1  C   UNL     1      63.898   8.059   4.560  1.00  0.00     0.039 A 
HETATM    2  C   UNL     1      62.566   9.776   3.468  1.00  0.00     0.043 A 
HETATM    3  C   UNL     1      63.349   9.350   4.548  1.00  0.00     0.048 A 
HETATM    4  C   UNL     1      63.620   7.190   3.495  1.00  0.00     0.030 A 
HETATM    5  C   UNL     1      62.291   8.896   2.416  1.00  0.00     0.018 A 
HETATM    6  C   UNL     1      62.814   7.605   2.433  1.00  0.00     0.003 A 
ENDROOT
BRANCH   1   7
HETATM    7  N   UNL     1      64.746   7.647   5.633  1.00  0.00    -0.333 N 
HETATM    8  C   UNL     1      64.454   6.704   6.601  1.00  0.00     0.096 A 
HETATM    9  C   UNL     1      65.527   6.577   7.454  1.00  0.00     0.019 A 
HETATM   10  C   UNL     1      66.519   7.470   7.012  1.00  0.00     0.019 A 
HETATM   11  C   UNL     1      66.026   8.105   5.894  1.00  0.00     0.096 A 
ENDBRANCH   1   7
BRANCH   2  12
HETATM   12  C   UNL     1      62.046  11.160   3.385  1.00  0.00     0.209 C 
HETATM   13  O   UNL     1      61.809  11.772   2.357  1.00  0.00    -0.644 OA
HETATM   14  O   UNL     1      61.882  11.735   4.590  1.00  0.00    -0.644 OA
ENDBRANCH   2  12
TORSDOF 2
ENDMDL
MODEL 2
REMARK VINA RESULT:      -5.4      1.515      2.051
REMARK  2 active torsions:
REMARK  status: ('A' for Active; 'I' for Inactive)
REMARK    1  A    between atoms: N_1  and  C_3 
REMARK    2  A    between atoms: C_2  and  C_4 
ROOT
HETATM    1  C   UNL     1      64.733   7.732   4.602  1.00  0.00     0.039 A 
HETATM    2  C   UNL     1      63.212   9.628   4.715  1.00  0.00     0.043 A 
HETATM    3  C   UNL     1      64.315   8.924   5.214  1.00  0.00     0.048 A 
HETATM    4  C   UNL     1      64.006   7.237   3.508  1.00  0.00     0.030 A 
HETATM    5  C   UNL     1      62.493   9.118   3.628  1.00  0.00     0.018 A 
HETATM    6  C   UNL     1      62.887   7.923   3.031  1.00  0.00     0.003 A 
ENDROOT
BRANCH   1   7
HETATM    7  N   UNL     1      65.894   7.048   5.074  1.00  0.00    -0.333 N 
HETATM    8  C   UNL     1      66.843   7.540   5.951  1.00  0.00     0.096 A 
HETATM    9  C   UNL     1      67.803   6.580   6.171  1.00  0.00     0.019 A 
HETATM   10  C   UNL     1      67.450   5.454   5.406  1.00  0.00     0.019 A 
HETATM   11  C   UNL     1      66.277   5.758   4.753  1.00  0.00     0.096 A 
ENDBRANCH   1   7
BRANCH   2  12
HETATM   12  C   UNL     1      62.801  10.932   5.284  1.00  0.00     0.209 C 
HETATM   13  O   UNL     1      63.122  11.364   6.378  1.00  0.00    -0.644 OA
HETATM   14  O   UNL     1      61.974  11.621   4.478  1.00  0.00    -0.644 OA
ENDBRANCH   2  12
TORSDOF 2
ENDMDL
MODEL 3
REMARK VINA RESULT:      -5.3      2.893      5.297
REMARK  2 active torsions:
REMARK  status: ('A' for Active; 'I' for Inactive)
REMARK    1  A    between atoms: N_1  and  C_3 
REMARK    2  A    between atoms: C_2  and  C_4 
ROOT
HETATM    1  C   UNL     1      62.984   8.451   4.495  1.00  0.00     0.039 A 
HETATM    2  C   UNL     1      64.779   7.575   5.883  1.00  0.00     0.043 A 
HETATM    3  C   UNL     1      64.322   8.476   4.913  1.00  0.00     0.048 A 
HETATM    4  C   UNL     1      62.119   7.486   5.033  1.00  0.00     0.030 A 
HETATM    5  C   UNL     1      63.907   6.614   6.407  1.00  0.00     0.018 A 
HETATM    6  C   UNL     1      62.582   6.567   5.978  1.00  0.00     0.003 A 
ENDROOT
BRANCH   1   7
HETATM    7  N   UNL     1      62.506   9.409   3.550  1.00  0.00    -0.333 N 
HETATM    8  C   UNL     1      62.145  10.718   3.812  1.00  0.00     0.096 A 
HETATM    9  C   UNL     1      61.747  11.326   2.643  1.00  0.00     0.019 A 
HETATM   10  C   UNL     1      61.855  10.368   1.618  1.00  0.00     0.019 A 
HETATM   11  C   UNL     1      62.330   9.210   2.192  1.00  0.00     0.096 A 
ENDBRANCH   1   7
BRANCH   2  12
HETATM   12  C   UNL     1      66.162   7.634   6.408  1.00  0.00     0.209 C 
HETATM   13  O   UNL     1      66.894   6.677   6.594  1.00  0.00    -0.644 OA
HETATM   14  O   UNL     1      66.556   8.882   6.716  1.00  0.00    -0.644 OA
ENDBRANCH   2  12
TORSDOF 2
ENDMDL
MODEL 4
REMARK VINA RESULT:      -5.2      1.772      2.618
REMARK  2 active torsions:
REMARK  status: ('A' for Active; 'I' for Inactive)
REMARK    1  A    between atoms: N_1  and  C_3 
REMARK    2  A    between atoms: C_2  and  C_4 
ROOT
HETATM    1  C   UNL     1      63.491   8.959   4.725  1.00  0.00     0.039 A 
HETATM    2  C   UNL     1      62.257   9.376   2.671  1.00  0.00     0.043 A 
HETATM    3  C   UNL     1      63.088   8.555   3.444  1.00  0.00     0.048 A 
HETATM    4  C   UNL     1      63.082  10.212   5.206  1.00  0.00     0.030 A 
HETATM    5  C   UNL     1      61.862  10.626   3.160  1.00  0.00     0.018 A 
HETATM    6  C   UNL     1      62.279  11.044   4.422  1.00  0.00     0.003 A 
ENDROOT
BRANCH   1   7
HETATM    7  N   UNL     1      64.289   8.094   5.536  1.00  0.00    -0.333 N 
HETATM    8  C   UNL     1      65.651   8.189   5.751  1.00  0.00     0.096 A 
HETATM    9  C   UNL     1      66.051   7.181   6.598  1.00  0.00     0.019 A 
HETATM   10  C   UNL     1      64.907   6.428   6.920  1.00  0.00     0.019 A 
HETATM   11  C   UNL     1      63.842   7.010   6.269  1.00  0.00     0.096 A 
ENDBRANCH   1   7
BRANCH   2  12
HETATM   12  C   UNL     1      61.743   8.940   1.353  1.00  0.00     0.209 C 
HETATM   13  O   UNL     1      62.359   8.977   0.301  1.00  0.00    -0.644 OA
HETATM   14  O   UNL     1      60.469   8.513   1.398  1.00  0.00    -0.644 OA
ENDBRANCH   2  12
TORSDOF 2
ENDMDL
MODEL 5
REMARK VINA RESULT:      -4.8      3.661      5.931
REMARK  2 active torsions:
REMARK  status: ('A' for Active; 'I' for Inactive)
REMARK    1  A    between atoms: N_1  and  C_3 
REMARK    2  A    between atoms: C_2  and  C_4 
ROOT
HETATM    1  C   UNL     1      65.493   7.615   5.323  1.00  0.00     0.039 A 
HETATM    2  C   UNL     1      66.462   6.549   7.283  1.00  0.00     0.043 A 
HETATM    3  C   UNL     1      65.373   7.152   6.642  1.00  0.00     0.048 A 
HETATM    4  C   UNL     1      66.731   7.502   4.671  1.00  0.00     0.030 A 
HETATM    5  C   UNL     1      67.692   6.449   6.623  1.00  0.00     0.018 A 
HETATM    6  C   UNL     1      67.825   6.929   5.322  1.00  0.00     0.003 A 
ENDROOT
BRANCH   1   7
HETATM    7  N   UNL     1      64.364   8.174   4.650  1.00  0.00    -0.333 N 
HETATM    8  C   UNL     1      63.750   7.676   3.516  1.00  0.00     0.096 A 
HETATM    9  C   UNL     1      62.690   8.487   3.177  1.00  0.00     0.019 A 
HETATM   10  C   UNL     1      62.642   9.527   4.124  1.00  0.00     0.019 A 
HETATM   11  C   UNL     1      63.665   9.310   5.019  1.00  0.00     0.096 A 
ENDBRANCH   1   7
BRANCH   2  12
HETATM   12  C   UNL     1      66.342   5.971   8.641  1.00  0.00     0.209 C 
HETATM   13  O   UNL     1      66.396   6.595   9.688  1.00  0.00    -0.644 OA
HETATM   14  O   UNL     1      66.199   4.634   8.635  1.00  0.00    -0.644 OA
ENDBRANCH   2  12
TORSDOF 2
ENDMDL
MODEL 6
REMARK VINA RESULT:      -4.7      3.017      4.679
REMARK  2 active torsions:
REMARK  status: ('A' for Active; 'I' for Inactive)
REMARK    1  A    between atoms: N_1  and  C_3 
REMARK    2  A    between atoms: C_2  and  C_4 
ROOT
HETATM    1  C   UNL     1      62.178   8.463   2.089  1.00  0.00     0.039 A 
HETATM    2  C   UNL     1      62.475   9.864   4.056  1.00  0.00     0.043 A 
HETATM    3  C   UNL     1      62.484   8.600   3.451  1.00  0.00     0.048 A 
HETATM    4  C   UNL     1      61.826   9.603   1.351  1.00  0.00     0.030 A 
HETATM    5  C   UNL     1      62.115  10.991   3.309  1.00  0.00     0.018 A 
HETATM    6  C   UNL     1      61.787  10.858   1.962  1.00  0.00     0.003 A 
ENDROOT
BRANCH   1   7
HETATM    7  N   UNL     1      62.247   7.182   1.461  1.00  0.00    -0.333 N 
HETATM    8  C   UNL     1      63.368   6.381   1.339  1.00  0.00     0.096 A 
HETATM    9  C   UNL     1      63.031   5.220   0.682  1.00  0.00     0.019 A 
HETATM   10  C   UNL     1      61.659   5.296   0.378  1.00  0.00     0.019 A 
HETATM   11  C   UNL     1      61.200   6.496   0.872  1.00  0.00     0.096 A 
ENDBRANCH   1   7
BRANCH   2  12
HETATM   12  C   UNL     1      62.878  10.052   5.468  1.00  0.00     0.209 C 
HETATM   13  O   UNL     1      63.115  11.121   6.005  1.00  0.00    -0.644 OA
HETATM   14  O   UNL     1      63.007   8.893   6.138  1.00  0.00    -0.644 OA
ENDBRANCH   2  12
TORSDOF 2
ENDMDL
MODEL 7
REMARK VINA RESULT:      -4.7      2.930      5.451
REMARK  2 active torsions:
REMARK  status: ('A' for Active; 'I' for Inactive)
REMARK    1  A    between atoms: N_1  and  C_3 
REMARK    2  A    between atoms: C_2  and  C_4 
ROOT
HETATM    1  C   UNL     1      62.070   8.925   3.100  1.00  0.00     0.039 A 
HETATM    2  C   UNL     1      63.904   8.914   4.698  1.00  0.00     0.043 A 
HETATM    3  C   UNL     1      63.160   8.276   3.697  1.00  0.00     0.048 A 
HETATM    4  C   UNL     1      61.711  10.207   3.546  1.00  0.00     0.030 A 
HETATM    5  C   UNL     1      63.531  10.189   5.138  1.00  0.00     0.018 A 
HETATM    6  C   UNL     1      62.434  10.830   4.566  1.00  0.00     0.003 A 
ENDROOT
BRANCH   1   7
HETATM    7  N   UNL     1      61.351   8.297   2.037  1.00  0.00    -0.333 N 
HETATM    8  C   UNL     1      61.885   7.522   1.024  1.00  0.00     0.096 A 
HETATM    9  C   UNL     1      60.872   7.087   0.200  1.00  0.00     0.019 A 
HETATM   10  C   UNL     1      59.668   7.609   0.707  1.00  0.00     0.019 A 
HETATM   11  C   UNL     1      59.983   8.335   1.834  1.00  0.00     0.096 A 
ENDBRANCH   1   7
BRANCH   2  12
HETATM   12  C   UNL     1      65.111   8.290   5.285  1.00  0.00     0.209 C 
HETATM   13  O   UNL     1      65.538   7.179   5.023  1.00  0.00    -0.644 OA
HETATM   14  O   UNL     1      65.711   9.067   6.205  1.00  0.00    -0.644 OA
ENDBRANCH   2  12
TORSDOF 2
ENDMDL
MODEL 8
REMARK VINA RESULT:      -4.5      3.194      5.303
REMARK  2 active torsions:
REMARK  status: ('A' for Active; 'I' for Inactive)
REMARK    1  A    between atoms: N_1  and  C_3 
REMARK    2  A    between atoms: C_2  and  C_4 
ROOT
HETATM    1  C   UNL     1      64.135   8.102   4.282  1.00  0.00     0.039 A 
HETATM    2  C   UNL     1      65.846   7.006   5.619  1.00  0.00     0.043 A 
HETATM    3  C   UNL     1      65.023   8.111   5.368  1.00  0.00     0.048 A 
HETATM    4  C   UNL     1      64.112   6.988   3.429  1.00  0.00     0.030 A 
HETATM    5  C   UNL     1      65.818   5.905   4.756  1.00  0.00     0.018 A 
HETATM    6  C   UNL     1      64.956   5.900   3.662  1.00  0.00     0.003 A 
ENDROOT
BRANCH   1   7
HETATM    7  N   UNL     1      63.253   9.204   4.064  1.00  0.00    -0.333 N 
HETATM    8  C   UNL     1      63.009  10.251   4.933  1.00  0.00     0.096 A 
HETATM    9  C   UNL     1      62.108  11.119   4.361  1.00  0.00     0.019 A 
HETATM   10  C   UNL     1      61.772  10.599   3.097  1.00  0.00     0.019 A 
HETATM   11  C   UNL     1      62.490   9.436   2.933  1.00  0.00     0.096 A 
ENDBRANCH   1   7
BRANCH   2  12
HETATM   12  C   UNL     1      66.729   6.949   6.806  1.00  0.00     0.209 C 
HETATM   13  O   UNL     1      66.502   7.463   7.889  1.00  0.00    -0.644 OA
HETATM   14  O   UNL     1      67.878   6.288   6.578  1.00  0.00    -0.644 OA
ENDBRANCH   2  12
TORSDOF 2
ENDMDL
MODEL 9
REMARK VINA RESULT:      -4.4      3.061      4.839
REMARK  2 active torsions:
REMARK  status: ('A' for Active; 'I' for Inactive)
REMARK    1  A    between atoms: N_1  and  C_3 
REMARK    2  A    between atoms: C_2  and  C_4 
ROOT
HETATM    1  C   UNL     1      60.905   7.643   3.655  1.00  0.00     0.039 A 
HETATM    2  C   UNL     1      61.983   9.820   3.526  1.00  0.00     0.043 A 
HETATM    3  C   UNL     1      60.907   8.977   3.222  1.00  0.00     0.048 A 
HETATM    4  C   UNL     1      62.014   7.154   4.362  1.00  0.00     0.030 A 
HETATM    5  C   UNL     1      63.085   9.317   4.227  1.00  0.00     0.018 A 
HETATM    6  C   UNL     1      63.101   7.987   4.638  1.00  0.00     0.003 A 
ENDROOT
BRANCH   1   7
HETATM    7  N   UNL     1      59.780   6.803   3.396  1.00  0.00    -0.333 N 
HETATM    8  C   UNL     1      58.523   6.908   3.963  1.00  0.00     0.096 A 
HETATM    9  C   UNL     1      57.707   5.924   3.453  1.00  0.00     0.019 A 
HETATM   10  C   UNL     1      58.476   5.176   2.543  1.00  0.00     0.019 A 
HETATM   11  C   UNL     1      59.733   5.736   2.516  1.00  0.00     0.096 A 
ENDBRANCH   1   7
BRANCH   2  12
HETATM   12  C   UNL     1      61.974  11.255   3.160  1.00  0.00     0.209 C 
HETATM   13  O   UNL     1      61.984  11.700   2.025  1.00  0.00    -0.644 OA
HETATM   14  O   UNL     1      61.995  12.071   4.228  1.00  0.00    -0.644 OA
ENDBRANCH   2  12
TORSDOF 2
ENDMDL
