MODEL 1
REMARK VINA RESULT:      -4.6      0.000      0.000
REMARK  2 active torsions:
REMARK  status: ('A' for Active; 'I' for Inactive)
REMARK    1  A    between atoms: N_1  and  C_2 
REMARK    2  A    between atoms: C_8  and  N_9 
ROOT
HETATM    1  C   UNL     1      63.303   9.100   4.587  1.00  0.00     0.040 A 
HETATM    2  C   UNL     1      62.924   8.784   3.271  1.00  0.00     0.058 A 
HETATM    3  C   UNL     1      62.131   9.658   2.517  1.00  0.00     0.027 A 
HETATM    4  C   UNL     1      62.922  10.339   5.119  1.00  0.00     0.030 A 
HETATM    5  C   UNL     1      62.199  11.246   4.342  1.00  0.00     0.004 A 
HETATM    6  C   UNL     1      61.823  10.912   3.042  1.00  0.00     0.029 A 
ENDROOT
BRANCH   1   7
HETATM    7  N   UNL     1      64.068   8.176   5.368  1.00  0.00    -0.333 N 
HETATM    8  C   UNL     1      63.579   7.120   6.118  1.00  0.00     0.096 A 
HETATM    9  C   UNL     1      64.625   6.471   6.736  1.00  0.00     0.019 A 
HETATM   10  C   UNL     1      65.807   7.138   6.365  1.00  0.00     0.019 A 
HETATM   11  C   UNL     1      65.444   8.171   5.529  1.00  0.00     0.096 A 
ENDBRANCH   1   7
BRANCH   3  12
HETATM   12  N   UNL     1      61.843   9.367   1.176  1.00  0.00    -0.399 N 
HETATM   13  H   UNL     1      62.238   8.573   0.749  1.00  0.00     0.156 HD
HETATM   14  H   UNL     1      61.247   9.957   0.662  1.00  0.00     0.156 HD
ENDBRANCH   3  12
TORSDOF 2
ENDMDL
MODEL 2
REMARK VINA RESULT:      -4.5      2.083      3.237
REMARK  2 active torsions:
REMARK  status: ('A' for Active; 'I' for Inactive)
REMARK    1  A    between atoms: N_1  and  C_2 
REMARK    2  A    between atoms: C_8  and  N_9 
ROOT
HETATM    1  C   UNL     1      63.034   8.907   3.575  1.00  0.00     0.040 A 
HETATM    2  C   UNL     1      63.353   9.470   4.823  1.00  0.00     0.058 A 
HETATM    3  C   UNL     1      62.943  10.766   5.159  1.00  0.00     0.027 A 
HETATM    4  C   UNL     1      62.242   9.646   2.686  1.00  0.00     0.030 A 
HETATM    5  C   UNL     1      61.764  10.907   3.050  1.00  0.00     0.004 A 
HETATM    6  C   UNL     1      62.098  11.453   4.288  1.00  0.00     0.029 A 
ENDROOT
BRANCH   1   7
HETATM    7  N   UNL     1      63.505   7.604   3.221  1.00  0.00    -0.333 N 
HETATM    8  C   UNL     1      64.641   6.974   3.698  1.00  0.00     0.096 A 
HETATM    9  C   UNL     1      64.762   5.734   3.110  1.00  0.00     0.019 A 
HETATM   10  C   UNL     1      63.671   5.580   2.236  1.00  0.00     0.019 A 
HETATM   11  C   UNL     1      62.917   6.728   2.322  1.00  0.00     0.096 A 
ENDBRANCH   1   7
BRANCH   3  12
HETATM   12  N   UNL     1      63.190  11.272   6.443  1.00  0.00    -0.399 N 
HETATM   13  H   UNL     1      62.452  11.651   6.973  1.00  0.00     0.156 HD
HETATM   14  H   UNL     1      64.101  11.248   6.814  1.00  0.00     0.156 HD
ENDBRANCH   3  12
TORSDOF 2
ENDMDL
MODEL 3
REMARK VINA RESULT:      -4.5      1.274      4.979
REMARK  2 active torsions:
REMARK  status: ('A' for Active; 'I' for Inactive)
REMARK    1  A    between atoms: N_1  and  C_2 
REMARK    2  A    between atoms: C_8  and  N_9 
ROOT
HETATM    1  C   UNL     1      64.000   8.336   5.223  1.00  0.00     0.040 A 
HETATM    2  C   UNL     1      65.378   8.583   5.342  1.00  0.00     0.058 A 
HETATM    3  C   UNL     1      66.180   7.816   6.197  1.00  0.00     0.027 A 
HETATM    4  C   UNL     1      63.444   7.264   5.933  1.00  0.00     0.030 A 
HETATM    5  C   UNL     1      64.255   6.448   6.725  1.00  0.00     0.004 A 
HETATM    6  C   UNL     1      65.619   6.713   6.838  1.00  0.00     0.029 A 
ENDROOT
BRANCH   1   7
HETATM    7  N   UNL     1      63.180   9.160   4.388  1.00  0.00    -0.333 N 
HETATM    8  C   UNL     1      62.655  10.401   4.706  1.00  0.00     0.096 A 
HETATM    9  C   UNL     1      61.909  10.870   3.648  1.00  0.00     0.019 A 
HETATM   10  C   UNL     1      61.966   9.897   2.634  1.00  0.00     0.019 A 
HETATM   11  C   UNL     1      62.747   8.865   3.105  1.00  0.00     0.096 A 
ENDBRANCH   1   7
BRANCH   3  12
HETATM   12  N   UNL     1      67.567   8.017   6.229  1.00  0.00    -0.399 N 
HETATM   13  H   UNL     1      67.972   8.535   6.961  1.00  0.00     0.156 HD
HETATM   14  H   UNL     1      68.135   7.641   5.520  1.00  0.00     0.156 HD
ENDBRANCH   3  12
TORSDOF 2
ENDMDL
MODEL 4
REMARK VINA RESULT:      -4.4      1.417      1.983
REMARK  2 active torsions:
REMARK  status: ('A' for Active; 'I' for Inactive)
REMARK    1  A    between atoms: N_1  and  C_2 
REMARK    2  A    between atoms: C_8  and  N_9 
ROOT
HETATM    1  C   UNL     1      63.674   8.683   4.768  1.00  0.00     0.040 A 
HETATM    2  C   UNL     1      63.301   9.992   5.118  1.00  0.00     0.058 A 
HETATM    3  C   UNL     1      62.522  10.777   4.259  1.00  0.00     0.027 A 
HETATM    4  C   UNL     1      63.202   8.148   3.562  1.00  0.00     0.030 A 
HETATM    5  C   UNL     1      62.360   8.900   2.740  1.00  0.00     0.004 A 
HETATM    6  C   UNL     1      62.008  10.200   3.099  1.00  0.00     0.029 A 
ENDROOT
BRANCH   1   7
HETATM    7  N   UNL     1      64.515   7.909   5.629  1.00  0.00    -0.333 N 
HETATM    8  C   UNL     1      64.133   6.838   6.419  1.00  0.00     0.096 A 
HETATM    9  C   UNL     1      65.225   6.366   7.113  1.00  0.00     0.019 A 
HETATM   10  C   UNL     1      66.326   7.162   6.750  1.00  0.00     0.019 A 
HETATM   11  C   UNL     1      65.872   8.094   5.843  1.00  0.00     0.096 A 
ENDBRANCH   1   7
BRANCH   3  12
HETATM   12  N   UNL     1      62.081  12.043   4.668  1.00  0.00    -0.399 N 
HETATM   13  H   UNL     1      61.897  12.216   5.620  1.00  0.00     0.156 HD
HETATM   14  H   UNL     1      61.957  12.759   4.005  1.00  0.00     0.156 HD
ENDBRANCH   3  12
TORSDOF 2
ENDMDL
MODEL 5
REMARK VINA RESULT:      -3.9      1.002      1.045
REMARK  2 active torsions:
REMARK  status: ('A' for Active; 'I' for Inactive)
REMARK    1  A    between atoms: N_1  and  C_2 
REMARK    2  A    between atoms: C_8  and  N_9 
ROOT
HETATM    1  C   UNL     1      63.580   8.596   5.093  1.00  0.00     0.040 A 
HETATM    2  C   UNL     1      62.835   7.986   4.070  1.00  0.00     0.058 A 
HETATM    3  C   UNL     1      61.811   8.676   3.409  1.00  0.00     0.027 A 
HETATM    4  C   UNL     1      63.321   9.938   5.407  1.00  0.00     0.030 A 
HETATM    5  C   UNL     1      62.356  10.653   4.695  1.00  0.00     0.004 A 
HETATM    6  C   UNL     1      61.620  10.029   3.690  1.00  0.00     0.029 A 
ENDROOT
BRANCH   1   7
HETATM    7  N   UNL     1      64.587   7.864   5.799  1.00  0.00    -0.333 N 
HETATM    8  C   UNL     1      64.411   6.694   6.519  1.00  0.00     0.096 A 
HETATM    9  C   UNL     1      65.614   6.305   7.064  1.00  0.00     0.019 A 
HETATM   10  C   UNL     1      66.575   7.257   6.677  1.00  0.00     0.019 A 
HETATM   11  C   UNL     1      65.928   8.196   5.906  1.00  0.00     0.096 A 
ENDBRANCH   1   7
BRANCH   3  12
HETATM   12  N   UNL     1      61.145   8.082   2.328  1.00  0.00    -0.399 N 
HETATM   13  H   UNL     1      61.532   8.132   1.424  1.00  0.00     0.156 HD
HETATM   14  H   UNL     1      60.292   7.615   2.473  1.00  0.00     0.156 HD
ENDBRANCH   3  12
TORSDOF 2
ENDMDL
MODEL 6
REMARK VINA RESULT:      -3.8      1.839      4.528
REMARK  2 active torsions:
REMARK  status: ('A' for Active; 'I' for Inactive)
REMARK    1  A    between atoms: N_1  and  C_2 
REMARK    2  A    between atoms: C_8  and  N_9 
ROOT
HETATM    1  C   UNL     1      62.174   9.136   3.323  1.00  0.00     0.040 A 
HETATM    2  C   UNL     1      63.199   8.511   4.054  1.00  0.00     0.058 A 
HETATM    3  C   UNL     1      63.891   9.195   5.060  1.00  0.00     0.027 A 
HETATM    4  C   UNL     1      61.812  10.448   3.658  1.00  0.00     0.030 A 
HETATM    5  C   UNL     1      62.446  11.106   4.714  1.00  0.00     0.004 A 
HETATM    6  C   UNL     1      63.467  10.473   5.422  1.00  0.00     0.029 A 
ENDROOT
BRANCH   1   7
HETATM    7  N   UNL     1      61.510   8.446   2.260  1.00  0.00    -0.333 N 
HETATM    8  C   UNL     1      60.460   7.551   2.380  1.00  0.00     0.096 A 
HETATM    9  C   UNL     1      60.104   7.089   1.132  1.00  0.00     0.019 A 
HETATM   10  C   UNL     1      60.955   7.710   0.200  1.00  0.00     0.019 A 
HETATM   11  C   UNL     1      61.801   8.533   0.908  1.00  0.00     0.096 A 
ENDBRANCH   1   7
BRANCH   3  12
HETATM   12  N   UNL     1      64.844   8.524   5.840  1.00  0.00    -0.399 N 
HETATM   13  H   UNL     1      65.147   8.916   6.691  1.00  0.00     0.156 HD
HETATM   14  H   UNL     1      65.208   7.662   5.538  1.00  0.00     0.156 HD
ENDBRANCH   3  12
TORSDOF 2
ENDMDL
MODEL 7
REMARK VINA RESULT:      -3.6      9.666     11.893
REMARK  2 active torsions:
REMARK  status: ('A' for Active; 'I' for Inactive)
REMARK    1  A    between atoms: N_1  and  C_2 
REMARK    2  A    between atoms: C_8  and  N_9 
ROOT
HETATM    1  C   UNL     1      57.892   2.581  11.591  1.00  0.00     0.040 A 
HETATM    2  C   UNL     1      56.747   2.507  12.402  1.00  0.00     0.058 A 
HETATM    3  C   UNL     1      56.803   1.949  13.685  1.00  0.00     0.027 A 
HETATM    4  C   UNL     1      59.116   2.138  12.111  1.00  0.00     0.030 A 
HETATM    5  C   UNL     1      59.191   1.655  13.419  1.00  0.00     0.004 A 
HETATM    6  C   UNL     1      58.043   1.580  14.206  1.00  0.00     0.029 A 
ENDROOT
BRANCH   1   7
HETATM    7  N   UNL     1      57.812   3.104  10.261  1.00  0.00    -0.333 N 
HETATM    8  C   UNL     1      58.696   3.984   9.660  1.00  0.00     0.096 A 
HETATM    9  C   UNL     1      58.271   4.261   8.380  1.00  0.00     0.019 A 
HETATM   10  C   UNL     1      57.085   3.534   8.168  1.00  0.00     0.019 A 
HETATM   11  C   UNL     1      56.826   2.835   9.325  1.00  0.00     0.096 A 
ENDBRANCH   1   7
BRANCH   3  12
HETATM   12  N   UNL     1      55.672   1.971  14.512  1.00  0.00    -0.399 N 
HETATM   13  H   UNL     1      55.554   1.280  15.203  1.00  0.00     0.156 HD
HETATM   14  H   UNL     1      54.996   2.678  14.403  1.00  0.00     0.156 HD
ENDBRANCH   3  12
TORSDOF 2
ENDMDL
MODEL 8
REMARK VINA RESULT:      -3.6      2.047      5.240
REMARK  2 active torsions:
REMARK  status: ('A' for Active; 'I' for Inactive)
REMARK    1  A    between atoms: N_1  and  C_2 
REMARK    2  A    between atoms: C_8  and  N_9 
ROOT
HETATM    1  C   UNL     1      63.567   7.466   3.255  1.00  0.00     0.040 A 
HETATM    2  C   UNL     1      63.967   8.223   4.369  1.00  0.00     0.058 A 
HETATM    3  C   UNL     1      65.091   7.863   5.123  1.00  0.00     0.027 A 
HETATM    4  C   UNL     1      64.350   6.369   2.870  1.00  0.00     0.030 A 
HETATM    5  C   UNL     1      65.515   6.054   3.572  1.00  0.00     0.004 A 
HETATM    6  C   UNL     1      65.892   6.811   4.680  1.00  0.00     0.029 A 
ENDROOT
BRANCH   1   7
HETATM    7  N   UNL     1      62.387   7.811   2.524  1.00  0.00    -0.333 N 
HETATM    8  C   UNL     1      62.289   8.725   1.488  1.00  0.00     0.096 A 
HETATM    9  C   UNL     1      60.984   8.788   1.052  1.00  0.00     0.019 A 
HETATM   10  C   UNL     1      60.239   7.890   1.836  1.00  0.00     0.019 A 
HETATM   11  C   UNL     1      61.113   7.304   2.724  1.00  0.00     0.096 A 
ENDBRANCH   1   7
BRANCH   3  12
HETATM   12  N   UNL     1      65.528   8.684   6.172  1.00  0.00    -0.399 N 
HETATM   13  H   UNL     1      65.571   9.660   6.048  1.00  0.00     0.156 HD
HETATM   14  H   UNL     1      65.791   8.286   7.032  1.00  0.00     0.156 HD
ENDBRANCH   3  12
TORSDOF 2
ENDMDL
MODEL 9
REMARK VINA RESULT:      -3.5      3.422      4.464
REMARK  2 active torsions:
REMARK  status: ('A' for Active; 'I' for Inactive)
REMARK    1  A    between atoms: N_1  and  C_2 
REMARK    2  A    between atoms: C_8  and  N_9 
ROOT
HETATM    1  C   UNL     1      60.894   7.888   2.829  1.00  0.00     0.040 A 
HETATM    2  C   UNL     1      61.203   8.978   3.660  1.00  0.00     0.058 A 
HETATM    3  C   UNL     1      61.854  10.111   3.156  1.00  0.00     0.027 A 
HETATM    4  C   UNL     1      61.198   7.974   1.464  1.00  0.00     0.030 A 
HETATM    5  C   UNL     1      61.774   9.134   0.943  1.00  0.00     0.004 A 
HETATM    6  C   UNL     1      62.082  10.203   1.783  1.00  0.00     0.029 A 
ENDROOT
BRANCH   1   7
HETATM    7  N   UNL     1      60.278   6.713   3.366  1.00  0.00    -0.333 N 
HETATM    8  C   UNL     1      60.366   5.426   2.863  1.00  0.00     0.096 A 
HETATM    9  C   UNL     1      59.624   4.573   3.650  1.00  0.00     0.019 A 
HETATM   10  C   UNL     1      59.053   5.345   4.677  1.00  0.00     0.019 A 
HETATM   11  C   UNL     1      59.466   6.644   4.487  1.00  0.00     0.096 A 
ENDBRANCH   1   7
BRANCH   3  12
HETATM   12  N   UNL     1      62.067  11.225   3.979  1.00  0.00    -0.399 N 
HETATM   13  H   UNL     1      62.793  11.214   4.645  1.00  0.00     0.156 HD
HETATM   14  H   UNL     1      61.492  12.018   3.892  1.00  0.00     0.156 HD
ENDBRANCH   3  12
TORSDOF 2
ENDMDL
