MODEL 1
REMARK VINA RESULT:      -5.8      0.000      0.000
REMARK  2 active torsions:
REMARK  status: ('A' for Active; 'I' for Inactive)
REMARK    1  A    between atoms: C_1  and  C_4 
REMARK    2  A    between atoms: C_5  and  C_10 
ROOT
HETATM    1  C   UNL     1      65.638   6.532   7.008  1.00  0.00     0.056 A 
HETATM    2  N   UNL     1      65.340   8.586   5.762  1.00  0.00    -0.364 N 
ATOM      3  HN  UNL     1      65.714   9.477   5.434  1.00  0.00     0.165 HD
HETATM    4  C   UNL     1      64.080   8.191   5.436  1.00  0.00     0.042 A 
HETATM    5  C   UNL     1      66.084   7.757   6.538  1.00  0.00     0.106 A 
HETATM    6  C   UNL     1      64.356   6.124   6.651  1.00  0.00     0.022 A 
HETATM    7  C   UNL     1      63.573   6.959   5.855  1.00  0.00     0.031 A 
ENDROOT
BRANCH   4   8
HETATM    8  C   UNL     1      63.285   9.141   4.630  1.00  0.00    -0.009 A 
HETATM    9  C   UNL     1      62.938  10.408   5.132  1.00  0.00     0.013 A 
HETATM   10  C   UNL     1      62.196  11.315   4.368  1.00  0.00     0.001 A 
HETATM   11  C   UNL     1      61.783  10.971   3.084  1.00  0.00     0.000 A 
HETATM   12  C   UNL     1      62.102   9.720   2.567  1.00  0.00     0.001 A 
HETATM   13  C   UNL     1      62.839   8.816   3.335  1.00  0.00     0.013 A 
ENDBRANCH   4   8
BRANCH   1  14
HETATM   14  C   UNL     1      66.527   5.727   7.861  1.00  0.00     0.210 C 
HETATM   15  O   UNL     1      66.177   5.034   8.798  1.00  0.00    -0.644 OA
HETATM   16  O   UNL     1      67.819   5.822   7.499  1.00  0.00    -0.644 OA
ENDBRANCH   1  14
TORSDOF 2
ENDMDL
MODEL 2
REMARK VINA RESULT:      -5.0      1.529      2.231
REMARK  2 active torsions:
REMARK  status: ('A' for Active; 'I' for Inactive)
REMARK    1  A    between atoms: C_1  and  C_4 
REMARK    2  A    between atoms: C_5  and  C_10 
ROOT
HETATM    1  C   UNL     1      65.088   6.706   6.525  1.00  0.00     0.056 A 
HETATM    2  N   UNL     1      63.321   6.580   4.874  1.00  0.00    -0.364 N 
ATOM      3  HN  UNL     1      62.505   6.099   4.496  1.00  0.00     0.165 HD
HETATM    4  C   UNL     1      63.783   7.728   4.309  1.00  0.00     0.042 A 
HETATM    5  C   UNL     1      63.980   6.096   5.957  1.00  0.00     0.106 A 
HETATM    6  C   UNL     1      65.540   7.893   5.956  1.00  0.00     0.022 A 
HETATM    7  C   UNL     1      64.880   8.409   4.842  1.00  0.00     0.031 A 
ENDROOT
BRANCH   4   8
HETATM    8  C   UNL     1      63.069   8.198   3.104  1.00  0.00    -0.009 A 
HETATM    9  C   UNL     1      62.544   9.501   3.031  1.00  0.00     0.013 A 
HETATM   10  C   UNL     1      61.878   9.953   1.888  1.00  0.00     0.001 A 
HETATM   11  C   UNL     1      61.720   9.109   0.793  1.00  0.00     0.000 A 
HETATM   12  C   UNL     1      62.218   7.812   0.842  1.00  0.00     0.001 A 
HETATM   13  C   UNL     1      62.879   7.362   1.987  1.00  0.00     0.013 A 
ENDBRANCH   4   8
BRANCH   1  14
HETATM   14  C   UNL     1      65.734   6.077   7.687  1.00  0.00     0.210 C 
HETATM   15  O   UNL     1      66.430   6.645   8.507  1.00  0.00    -0.644 OA
HETATM   16  O   UNL     1      65.476   4.760   7.774  1.00  0.00    -0.644 OA
ENDBRANCH   1  14
TORSDOF 2
ENDMDL
MODEL 3
REMARK VINA RESULT:      -5.0      2.353      3.113
REMARK  2 active torsions:
REMARK  status: ('A' for Active; 'I' for Inactive)
REMARK    1  A    between atoms: C_1  and  C_4 
REMARK    2  A    between atoms: C_5  and  C_10 
ROOT
HETATM    1  C   UNL     1      65.604   7.816   5.097  1.00  0.00     0.056 A 
HETATM    2  N   UNL     1      63.549   8.844   4.334  1.00  0.00    -0.364 N 
ATOM      3  HN  UNL     1      62.869   9.601   4.398  1.00  0.00     0.165 HD
HETATM    4  C   UNL     1      63.392   7.835   3.435  1.00  0.00     0.042 A 
HETATM    5  C   UNL     1      64.639   8.811   5.141  1.00  0.00     0.106 A 
HETATM    6  C   UNL     1      65.449   6.800   4.158  1.00  0.00     0.022 A 
HETATM    7  C   UNL     1      64.337   6.812   3.319  1.00  0.00     0.031 A 
ENDROOT
BRANCH   4   8
HETATM    8  C   UNL     1      62.169   7.881   2.607  1.00  0.00    -0.009 A 
HETATM    9  C   UNL     1      60.925   7.479   3.124  1.00  0.00     0.013 A 
HETATM   10  C   UNL     1      59.763   7.532   2.348  1.00  0.00     0.001 A 
HETATM   11  C   UNL     1      59.822   7.988   1.034  1.00  0.00     0.000 A 
HETATM   12  C   UNL     1      61.042   8.381   0.493  1.00  0.00     0.001 A 
HETATM   13  C   UNL     1      62.201   8.321   1.270  1.00  0.00     0.013 A 
ENDBRANCH   4   8
BRANCH   1  14
HETATM   14  C   UNL     1      66.734   7.873   6.038  1.00  0.00     0.210 C 
HETATM   15  O   UNL     1      67.659   7.085   6.085  1.00  0.00    -0.644 OA
HETATM   16  O   UNL     1      66.657   8.920   6.878  1.00  0.00    -0.644 OA
ENDBRANCH   1  14
TORSDOF 2
ENDMDL
MODEL 4
REMARK VINA RESULT:      -4.8      4.172      5.081
REMARK  2 active torsions:
REMARK  status: ('A' for Active; 'I' for Inactive)
REMARK    1  A    between atoms: C_1  and  C_4 
REMARK    2  A    between atoms: C_5  and  C_10 
ROOT
HETATM    1  C   UNL     1      62.964   8.670   4.687  1.00  0.00     0.056 A 
HETATM    2  N   UNL     1      60.991   9.036   3.333  1.00  0.00    -0.364 N 
ATOM      3  HN  UNL     1      60.466   9.624   2.686  1.00  0.00     0.165 HD
HETATM    4  C   UNL     1      60.503   7.834   3.741  1.00  0.00     0.042 A 
HETATM    5  C   UNL     1      62.199   9.427   3.814  1.00  0.00     0.106 A 
HETATM    6  C   UNL     1      62.469   7.430   5.082  1.00  0.00     0.022 A 
HETATM    7  C   UNL     1      61.231   7.008   4.602  1.00  0.00     0.031 A 
ENDROOT
BRANCH   4   8
HETATM    8  C   UNL     1      59.165   7.465   3.233  1.00  0.00    -0.009 A 
HETATM    9  C   UNL     1      58.089   7.243   4.112  1.00  0.00     0.013 A 
HETATM   10  C   UNL     1      56.819   6.906   3.634  1.00  0.00     0.001 A 
HETATM   11  C   UNL     1      56.598   6.780   2.266  1.00  0.00     0.000 A 
HETATM   12  C   UNL     1      57.647   6.981   1.375  1.00  0.00     0.001 A 
HETATM   13  C   UNL     1      58.915   7.314   1.856  1.00  0.00     0.013 A 
ENDBRANCH   4   8
BRANCH   1  14
HETATM   14  C   UNL     1      64.251   9.206   5.160  1.00  0.00     0.210 C 
HETATM   15  O   UNL     1      65.338   8.684   5.005  1.00  0.00    -0.644 OA
HETATM   16  O   UNL     1      64.118  10.379   5.804  1.00  0.00    -0.644 OA
ENDBRANCH   1  14
TORSDOF 2
ENDMDL
MODEL 5
REMARK VINA RESULT:      -4.5      2.055      2.435
REMARK  2 active torsions:
REMARK  status: ('A' for Active; 'I' for Inactive)
REMARK    1  A    between atoms: C_1  and  C_4 
REMARK    2  A    between atoms: C_5  and  C_10 
ROOT
HETATM    1  C   UNL     1      65.671   5.072   5.006  1.00  0.00     0.056 A 
HETATM    2  N   UNL     1      64.566   7.114   5.692  1.00  0.00    -0.364 N 
ATOM      3  HN  UNL     1      64.289   7.757   6.434  1.00  0.00     0.165 HD
HETATM    4  C   UNL     1      64.251   7.365   4.392  1.00  0.00     0.042 A 
HETATM    5  C   UNL     1      65.259   5.981   5.969  1.00  0.00     0.106 A 
HETATM    6  C   UNL     1      65.367   5.348   3.676  1.00  0.00     0.022 A 
HETATM    7  C   UNL     1      64.654   6.506   3.368  1.00  0.00     0.031 A 
ENDROOT
BRANCH   4   8
HETATM    8  C   UNL     1      63.455   8.584   4.136  1.00  0.00    -0.009 A 
HETATM    9  C   UNL     1      62.726   8.740   2.944  1.00  0.00     0.013 A 
HETATM   10  C   UNL     1      61.962   9.886   2.702  1.00  0.00     0.001 A 
HETATM   11  C   UNL     1      61.913  10.904   3.651  1.00  0.00     0.000 A 
HETATM   12  C   UNL     1      62.634  10.781   4.834  1.00  0.00     0.001 A 
HETATM   13  C   UNL     1      63.399   9.637   5.069  1.00  0.00     0.013 A 
ENDBRANCH   4   8
BRANCH   1  14
HETATM   14  C   UNL     1      66.400   3.866   5.427  1.00  0.00     0.210 C 
HETATM   15  O   UNL     1      66.117   3.159   6.376  1.00  0.00    -0.644 OA
HETATM   16  O   UNL     1      67.454   3.594   4.637  1.00  0.00    -0.644 OA
ENDBRANCH   1  14
TORSDOF 2
ENDMDL
MODEL 6
REMARK VINA RESULT:      -4.5      3.442      4.248
REMARK  2 active torsions:
REMARK  status: ('A' for Active; 'I' for Inactive)
REMARK    1  A    between atoms: C_1  and  C_4 
REMARK    2  A    between atoms: C_5  and  C_10 
ROOT
HETATM    1  C   UNL     1      60.920   5.426   6.117  1.00  0.00     0.056 A 
HETATM    2  N   UNL     1      60.214   6.941   4.366  1.00  0.00    -0.364 N 
ATOM      3  HN  UNL     1      59.500   7.248   3.705  1.00  0.00     0.165 HD
HETATM    4  C   UNL     1      61.414   7.575   4.447  1.00  0.00     0.042 A 
HETATM    5  C   UNL     1      59.996   5.887   5.192  1.00  0.00     0.106 A 
HETATM    6  C   UNL     1      62.137   6.094   6.211  1.00  0.00     0.022 A 
HETATM    7  C   UNL     1      62.384   7.179   5.371  1.00  0.00     0.031 A 
ENDROOT
BRANCH   4   8
HETATM    8  C   UNL     1      61.632   8.687   3.498  1.00  0.00    -0.009 A 
HETATM    9  C   UNL     1      61.708  10.019   3.945  1.00  0.00     0.013 A 
HETATM   10  C   UNL     1      61.926  11.073   3.053  1.00  0.00     0.001 A 
HETATM   11  C   UNL     1      62.069  10.818   1.692  1.00  0.00     0.000 A 
HETATM   12  C   UNL     1      61.986   9.512   1.222  1.00  0.00     0.001 A 
HETATM   13  C   UNL     1      61.764   8.462   2.115  1.00  0.00     0.013 A 
ENDBRANCH   4   8
BRANCH   1  14
HETATM   14  C   UNL     1      60.580   4.259   6.946  1.00  0.00     0.210 C 
HETATM   15  O   UNL     1      61.370   3.581   7.576  1.00  0.00    -0.644 OA
HETATM   16  O   UNL     1      59.262   3.993   6.954  1.00  0.00    -0.644 OA
ENDBRANCH   1  14
TORSDOF 2
ENDMDL
MODEL 7
REMARK VINA RESULT:      -4.4      2.511      3.590
REMARK  2 active torsions:
REMARK  status: ('A' for Active; 'I' for Inactive)
REMARK    1  A    between atoms: C_1  and  C_4 
REMARK    2  A    between atoms: C_5  and  C_10 
ROOT
HETATM    1  C   UNL     1      64.391   7.773   5.498  1.00  0.00     0.056 A 
HETATM    2  N   UNL     1      62.435   6.735   4.519  1.00  0.00    -0.364 N 
ATOM      3  HN  UNL     1      61.814   5.929   4.442  1.00  0.00     0.165 HD
HETATM    4  C   UNL     1      62.207   7.868   3.802  1.00  0.00     0.042 A 
HETATM    5  C   UNL     1      63.515   6.710   5.341  1.00  0.00     0.106 A 
HETATM    6  C   UNL     1      64.138   8.938   4.779  1.00  0.00     0.022 A 
HETATM    7  C   UNL     1      63.035   8.986   3.928  1.00  0.00     0.031 A 
ENDROOT
BRANCH   4   8
HETATM    8  C   UNL     1      61.049   7.839   2.884  1.00  0.00    -0.009 A 
HETATM    9  C   UNL     1      61.152   8.327   1.569  1.00  0.00     0.013 A 
HETATM   10  C   UNL     1      60.062   8.291   0.693  1.00  0.00     0.001 A 
HETATM   11  C   UNL     1      58.844   7.766   1.116  1.00  0.00     0.000 A 
HETATM   12  C   UNL     1      58.712   7.288   2.415  1.00  0.00     0.001 A 
HETATM   13  C   UNL     1      59.800   7.330   3.288  1.00  0.00     0.013 A 
ENDBRANCH   4   8
BRANCH   1  14
HETATM   14  C   UNL     1      65.542   7.624   6.402  1.00  0.00     0.210 C 
HETATM   15  O   UNL     1      66.668   8.033   6.193  1.00  0.00    -0.644 OA
HETATM   16  O   UNL     1      65.230   6.969   7.535  1.00  0.00    -0.644 OA
ENDBRANCH   1  14
TORSDOF 2
ENDMDL
MODEL 8
REMARK VINA RESULT:      -4.4      5.484      6.514
REMARK  2 active torsions:
REMARK  status: ('A' for Active; 'I' for Inactive)
REMARK    1  A    between atoms: C_1  and  C_4 
REMARK    2  A    between atoms: C_5  and  C_10 
ROOT
HETATM    1  C   UNL     1      57.766   6.270   5.921  1.00  0.00     0.056 A 
HETATM    2  N   UNL     1      59.915   6.488   4.828  1.00  0.00    -0.364 N 
ATOM      3  HN  UNL     1      60.902   6.238   4.773  1.00  0.00     0.165 HD
HETATM    4  C   UNL     1      59.357   7.344   3.930  1.00  0.00     0.042 A 
HETATM    5  C   UNL     1      59.115   5.977   5.798  1.00  0.00     0.106 A 
HETATM    6  C   UNL     1      57.197   7.128   4.985  1.00  0.00     0.022 A 
HETATM    7  C   UNL     1      57.999   7.666   3.979  1.00  0.00     0.031 A 
ENDROOT
BRANCH   4   8
HETATM    8  C   UNL     1      60.270   7.916   2.918  1.00  0.00    -0.009 A 
HETATM    9  C   UNL     1      61.318   8.778   3.288  1.00  0.00     0.013 A 
HETATM   10  C   UNL     1      62.191   9.311   2.335  1.00  0.00     0.001 A 
HETATM   11  C   UNL     1      62.032   8.995   0.988  1.00  0.00     0.000 A 
HETATM   12  C   UNL     1      60.997   8.154   0.593  1.00  0.00     0.001 A 
HETATM   13  C   UNL     1      60.124   7.627   1.547  1.00  0.00     0.013 A 
ENDBRANCH   4   8
BRANCH   1  14
HETATM   14  C   UNL     1      57.002   5.672   7.028  1.00  0.00     0.210 C 
HETATM   15  O   UNL     1      56.984   6.072   8.177  1.00  0.00    -0.644 OA
HETATM   16  O   UNL     1      56.290   4.597   6.646  1.00  0.00    -0.644 OA
ENDBRANCH   1  14
TORSDOF 2
ENDMDL
MODEL 9
REMARK VINA RESULT:      -4.3      4.083      4.868
REMARK  2 active torsions:
REMARK  status: ('A' for Active; 'I' for Inactive)
REMARK    1  A    between atoms: C_1  and  C_4 
REMARK    2  A    between atoms: C_5  and  C_10 
ROOT
HETATM    1  C   UNL     1      59.900   5.738   6.819  1.00  0.00     0.056 A 
HETATM    2  N   UNL     1      61.549   6.814   5.410  1.00  0.00    -0.364 N 
ATOM      3  HN  UNL     1      62.507   7.134   5.265  1.00  0.00     0.165 HD
HETATM    4  C   UNL     1      60.599   6.987   4.452  1.00  0.00     0.042 A 
HETATM    5  C   UNL     1      61.181   6.202   6.564  1.00  0.00     0.106 A 
HETATM    6  C   UNL     1      58.940   5.897   5.824  1.00  0.00     0.022 A 
HETATM    7  C   UNL     1      59.294   6.523   4.630  1.00  0.00     0.031 A 
ENDROOT
BRANCH   4   8
HETATM    8  C   UNL     1      61.026   7.699   3.229  1.00  0.00    -0.009 A 
HETATM    9  C   UNL     1      61.654   8.956   3.301  1.00  0.00     0.013 A 
HETATM   10  C   UNL     1      62.070   9.627   2.147  1.00  0.00     0.001 A 
HETATM   11  C   UNL     1      61.865   9.055   0.894  1.00  0.00     0.000 A 
HETATM   12  C   UNL     1      61.236   7.819   0.794  1.00  0.00     0.001 A 
HETATM   13  C   UNL     1      60.817   7.154   1.948  1.00  0.00     0.013 A 
ENDBRANCH   4   8
BRANCH   1  14
HETATM   14  C   UNL     1      59.612   5.109   8.118  1.00  0.00     0.210 C 
HETATM   15  O   UNL     1      59.049   5.640   9.056  1.00  0.00    -0.644 OA
HETATM   16  O   UNL     1      60.041   3.836   8.183  1.00  0.00    -0.644 OA
ENDBRANCH   1  14
TORSDOF 2
ENDMDL
