MODEL 1
REMARK VINA RESULT:      -4.8      0.000      0.000
REMARK  2 active torsions:
REMARK  status: ('A' for Active; 'I' for Inactive)
REMARK    1  A    between atoms: C_4  and  C_7 
REMARK    2  A    between atoms: N_6  and  C_7 
ROOT
HETATM    1  O   UNL     1      64.516   9.259   5.875  1.00  0.00    -0.343 OA
HETATM    2  C   UNL     1      63.620   9.533   4.920  1.00  0.00     0.075 A 
HETATM    3  C   UNL     1      63.560   8.552   3.974  1.00  0.00    -0.022 A 
HETATM    4  C   UNL     1      65.045   7.988   5.695  1.00  0.00     0.158 C 
HETATM    5  C   UNL     1      64.555   7.509   4.300  1.00  0.00     0.075 C 
HETATM    6  C   UNL     1      62.808  10.665   4.850  1.00  0.00     0.037 A 
HETATM    7  C   UNL     1      62.694   8.643   2.883  1.00  0.00     0.010 A 
HETATM    8  C   UNL     1      61.914  10.778   3.771  1.00  0.00     0.003 A 
HETATM    9  C   UNL     1      61.857   9.769   2.789  1.00  0.00     0.001 A 
ENDROOT
BRANCH   4  10
HETATM   10  C   UNL     1      66.575   7.955   5.823  1.00  0.00     0.262 C 
BRANCH  10  11
HETATM   11  N   UNL     1      66.995   8.515   7.104  1.00  0.00    -0.077 N 
HETATM   12  H   UNL     1      67.845   8.045   7.417  1.00  0.00     0.274 HD
HETATM   13  H   UNL     1      66.257   8.377   7.794  1.00  0.00     0.274 HD
HETATM   14  H   UNL     1      67.177   9.513   6.996  1.00  0.00     0.274 HD
ENDBRANCH  10  11
ENDBRANCH   4  10
TORSDOF 2
ENDMDL
MODEL 2
REMARK VINA RESULT:      -4.5      1.624      2.470
REMARK  2 active torsions:
REMARK  status: ('A' for Active; 'I' for Inactive)
REMARK    1  A    between atoms: C_4  and  C_7 
REMARK    2  A    between atoms: N_6  and  C_7 
ROOT
HETATM    1  O   UNL     1      63.722   7.431   3.800  1.00  0.00    -0.343 OA
HETATM    2  C   UNL     1      63.032   8.330   3.090  1.00  0.00     0.075 A 
HETATM    3  C   UNL     1      62.768   9.460   3.807  1.00  0.00    -0.022 A 
HETATM    4  C   UNL     1      64.081   7.958   5.033  1.00  0.00     0.158 C 
HETATM    5  C   UNL     1      63.306   9.297   5.175  1.00  0.00     0.075 C 
HETATM    6  C   UNL     1      62.611   8.191   1.767  1.00  0.00     0.037 A 
HETATM    7  C   UNL     1      62.050  10.523   3.256  1.00  0.00     0.010 A 
HETATM    8  C   UNL     1      61.900   9.251   1.179  1.00  0.00     0.003 A 
HETATM    9  C   UNL     1      61.620  10.415   1.922  1.00  0.00     0.001 A 
ENDROOT
BRANCH   4  10
HETATM   10  C   UNL     1      63.806   6.994   6.197  1.00  0.00     0.262 C 
BRANCH  10  11
HETATM   11  N   UNL     1      64.882   7.056   7.180  1.00  0.00    -0.077 N 
HETATM   12  H   UNL     1      65.397   6.174   7.175  1.00  0.00     0.274 HD
HETATM   13  H   UNL     1      64.487   7.214   8.107  1.00  0.00     0.274 HD
HETATM   14  H   UNL     1      65.515   7.821   6.945  1.00  0.00     0.274 HD
ENDBRANCH  10  11
ENDBRANCH   4  10
TORSDOF 2
ENDMDL
MODEL 3
REMARK VINA RESULT:      -4.4      2.018      4.450
REMARK  2 active torsions:
REMARK  status: ('A' for Active; 'I' for Inactive)
REMARK    1  A    between atoms: C_4  and  C_7 
REMARK    2  A    between atoms: N_6  and  C_7 
ROOT
HETATM    1  O   UNL     1      65.131   9.303   5.506  1.00  0.00    -0.343 OA
HETATM    2  C   UNL     1      65.494   8.135   6.048  1.00  0.00     0.075 A 
HETATM    3  C   UNL     1      64.469   7.235   6.066  1.00  0.00    -0.022 A 
HETATM    4  C   UNL     1      63.841   9.224   5.000  1.00  0.00     0.158 C 
HETATM    5  C   UNL     1      63.259   7.874   5.505  1.00  0.00     0.075 C 
HETATM    6  C   UNL     1      66.756   7.813   6.547  1.00  0.00     0.037 A 
HETATM    7  C   UNL     1      64.631   5.954   6.597  1.00  0.00     0.010 A 
HETATM    8  C   UNL     1      66.955   6.525   7.074  1.00  0.00     0.003 A 
HETATM    9  C   UNL     1      65.895   5.597   7.099  1.00  0.00     0.001 A 
ENDROOT
BRANCH   4  10
HETATM   10  C   UNL     1      62.970  10.424   5.397  1.00  0.00     0.262 C 
BRANCH  10  11
HETATM   11  N   UNL     1      63.729  11.358   6.222  1.00  0.00    -0.077 N 
HETATM   12  H   UNL     1      64.704  11.361   5.922  1.00  0.00     0.274 HD
HETATM   13  H   UNL     1      63.675  11.071   7.199  1.00  0.00     0.274 HD
HETATM   14  H   UNL     1      63.339  12.296   6.121  1.00  0.00     0.274 HD
ENDBRANCH  10  11
ENDBRANCH   4  10
TORSDOF 2
ENDMDL
MODEL 4
REMARK VINA RESULT:      -4.3      3.245      4.158
REMARK  2 active torsions:
REMARK  status: ('A' for Active; 'I' for Inactive)
REMARK    1  A    between atoms: C_4  and  C_7 
REMARK    2  A    between atoms: N_6  and  C_7 
ROOT
HETATM    1  O   UNL     1      62.467   7.481   2.542  1.00  0.00    -0.343 OA
HETATM    2  C   UNL     1      62.314   8.772   2.860  1.00  0.00     0.075 A 
HETATM    3  C   UNL     1      62.002   9.536   1.775  1.00  0.00    -0.022 A 
HETATM    4  C   UNL     1      62.141   7.268   1.209  1.00  0.00     0.158 C 
HETATM    5  C   UNL     1      61.976   8.676   0.573  1.00  0.00     0.075 C 
HETATM    6  C   UNL     1      62.439   9.328   4.134  1.00  0.00     0.037 A 
HETATM    7  C   UNL     1      61.808  10.914   1.885  1.00  0.00     0.010 A 
HETATM    8  C   UNL     1      62.233  10.711   4.279  1.00  0.00     0.003 A 
HETATM    9  C   UNL     1      61.918  11.503   3.157  1.00  0.00     0.001 A 
ENDROOT
BRANCH   4  10
HETATM   10  C   UNL     1      63.178   6.408   0.472  1.00  0.00     0.262 C 
BRANCH  10  11
HETATM   11  N   UNL     1      63.918   5.576   1.415  1.00  0.00    -0.077 N 
HETATM   12  H   UNL     1      63.455   5.599   2.324  1.00  0.00     0.274 HD
HETATM   13  H   UNL     1      64.869   5.932   1.509  1.00  0.00     0.274 HD
HETATM   14  H   UNL     1      63.946   4.616   1.071  1.00  0.00     0.274 HD
ENDBRANCH  10  11
ENDBRANCH   4  10
TORSDOF 2
ENDMDL
MODEL 5
REMARK VINA RESULT:      -4.2      2.656      5.556
REMARK  2 active torsions:
REMARK  status: ('A' for Active; 'I' for Inactive)
REMARK    1  A    between atoms: C_4  and  C_7 
REMARK    2  A    between atoms: N_6  and  C_7 
ROOT
HETATM    1  O   UNL     1      65.900   8.118   6.675  1.00  0.00    -0.343 OA
HETATM    2  C   UNL     1      66.600   7.090   7.170  1.00  0.00     0.075 A 
HETATM    3  C   UNL     1      66.971   6.206   6.200  1.00  0.00    -0.022 A 
HETATM    4  C   UNL     1      65.856   8.053   5.289  1.00  0.00     0.158 C 
HETATM    5  C   UNL     1      66.430   6.663   4.901  1.00  0.00     0.075 C 
HETATM    6  C   UNL     1      66.948   6.895   8.506  1.00  0.00     0.037 A 
HETATM    7  C   UNL     1      67.702   5.056   6.501  1.00  0.00     0.010 A 
HETATM    8  C   UNL     1      67.698   5.754   8.840  1.00  0.00     0.003 A 
HETATM    9  C   UNL     1      68.075   4.836   7.839  1.00  0.00     0.001 A 
ENDROOT
BRANCH   4  10
HETATM   10  C   UNL     1      64.446   8.285   4.726  1.00  0.00     0.262 C 
BRANCH  10  11
HETATM   11  N   UNL     1      63.773   9.355   5.453  1.00  0.00    -0.077 N 
HETATM   12  H   UNL     1      62.795   9.102   5.601  1.00  0.00     0.274 HD
HETATM   13  H   UNL     1      63.822  10.218   4.911  1.00  0.00     0.274 HD
HETATM   14  H   UNL     1      64.228   9.494   6.355  1.00  0.00     0.274 HD
ENDBRANCH  10  11
ENDBRANCH   4  10
TORSDOF 2
ENDMDL
MODEL 6
REMARK VINA RESULT:      -4.2      2.815      4.501
REMARK  2 active torsions:
REMARK  status: ('A' for Active; 'I' for Inactive)
REMARK    1  A    between atoms: C_4  and  C_7 
REMARK    2  A    between atoms: N_6  and  C_7 
ROOT
HETATM    1  O   UNL     1      62.086   9.105   3.033  1.00  0.00    -0.343 OA
HETATM    2  C   UNL     1      63.067   8.229   3.280  1.00  0.00     0.075 A 
HETATM    3  C   UNL     1      63.780   8.554   4.395  1.00  0.00    -0.022 A 
HETATM    4  C   UNL     1      61.996  10.035   4.060  1.00  0.00     0.158 C 
HETATM    5  C   UNL     1      63.250   9.818   4.952  1.00  0.00     0.075 C 
HETATM    6  C   UNL     1      63.368   7.093   2.527  1.00  0.00     0.037 A 
HETATM    7  C   UNL     1      64.855   7.776   4.828  1.00  0.00     0.010 A 
HETATM    8  C   UNL     1      64.435   6.280   2.947  1.00  0.00     0.003 A 
HETATM    9  C   UNL     1      65.177   6.620   4.095  1.00  0.00     0.001 A 
ENDROOT
BRANCH   4  10
HETATM   10  C   UNL     1      61.882  11.478   3.549  1.00  0.00     0.262 C 
BRANCH  10  11
HETATM   11  N   UNL     1      61.572  11.495   2.124  1.00  0.00    -0.077 N 
HETATM   12  H   UNL     1      62.321  11.033   1.608  1.00  0.00     0.274 HD
HETATM   13  H   UNL     1      61.486  12.460   1.806  1.00  0.00     0.274 HD
HETATM   14  H   UNL     1      60.693  11.004   1.961  1.00  0.00     0.274 HD
ENDBRANCH  10  11
ENDBRANCH   4  10
TORSDOF 2
ENDMDL
MODEL 7
REMARK VINA RESULT:      -4.0      1.732      2.254
REMARK  2 active torsions:
REMARK  status: ('A' for Active; 'I' for Inactive)
REMARK    1  A    between atoms: C_4  and  C_7 
REMARK    2  A    between atoms: N_6  and  C_7 
ROOT
HETATM    1  O   UNL     1      64.224   7.336   7.009  1.00  0.00    -0.343 OA
HETATM    2  C   UNL     1      63.835   7.504   5.739  1.00  0.00     0.075 A 
HETATM    3  C   UNL     1      64.622   6.816   4.864  1.00  0.00    -0.022 A 
HETATM    4  C   UNL     1      65.251   6.405   7.082  1.00  0.00     0.158 C 
HETATM    5  C   UNL     1      65.694   6.131   5.618  1.00  0.00     0.075 C 
HETATM    6  C   UNL     1      62.755   8.271   5.302  1.00  0.00     0.037 A 
HETATM    7  C   UNL     1      64.394   6.860   3.488  1.00  0.00     0.010 A 
HETATM    8  C   UNL     1      62.490   8.323   3.922  1.00  0.00     0.003 A 
HETATM    9  C   UNL     1      63.309   7.619   3.016  1.00  0.00     0.001 A 
ENDROOT
BRANCH   4  10
HETATM   10  C   UNL     1      66.414   6.868   7.971  1.00  0.00     0.262 C 
BRANCH  10  11
HETATM   11  N   UNL     1      66.977   8.117   7.468  1.00  0.00    -0.077 N 
HETATM   12  H   UNL     1      66.222   8.733   7.167  1.00  0.00     0.274 HD
HETATM   13  H   UNL     1      67.590   7.920   6.677  1.00  0.00     0.274 HD
HETATM   14  H   UNL     1      67.513   8.571   8.208  1.00  0.00     0.274 HD
ENDBRANCH  10  11
ENDBRANCH   4  10
TORSDOF 2
ENDMDL
MODEL 8
REMARK VINA RESULT:      -3.9     12.795     13.576
REMARK  2 active torsions:
REMARK  status: ('A' for Active; 'I' for Inactive)
REMARK    1  A    between atoms: C_4  and  C_7 
REMARK    2  A    between atoms: N_6  and  C_7 
ROOT
HETATM    1  O   UNL     1      55.763   3.170  11.948  1.00  0.00    -0.343 OA
HETATM    2  C   UNL     1      56.899   2.612  12.384  1.00  0.00     0.075 A 
HETATM    3  C   UNL     1      56.736   1.980  13.581  1.00  0.00    -0.022 A 
HETATM    4  C   UNL     1      54.707   2.838  12.786  1.00  0.00     0.158 C 
HETATM    5  C   UNL     1      55.339   2.158  14.032  1.00  0.00     0.075 C 
HETATM    6  C   UNL     1      58.132   2.634  11.732  1.00  0.00     0.037 A 
HETATM    7  C   UNL     1      57.799   1.338  14.218  1.00  0.00     0.010 A 
HETATM    8  C   UNL     1      59.219   1.982  12.341  1.00  0.00     0.003 A 
HETATM    9  C   UNL     1      59.053   1.335  13.582  1.00  0.00     0.001 A 
ENDROOT
BRANCH   4  10
HETATM   10  C   UNL     1      53.836   4.047  13.155  1.00  0.00     0.262 C 
BRANCH  10  11
HETATM   11  N   UNL     1      54.295   4.648  14.403  1.00  0.00    -0.077 N 
HETATM   12  H   UNL     1      53.488   4.939  14.956  1.00  0.00     0.274 HD
HETATM   13  H   UNL     1      54.875   5.461  14.196  1.00  0.00     0.274 HD
HETATM   14  H   UNL     1      54.841   3.966  14.929  1.00  0.00     0.274 HD
ENDBRANCH  10  11
ENDBRANCH   4  10
TORSDOF 2
ENDMDL
MODEL 9
REMARK VINA RESULT:      -3.8      1.924      3.044
REMARK  2 active torsions:
REMARK  status: ('A' for Active; 'I' for Inactive)
REMARK    1  A    between atoms: C_4  and  C_7 
REMARK    2  A    between atoms: N_6  and  C_7 
ROOT
HETATM    1  O   UNL     1      66.594   6.237   4.557  1.00  0.00    -0.343 OA
HETATM    2  C   UNL     1      65.489   6.937   4.277  1.00  0.00     0.075 A 
HETATM    3  C   UNL     1      65.360   8.036   5.074  1.00  0.00    -0.022 A 
HETATM    4  C   UNL     1      67.363   6.900   5.502  1.00  0.00     0.158 C 
HETATM    5  C   UNL     1      66.486   8.068   6.032  1.00  0.00     0.075 C 
HETATM    6  C   UNL     1      64.547   6.635   3.293  1.00  0.00     0.037 A 
HETATM    7  C   UNL     1      64.272   8.902   4.954  1.00  0.00     0.010 A 
HETATM    8  C   UNL     1      63.447   7.497   3.137  1.00  0.00     0.003 A 
HETATM    9  C   UNL     1      63.310   8.628   3.966  1.00  0.00     0.001 A 
ENDROOT
BRANCH   4  10
HETATM   10  C   UNL     1      67.853   5.977   6.627  1.00  0.00     0.262 C 
BRANCH  10  11
HETATM   11  N   UNL     1      67.746   6.643   7.921  1.00  0.00    -0.077 N 
HETATM   12  H   UNL     1      67.559   7.636   7.777  1.00  0.00     0.274 HD
HETATM   13  H   UNL     1      68.621   6.533   8.433  1.00  0.00     0.274 HD
HETATM   14  H   UNL     1      66.984   6.227   8.456  1.00  0.00     0.274 HD
ENDBRANCH  10  11
ENDBRANCH   4  10
TORSDOF 2
ENDMDL
