MODEL 1
REMARK VINA RESULT:      -4.9      0.000      0.000
REMARK  3 active torsions:
REMARK  status: ('A' for Active; 'I' for Inactive)
REMARK    1  A    between atoms: C_1  and  C_6 
REMARK    2  A    between atoms: C_7  and  C_12 
REMARK    3  A    between atoms: C_12  and  O_13 
ROOT
HETATM    1  C   UNL     1      64.833   8.586   5.146  1.00  0.00     0.117 A 
HETATM    2  C   UNL     1      63.750   8.620   4.291  1.00  0.00     0.070 A 
HETATM    3  N   UNL     1      63.701  10.506   5.549  1.00  0.00    -0.263 N 
ATOM      4  HN  UNL     1      63.424  11.402   5.950  1.00  0.00     0.194 HD
HETATM    5  O   UNL     1      64.791   9.729   5.905  1.00  0.00    -0.236 OA
HETATM    6  C   UNL     1      63.086   9.833   4.570  1.00  0.00     0.058 A 
ENDROOT
BRANCH   1   7
HETATM    7  C   UNL     1      65.865   7.595   5.286  1.00  0.00     0.040 A 
HETATM    8  S   UNL     1      66.632   7.283   6.790  1.00  0.00    -0.099 SA
HETATM    9  C   UNL     1      67.609   6.053   6.121  1.00  0.00     0.050 A 
HETATM   10  C   UNL     1      67.373   5.882   4.776  1.00  0.00     0.008 A 
HETATM   11  C   UNL     1      66.369   6.775   4.292  1.00  0.00     0.022 A 
ENDBRANCH   1   7
BRANCH   6  12
HETATM   12  C   UNL     1      61.858  10.376   3.924  1.00  0.00     0.223 C 
BRANCH  12  13
HETATM   13  O   UNL     1      61.906  11.790   3.742  1.00  0.00    -0.395 OA
HETATM   14  H   UNL     1      62.738  12.134   4.101  1.00  0.00     0.209 HD
ENDBRANCH  12  13
ENDBRANCH   6  12
TORSDOF 3
ENDMDL
MODEL 2
REMARK VINA RESULT:      -4.8      2.649      5.218
REMARK  3 active torsions:
REMARK  status: ('A' for Active; 'I' for Inactive)
REMARK    1  A    between atoms: C_1  and  C_6 
REMARK    2  A    between atoms: C_7  and  C_12 
REMARK    3  A    between atoms: C_12  and  O_13 
ROOT
HETATM    1  C   UNL     1      64.972   8.304   5.551  1.00  0.00     0.117 A 
HETATM    2  C   UNL     1      65.394   7.022   5.841  1.00  0.00     0.070 A 
HETATM    3  N   UNL     1      66.748   8.464   6.949  1.00  0.00    -0.263 N 
ATOM      4  HN  UNL     1      67.489   8.849   7.535  1.00  0.00     0.194 HD
HETATM    5  O   UNL     1      65.801   9.168   6.224  1.00  0.00    -0.236 OA
HETATM    6  C   UNL     1      66.487   7.172   6.719  1.00  0.00     0.058 A 
ENDROOT
BRANCH   1   7
HETATM    7  C   UNL     1      63.885   8.752   4.725  1.00  0.00     0.040 A 
HETATM    8  S   UNL     1      62.974  10.158   5.099  1.00  0.00    -0.099 SA
HETATM    9  C   UNL     1      61.999   9.986   3.707  1.00  0.00     0.050 A 
HETATM   10  C   UNL     1      62.344   8.877   2.969  1.00  0.00     0.008 A 
HETATM   11  C   UNL     1      63.430   8.161   3.559  1.00  0.00     0.022 A 
ENDBRANCH   1   7
BRANCH   6  12
HETATM   12  C   UNL     1      67.310   6.102   7.351  1.00  0.00     0.223 C 
BRANCH  12  13
HETATM   13  O   UNL     1      68.075   6.572   8.459  1.00  0.00    -0.395 OA
HETATM   14  H   UNL     1      68.618   5.848   8.807  1.00  0.00     0.209 HD
ENDBRANCH  12  13
ENDBRANCH   6  12
TORSDOF 3
ENDMDL
MODEL 3
REMARK VINA RESULT:      -4.6      2.700      5.223
REMARK  3 active torsions:
REMARK  status: ('A' for Active; 'I' for Inactive)
REMARK    1  A    between atoms: C_1  and  C_6 
REMARK    2  A    between atoms: C_7  and  C_12 
REMARK    3  A    between atoms: C_12  and  O_13 
ROOT
HETATM    1  C   UNL     1      64.010   8.462   5.100  1.00  0.00     0.117 A 
HETATM    2  C   UNL     1      65.348   8.142   4.981  1.00  0.00     0.070 A 
HETATM    3  N   UNL     1      64.577   7.204   6.896  1.00  0.00    -0.263 N 
ATOM      4  HN  UNL     1      64.523   6.692   7.777  1.00  0.00     0.194 HD
HETATM    5  O   UNL     1      63.555   7.892   6.263  1.00  0.00    -0.236 OA
HETATM    6  C   UNL     1      65.649   7.353   6.111  1.00  0.00     0.058 A 
ENDROOT
BRANCH   1   7
HETATM    7  C   UNL     1      63.165   9.228   4.225  1.00  0.00     0.040 A 
HETATM    8  S   UNL     1      62.566  10.776   4.663  1.00  0.00    -0.099 SA
HETATM    9  C   UNL     1      61.757  10.967   3.171  1.00  0.00     0.050 A 
HETATM   10  C   UNL     1      61.923   9.874   2.351  1.00  0.00     0.008 A 
HETATM   11  C   UNL     1      62.733   8.868   2.961  1.00  0.00     0.022 A 
ENDBRANCH   1   7
BRANCH   6  12
HETATM   12  C   UNL     1      66.955   6.732   6.473  1.00  0.00     0.223 C 
BRANCH  12  13
HETATM   13  O   UNL     1      68.068   7.580   6.198  1.00  0.00    -0.395 OA
HETATM   14  H   UNL     1      68.488   7.843   7.032  1.00  0.00     0.209 HD
ENDBRANCH  12  13
ENDBRANCH   6  12
TORSDOF 3
ENDMDL
MODEL 4
REMARK VINA RESULT:      -4.4      3.696      4.339
REMARK  3 active torsions:
REMARK  status: ('A' for Active; 'I' for Inactive)
REMARK    1  A    between atoms: C_1  and  C_6 
REMARK    2  A    between atoms: C_7  and  C_12 
REMARK    3  A    between atoms: C_12  and  O_13 
ROOT
HETATM    1  C   UNL     1      63.115   8.408   3.543  1.00  0.00     0.117 A 
HETATM    2  C   UNL     1      62.566   9.610   3.941  1.00  0.00     0.070 A 
HETATM    3  N   UNL     1      64.204   9.075   5.414  1.00  0.00    -0.263 N 
ATOM      4  HN  UNL     1      64.847   9.097   6.206  1.00  0.00     0.194 HD
HETATM    5  O   UNL     1      64.102   8.092   4.444  1.00  0.00    -0.236 OA
HETATM    6  C   UNL     1      63.281   9.989   5.096  1.00  0.00     0.058 A 
ENDROOT
BRANCH   1   7
HETATM    7  C   UNL     1      62.792   7.575   2.417  1.00  0.00     0.040 A 
HETATM    8  S   UNL     1      61.433   7.884   1.415  1.00  0.00    -0.099 SA
HETATM    9  C   UNL     1      61.786   6.556   0.400  1.00  0.00     0.050 A 
HETATM   10  C   UNL     1      62.909   5.876   0.814  1.00  0.00     0.008 A 
HETATM   11  C   UNL     1      63.488   6.461   1.981  1.00  0.00     0.022 A 
ENDBRANCH   1   7
BRANCH   6  12
HETATM   12  C   UNL     1      63.101  11.215   5.924  1.00  0.00     0.223 C 
BRANCH  12  13
HETATM   13  O   UNL     1      64.319  11.671   6.510  1.00  0.00    -0.395 OA
HETATM   14  H   UNL     1      64.125  12.372   7.153  1.00  0.00     0.209 HD
ENDBRANCH  12  13
ENDBRANCH   6  12
TORSDOF 3
ENDMDL
MODEL 5
REMARK VINA RESULT:      -4.3      2.860      5.210
REMARK  3 active torsions:
REMARK  status: ('A' for Active; 'I' for Inactive)
REMARK    1  A    between atoms: C_1  and  C_6 
REMARK    2  A    between atoms: C_7  and  C_12 
REMARK    3  A    between atoms: C_12  and  O_13 
ROOT
HETATM    1  C   UNL     1      63.483   8.261   4.432  1.00  0.00     0.117 A 
HETATM    2  C   UNL     1      64.835   8.117   4.671  1.00  0.00     0.070 A 
HETATM    3  N   UNL     1      63.732   7.569   6.574  1.00  0.00    -0.263 N 
ATOM      4  HN  UNL     1      63.523   7.282   7.531  1.00  0.00     0.194 HD
HETATM    5  O   UNL     1      62.826   7.931   5.590  1.00  0.00    -0.236 OA
HETATM    6  C   UNL     1      64.938   7.675   6.006  1.00  0.00     0.058 A 
ENDROOT
BRANCH   1   7
HETATM    7  C   UNL     1      62.798   8.666   3.235  1.00  0.00     0.040 A 
HETATM    8  S   UNL     1      62.635   7.623   1.881  1.00  0.00    -0.099 SA
HETATM    9  C   UNL     1      61.743   8.783   1.001  1.00  0.00     0.050 A 
HETATM   10  C   UNL     1      61.576   9.951   1.710  1.00  0.00     0.008 A 
HETATM   11  C   UNL     1      62.189   9.885   2.998  1.00  0.00     0.022 A 
ENDBRANCH   1   7
BRANCH   6  12
HETATM   12  C   UNL     1      66.175   7.353   6.773  1.00  0.00     0.223 C 
BRANCH  12  13
HETATM   13  O   UNL     1      66.906   8.515   7.159  1.00  0.00    -0.395 OA
HETATM   14  H   UNL     1      66.645   8.778   8.056  1.00  0.00     0.209 HD
ENDBRANCH  12  13
ENDBRANCH   6  12
TORSDOF 3
ENDMDL
MODEL 6
REMARK VINA RESULT:      -4.2      1.666      1.872
REMARK  3 active torsions:
REMARK  status: ('A' for Active; 'I' for Inactive)
REMARK    1  A    between atoms: C_1  and  C_6 
REMARK    2  A    between atoms: C_7  and  C_12 
REMARK    3  A    between atoms: C_12  and  O_13 
ROOT
HETATM    1  C   UNL     1      64.347   8.237   4.851  1.00  0.00     0.117 A 
HETATM    2  C   UNL     1      63.646   9.396   5.115  1.00  0.00     0.070 A 
HETATM    3  N   UNL     1      62.964   8.618   3.098  1.00  0.00    -0.263 N 
ATOM      4  HN  UNL     1      62.483   8.521   2.203  1.00  0.00     0.194 HD
HETATM    5  O   UNL     1      63.929   7.777   3.627  1.00  0.00    -0.236 OA
HETATM    6  C   UNL     1      62.794   9.584   4.007  1.00  0.00     0.058 A 
ENDROOT
BRANCH   1   7
HETATM    7  C   UNL     1      65.336   7.558   5.642  1.00  0.00     0.040 A 
HETATM    8  S   UNL     1      67.005   7.590   5.239  1.00  0.00    -0.099 SA
HETATM    9  C   UNL     1      67.427   6.648   6.599  1.00  0.00     0.050 A 
HETATM   10  C   UNL     1      66.325   6.300   7.347  1.00  0.00     0.008 A 
HETATM   11  C   UNL     1      65.117   6.822   6.793  1.00  0.00     0.022 A 
ENDBRANCH   1   7
BRANCH   6  12
HETATM   12  C   UNL     1      61.811  10.682   3.782  1.00  0.00     0.223 C 
BRANCH  12  13
HETATM   13  O   UNL     1      62.215  11.917   4.369  1.00  0.00    -0.395 OA
HETATM   14  H   UNL     1      61.958  12.650   3.788  1.00  0.00     0.209 HD
ENDBRANCH  12  13
ENDBRANCH   6  12
TORSDOF 3
ENDMDL
MODEL 7
REMARK VINA RESULT:      -3.8      2.301      3.047
REMARK  3 active torsions:
REMARK  status: ('A' for Active; 'I' for Inactive)
REMARK    1  A    between atoms: C_1  and  C_6 
REMARK    2  A    between atoms: C_7  and  C_12 
REMARK    3  A    between atoms: C_12  and  O_13 
ROOT
HETATM    1  C   UNL     1      65.815   7.071   6.843  1.00  0.00     0.117 A 
HETATM    2  C   UNL     1      64.521   6.879   6.400  1.00  0.00     0.070 A 
HETATM    3  N   UNL     1      65.228   8.888   5.623  1.00  0.00    -0.263 N 
ATOM      4  HN  UNL     1      65.262   9.796   5.159  1.00  0.00     0.194 HD
HETATM    5  O   UNL     1      66.231   8.291   6.370  1.00  0.00    -0.236 OA
HETATM    6  C   UNL     1      64.207   8.024   5.639  1.00  0.00     0.058 A 
ENDROOT
BRANCH   1   7
HETATM    7  C   UNL     1      66.651   6.218   7.641  1.00  0.00     0.040 A 
HETATM    8  S   UNL     1      67.190   4.687   7.082  1.00  0.00    -0.099 SA
HETATM    9  C   UNL     1      68.075   4.393   8.512  1.00  0.00     0.050 A 
HETATM   10  C   UNL     1      67.961   5.429   9.411  1.00  0.00     0.008 A 
HETATM   11  C   UNL     1      67.135   6.481   8.910  1.00  0.00     0.022 A 
ENDBRANCH   1   7
BRANCH   6  12
HETATM   12  C   UNL     1      62.937   8.328   4.921  1.00  0.00     0.223 C 
BRANCH  12  13
HETATM   13  O   UNL     1      63.115   9.250   3.847  1.00  0.00    -0.395 OA
HETATM   14  H   UNL     1      62.262   9.407   3.412  1.00  0.00     0.209 HD
ENDBRANCH  12  13
ENDBRANCH   6  12
TORSDOF 3
ENDMDL
MODEL 8
REMARK VINA RESULT:      -3.7     12.257     12.528
REMARK  3 active torsions:
REMARK  status: ('A' for Active; 'I' for Inactive)
REMARK    1  A    between atoms: C_1  and  C_6 
REMARK    2  A    between atoms: C_7  and  C_12 
REMARK    3  A    between atoms: C_12  and  O_13 
ROOT
HETATM    1  C   UNL     1      58.815   1.062  12.789  1.00  0.00     0.117 A 
HETATM    2  C   UNL     1      57.516   1.358  12.429  1.00  0.00     0.070 A 
HETATM    3  N   UNL     1      57.770   1.897  14.617  1.00  0.00    -0.263 N 
ATOM      4  HN  UNL     1      57.588   2.215  15.569  1.00  0.00     0.194 HD
HETATM    5  O   UNL     1      58.956   1.389  14.115  1.00  0.00    -0.236 OA
HETATM    6  C   UNL     1      56.912   1.884  13.591  1.00  0.00     0.058 A 
ENDROOT
BRANCH   1   7
HETATM    7  C   UNL     1      59.888   0.522  12.000  1.00  0.00     0.040 A 
HETATM    8  S   UNL     1      59.876   0.575  10.285  1.00  0.00    -0.099 SA
HETATM    9  C   UNL     1      61.401  -0.185  10.176  1.00  0.00     0.050 A 
HETATM   10  C   UNL     1      61.915  -0.488  11.416  1.00  0.00     0.008 A 
HETATM   11  C   UNL     1      61.040  -0.085  12.470  1.00  0.00     0.022 A 
ENDBRANCH   1   7
BRANCH   6  12
HETATM   12  C   UNL     1      55.515   2.375  13.756  1.00  0.00     0.223 C 
BRANCH  12  13
HETATM   13  O   UNL     1      55.330   3.129  14.952  1.00  0.00    -0.395 OA
HETATM   14  H   UNL     1      54.393   3.362  15.046  1.00  0.00     0.209 HD
ENDBRANCH  12  13
ENDBRANCH   6  12
TORSDOF 3
ENDMDL
MODEL 9
REMARK VINA RESULT:      -3.5      2.913      5.305
REMARK  3 active torsions:
REMARK  status: ('A' for Active; 'I' for Inactive)
REMARK    1  A    between atoms: C_1  and  C_6 
REMARK    2  A    between atoms: C_7  and  C_12 
REMARK    3  A    between atoms: C_12  and  O_13 
ROOT
HETATM    1  C   UNL     1      63.992   7.564   5.018  1.00  0.00     0.117 A 
HETATM    2  C   UNL     1      65.165   6.995   4.563  1.00  0.00     0.070 A 
HETATM    3  N   UNL     1      65.554   7.825   6.637  1.00  0.00    -0.263 N 
ATOM      4  HN  UNL     1      66.010   8.091   7.510  1.00  0.00     0.194 HD
HETATM    5  O   UNL     1      64.240   8.066   6.271  1.00  0.00    -0.236 OA
HETATM    6  C   UNL     1      66.099   7.171   5.606  1.00  0.00     0.058 A 
ENDROOT
BRANCH   1   7
HETATM    7  C   UNL     1      62.706   7.656   4.381  1.00  0.00     0.040 A 
HETATM    8  S   UNL     1      62.184   9.085   3.586  1.00  0.00    -0.099 SA
HETATM    9  C   UNL     1      60.700   8.376   3.128  1.00  0.00     0.050 A 
HETATM   10  C   UNL     1      60.588   7.080   3.576  1.00  0.00     0.008 A 
HETATM   11  C   UNL     1      61.744   6.665   4.304  1.00  0.00     0.022 A 
ENDBRANCH   1   7
BRANCH   6  12
HETATM   12  C   UNL     1      67.523   6.733   5.644  1.00  0.00     0.223 C 
BRANCH  12  13
HETATM   13  O   UNL     1      68.054   6.691   6.968  1.00  0.00    -0.395 OA
HETATM   14  H   UNL     1      68.634   5.918   7.059  1.00  0.00     0.209 HD
ENDBRANCH  12  13
ENDBRANCH   6  12
TORSDOF 3
ENDMDL
