MODEL 1
REMARK VINA RESULT:      -3.6      0.000      0.000
REMARK  0 active torsions:
REMARK  status: ('A' for Active; 'I' for Inactive)
ROOT
HETATM    1  C   UNL     1      62.436  10.613   4.077  1.00  0.00     0.132 A 
HETATM    2  N   UNL     1      62.564   9.374   3.506  1.00  0.00    -0.338 N 
HETATM    3  N   UNL     1      61.543  10.635   1.999  1.00  0.00    -0.359 N 
ATOM      4  HN  UNL     1      61.084  10.949   1.144  1.00  0.00     0.166 HD
HETATM    5  C   UNL     1      62.872  11.002   5.368  1.00  0.00     0.119 C 
HETATM    6  N   UNL     1      63.241  11.294   6.429  1.00  0.00    -0.190 NA
HETATM    7  C   UNL     1      62.017   9.436   2.255  1.00  0.00     0.183 A 
HETATM    8  C   UNL     1      61.798  11.375   3.127  1.00  0.00     0.130 A 
HETATM    9  C   UNL     1      63.165   8.210   4.110  1.00  0.00     0.158 C 
ENDROOT
TORSDOF 0
ENDMDL
MODEL 2
REMARK VINA RESULT:      -3.6      1.411      1.499
REMARK  0 active torsions:
REMARK  status: ('A' for Active; 'I' for Inactive)
ROOT
HETATM    1  C   UNL     1      62.397   9.791   3.829  1.00  0.00     0.132 A 
HETATM    2  N   UNL     1      62.337   9.222   2.583  1.00  0.00    -0.338 N 
HETATM    3  N   UNL     1      61.607  11.299   2.338  1.00  0.00    -0.359 N 
ATOM      4  HN  UNL     1      61.243  12.159   1.930  1.00  0.00     0.166 HD
HETATM    5  C   UNL     1      62.840   9.173   5.024  1.00  0.00     0.119 C 
HETATM    6  N   UNL     1      63.209   8.643   5.988  1.00  0.00    -0.190 NA
HETATM    7  C   UNL     1      61.860  10.168   1.719  1.00  0.00     0.183 A 
HETATM    8  C   UNL     1      61.936  11.075   3.652  1.00  0.00     0.130 A 
HETATM    9  C   UNL     1      62.707   7.872   2.240  1.00  0.00     0.158 C 
ENDROOT
TORSDOF 0
ENDMDL
MODEL 3
REMARK VINA RESULT:      -3.4      1.271      2.932
REMARK  0 active torsions:
REMARK  status: ('A' for Active; 'I' for Inactive)
ROOT
HETATM    1  C   UNL     1      62.293  10.108   3.984  1.00  0.00     0.132 A 
HETATM    2  N   UNL     1      61.993   8.773   3.904  1.00  0.00    -0.338 N 
HETATM    3  N   UNL     1      63.032   9.048   5.841  1.00  0.00    -0.359 N 
ATOM      4  HN  UNL     1      63.459   8.867   6.749  1.00  0.00     0.166 HD
HETATM    5  C   UNL     1      61.995  11.104   3.022  1.00  0.00     0.119 C 
HETATM    6  N   UNL     1      61.736  11.901   2.218  1.00  0.00    -0.190 NA
HETATM    7  C   UNL     1      62.453   8.177   5.045  1.00  0.00     0.183 A 
HETATM    8  C   UNL     1      62.939  10.253   5.190  1.00  0.00     0.130 A 
HETATM    9  C   UNL     1      61.317   8.111   2.816  1.00  0.00     0.158 C 
ENDROOT
TORSDOF 0
ENDMDL
MODEL 4
REMARK VINA RESULT:      -3.3      1.200      2.275
REMARK  0 active torsions:
REMARK  status: ('A' for Active; 'I' for Inactive)
ROOT
HETATM    1  C   UNL     1      62.504   9.580   3.456  1.00  0.00     0.132 A 
HETATM    2  N   UNL     1      62.054  10.229   2.336  1.00  0.00    -0.338 N 
HETATM    3  N   UNL     1      62.281   8.104   1.757  1.00  0.00    -0.359 N 
ATOM      4  HN  UNL     1      62.285   7.238   1.218  1.00  0.00     0.166 HD
HETATM    5  C   UNL     1      62.766  10.157   4.724  1.00  0.00     0.119 C 
HETATM    6  N   UNL     1      62.970  10.655   5.752  1.00  0.00    -0.190 NA
HETATM    7  C   UNL     1      61.931   9.300   1.341  1.00  0.00     0.183 A 
HETATM    8  C   UNL     1      62.641   8.267   3.072  1.00  0.00     0.130 A 
HETATM    9  C   UNL     1      61.763  11.637   2.221  1.00  0.00     0.158 C 
ENDROOT
TORSDOF 0
ENDMDL
MODEL 5
REMARK VINA RESULT:      -3.3      1.352      3.607
REMARK  0 active torsions:
REMARK  status: ('A' for Active; 'I' for Inactive)
ROOT
HETATM    1  C   UNL     1      62.744   9.336   3.795  1.00  0.00     0.132 A 
HETATM    2  N   UNL     1      62.318  10.638   3.746  1.00  0.00    -0.338 N 
HETATM    3  N   UNL     1      63.056  10.318   5.809  1.00  0.00    -0.359 N 
ATOM      4  HN  UNL     1      63.310  10.468   6.785  1.00  0.00     0.166 HD
HETATM    5  C   UNL     1      62.718   8.394   2.738  1.00  0.00     0.119 C 
HETATM    6  N   UNL     1      62.686   7.642   1.854  1.00  0.00    -0.190 NA
HETATM    7  C   UNL     1      62.530  11.189   4.979  1.00  0.00     0.183 A 
HETATM    8  C   UNL     1      63.193   9.160   5.084  1.00  0.00     0.130 A 
HETATM    9  C   UNL     1      61.749  11.310   2.604  1.00  0.00     0.158 C 
ENDROOT
TORSDOF 0
ENDMDL
MODEL 6
REMARK VINA RESULT:      -3.2      1.660      2.306
REMARK  0 active torsions:
REMARK  status: ('A' for Active; 'I' for Inactive)
ROOT
HETATM    1  C   UNL     1      62.436   9.411   3.170  1.00  0.00     0.132 A 
HETATM    2  N   UNL     1      63.342   8.547   3.728  1.00  0.00    -0.338 N 
HETATM    3  N   UNL     1      62.468   7.477   1.997  1.00  0.00    -0.359 N 
ATOM      4  HN  UNL     1      62.261   6.763   1.299  1.00  0.00     0.166 HD
HETATM    5  C   UNL     1      62.128  10.721   3.613  1.00  0.00     0.119 C 
HETATM    6  N   UNL     1      61.897  11.792   3.997  1.00  0.00    -0.190 NA
HETATM    7  C   UNL     1      63.329   7.399   2.986  1.00  0.00     0.183 A 
HETATM    8  C   UNL     1      61.905   8.725   2.102  1.00  0.00     0.130 A 
HETATM    9  C   UNL     1      64.162   8.797   4.887  1.00  0.00     0.158 C 
ENDROOT
TORSDOF 0
ENDMDL
MODEL 7
REMARK VINA RESULT:      -3.2      1.139      2.584
REMARK  0 active torsions:
REMARK  status: ('A' for Active; 'I' for Inactive)
ROOT
HETATM    1  C   UNL     1      62.542   9.390   3.417  1.00  0.00     0.132 A 
HETATM    2  N   UNL     1      62.444  10.568   4.110  1.00  0.00    -0.338 N 
HETATM    3  N   UNL     1      61.524  10.949   2.132  1.00  0.00    -0.359 N 
ATOM      4  HN  UNL     1      61.060  11.407   1.348  1.00  0.00     0.166 HD
HETATM    5  C   UNL     1      63.114   8.179   3.878  1.00  0.00     0.119 C 
HETATM    6  N   UNL     1      63.587   7.198   4.282  1.00  0.00    -0.190 NA
HETATM    7  C   UNL     1      61.821  11.475   3.299  1.00  0.00     0.183 A 
HETATM    8  C   UNL     1      61.969   9.652   2.194  1.00  0.00     0.130 A 
HETATM    9  C   UNL     1      62.913  10.814   5.451  1.00  0.00     0.158 C 
ENDROOT
TORSDOF 0
ENDMDL
MODEL 8
REMARK VINA RESULT:      -3.2      1.554      2.649
REMARK  0 active torsions:
REMARK  status: ('A' for Active; 'I' for Inactive)
ROOT
HETATM    1  C   UNL     1      63.525   8.633   3.997  1.00  0.00     0.132 A 
HETATM    2  N   UNL     1      62.509   9.493   3.671  1.00  0.00    -0.338 N 
HETATM    3  N   UNL     1      62.323   7.778   2.282  1.00  0.00    -0.359 N 
ATOM      4  HN  UNL     1      61.996   7.159   1.540  1.00  0.00     0.166 HD
HETATM    5  C   UNL     1      64.491   8.809   5.018  1.00  0.00     0.119 C 
HETATM    6  N   UNL     1      65.270   8.978   5.862  1.00  0.00    -0.190 NA
HETATM    7  C   UNL     1      61.810   8.935   2.637  1.00  0.00     0.183 A 
HETATM    8  C   UNL     1      63.391   7.581   3.121  1.00  0.00     0.130 A 
HETATM    9  C   UNL     1      62.224  10.759   4.299  1.00  0.00     0.158 C 
ENDROOT
TORSDOF 0
ENDMDL
MODEL 9
REMARK VINA RESULT:      -3.1      6.266      7.763
REMARK  0 active torsions:
REMARK  status: ('A' for Active; 'I' for Inactive)
ROOT
HETATM    1  C   UNL     1      67.164   6.639   7.611  1.00  0.00     0.132 A 
HETATM    2  N   UNL     1      67.624   5.471   7.059  1.00  0.00    -0.338 N 
HETATM    3  N   UNL     1      67.845   5.238   9.251  1.00  0.00    -0.359 N 
ATOM      4  HN  UNL     1      68.059   4.853  10.171  1.00  0.00     0.166 HD
HETATM    5  C   UNL     1      66.650   7.761   6.915  1.00  0.00     0.119 C 
HETATM    6  N   UNL     1      66.232   8.666   6.321  1.00  0.00    -0.190 NA
HETATM    7  C   UNL     1      68.020   4.658   8.085  1.00  0.00     0.183 A 
HETATM    8  C   UNL     1      67.314   6.472   8.968  1.00  0.00     0.130 A 
HETATM    9  C   UNL     1      67.685   5.154   5.655  1.00  0.00     0.158 C 
ENDROOT
TORSDOF 0
ENDMDL
