MODEL 1
REMARK VINA RESULT:      -6.0      0.000      0.000
REMARK  2 active torsions:
REMARK  status: ('A' for Active; 'I' for Inactive)
REMARK    1  A    between atoms: C_1  and  C_2 
REMARK    2  A    between atoms: C_4  and  C_8 
ROOT
HETATM    1  C   UNL     1      65.069   7.512   6.165  1.00  0.00     0.057 A 
HETATM    2  C   UNL     1      64.549   8.458   5.272  1.00  0.00     0.033 A 
HETATM    3  C   UNL     1      63.264   8.298   4.724  1.00  0.00    -0.009 A 
HETATM    4  N   UNL     1      63.029   6.235   6.026  1.00  0.00    -0.373 N 
ATOM      5  HN  UNL     1      62.465   5.432   6.305  1.00  0.00     0.164 HD
HETATM    6  C   UNL     1      64.275   6.431   6.513  1.00  0.00     0.106 A 
HETATM    7  C   UNL     1      62.567   7.161   5.147  1.00  0.00     0.100 A 
ENDROOT
BRANCH   3   8
HETATM    8  C   UNL     1      62.698   9.247   3.737  1.00  0.00    -0.025 A 
HETATM    9  C   UNL     1      62.329  10.555   4.103  1.00  0.00     0.012 A 
HETATM   10  C   UNL     1      61.829  11.466   3.165  1.00  0.00     0.001 A 
HETATM   11  C   UNL     1      61.693  11.092   1.833  1.00  0.00     0.000 A 
HETATM   12  C   UNL     1      62.041   9.804   1.443  1.00  0.00     0.001 A 
HETATM   13  C   UNL     1      62.529   8.891   2.385  1.00  0.00     0.012 A 
ENDBRANCH   3   8
BRANCH   1  14
HETATM   14  C   UNL     1      66.423   7.599   6.742  1.00  0.00     0.210 C 
HETATM   15  O   UNL     1      67.151   6.659   6.996  1.00  0.00    -0.644 OA
HETATM   16  O   UNL     1      66.815   8.868   6.958  1.00  0.00    -0.644 OA
ENDBRANCH   1  14
TORSDOF 2
ENDMDL
MODEL 2
REMARK VINA RESULT:      -5.8      0.239      1.263
REMARK  2 active torsions:
REMARK  status: ('A' for Active; 'I' for Inactive)
REMARK    1  A    between atoms: C_1  and  C_2 
REMARK    2  A    between atoms: C_4  and  C_8 
ROOT
HETATM    1  C   UNL     1      65.154   7.503   6.114  1.00  0.00     0.057 A 
HETATM    2  C   UNL     1      64.653   8.457   5.218  1.00  0.00     0.033 A 
HETATM    3  C   UNL     1      63.322   8.393   4.770  1.00  0.00    -0.009 A 
HETATM    4  N   UNL     1      63.005   6.413   6.180  1.00  0.00    -0.373 N 
ATOM      5  HN  UNL     1      62.395   5.676   6.535  1.00  0.00     0.164 HD
HETATM    6  C   UNL     1      64.297   6.514   6.566  1.00  0.00     0.106 A 
HETATM    7  C   UNL     1      62.561   7.342   5.295  1.00  0.00     0.100 A 
ENDROOT
BRANCH   3   8
HETATM    8  C   UNL     1      62.768   9.350   3.784  1.00  0.00    -0.025 A 
HETATM    9  C   UNL     1      62.561   8.985   2.440  1.00  0.00     0.012 A 
HETATM   10  C   UNL     1      62.003   9.875   1.516  1.00  0.00     0.001 A 
HETATM   11  C   UNL     1      61.630  11.153   1.916  1.00  0.00     0.000 A 
HETATM   12  C   UNL     1      61.830  11.547   3.234  1.00  0.00     0.001 A 
HETATM   13  C   UNL     1      62.400  10.659   4.154  1.00  0.00     0.012 A 
ENDBRANCH   3   8
BRANCH   1  14
HETATM   14  C   UNL     1      66.550   7.490   6.588  1.00  0.00     0.210 C 
HETATM   15  O   UNL     1      67.356   6.598   6.403  1.00  0.00    -0.644 OA
HETATM   16  O   UNL     1      66.882   8.608   7.258  1.00  0.00    -0.644 OA
ENDBRANCH   1  14
TORSDOF 2
ENDMDL
MODEL 3
REMARK VINA RESULT:      -5.6      2.947      5.548
REMARK  2 active torsions:
REMARK  status: ('A' for Active; 'I' for Inactive)
REMARK    1  A    between atoms: C_1  and  C_2 
REMARK    2  A    between atoms: C_4  and  C_8 
ROOT
HETATM    1  C   UNL     1      62.230   9.849   3.788  1.00  0.00     0.057 A 
HETATM    2  C   UNL     1      63.379   9.429   4.471  1.00  0.00     0.033 A 
HETATM    3  C   UNL     1      63.534   8.087   4.860  1.00  0.00    -0.009 A 
HETATM    4  N   UNL     1      61.367   7.598   3.823  1.00  0.00    -0.373 N 
ATOM      5  HN  UNL     1      60.642   6.923   3.581  1.00  0.00     0.164 HD
HETATM    6  C   UNL     1      61.264   8.903   3.485  1.00  0.00     0.106 A 
HETATM    7  C   UNL     1      62.485   7.232   4.502  1.00  0.00     0.100 A 
ENDROOT
BRANCH   3   8
HETATM    8  C   UNL     1      64.708   7.613   5.628  1.00  0.00    -0.025 A 
HETATM    9  C   UNL     1      64.567   6.740   6.723  1.00  0.00     0.012 A 
HETATM   10  C   UNL     1      65.678   6.260   7.426  1.00  0.00     0.001 A 
HETATM   11  C   UNL     1      66.961   6.636   7.045  1.00  0.00     0.000 A 
HETATM   12  C   UNL     1      67.132   7.505   5.973  1.00  0.00     0.001 A 
HETATM   13  C   UNL     1      66.019   7.993   5.279  1.00  0.00     0.012 A 
ENDBRANCH   3   8
BRANCH   1  14
HETATM   14  C   UNL     1      61.989  11.248   3.390  1.00  0.00     0.210 C 
HETATM   15  O   UNL     1      61.911  11.659   2.248  1.00  0.00    -0.644 OA
HETATM   16  O   UNL     1      61.834  12.069   4.443  1.00  0.00    -0.644 OA
ENDBRANCH   1  14
TORSDOF 2
ENDMDL
MODEL 4
REMARK VINA RESULT:      -5.4      2.053      3.085
REMARK  2 active torsions:
REMARK  status: ('A' for Active; 'I' for Inactive)
REMARK    1  A    between atoms: C_1  and  C_2 
REMARK    2  A    between atoms: C_4  and  C_8 
ROOT
HETATM    1  C   UNL     1      66.658   6.376   7.013  1.00  0.00     0.057 A 
HETATM    2  C   UNL     1      65.536   7.092   6.577  1.00  0.00     0.033 A 
HETATM    3  C   UNL     1      65.481   7.617   5.274  1.00  0.00    -0.009 A 
HETATM    4  N   UNL     1      67.693   6.648   4.853  1.00  0.00    -0.373 N 
ATOM      5  HN  UNL     1      68.471   6.481   4.216  1.00  0.00     0.164 HD
HETATM    6  C   UNL     1      67.698   6.177   6.121  1.00  0.00     0.106 A 
HETATM    7  C   UNL     1      66.598   7.355   4.472  1.00  0.00     0.100 A 
ENDROOT
BRANCH   3   8
HETATM    8  C   UNL     1      64.336   8.424   4.790  1.00  0.00    -0.025 A 
HETATM    9  C   UNL     1      63.581   8.030   3.668  1.00  0.00     0.012 A 
HETATM   10  C   UNL     1      62.477   8.770   3.233  1.00  0.00     0.001 A 
HETATM   11  C   UNL     1      62.094   9.920   3.913  1.00  0.00     0.000 A 
HETATM   12  C   UNL     1      62.825  10.339   5.019  1.00  0.00     0.001 A 
HETATM   13  C   UNL     1      63.937   9.604   5.446  1.00  0.00     0.012 A 
ENDBRANCH   3   8
BRANCH   1  14
HETATM   14  C   UNL     1      66.795   5.836   8.378  1.00  0.00     0.210 C 
HETATM   15  O   UNL     1      66.204   4.872   8.826  1.00  0.00    -0.644 OA
HETATM   16  O   UNL     1      67.686   6.518   9.120  1.00  0.00    -0.644 OA
ENDBRANCH   1  14
TORSDOF 2
ENDMDL
MODEL 5
REMARK VINA RESULT:      -5.2      3.156      5.129
REMARK  2 active torsions:
REMARK  status: ('A' for Active; 'I' for Inactive)
REMARK    1  A    between atoms: C_1  and  C_2 
REMARK    2  A    between atoms: C_4  and  C_8 
ROOT
HETATM    1  C   UNL     1      62.689   9.711   4.417  1.00  0.00     0.057 A 
HETATM    2  C   UNL     1      63.811   8.873   4.385  1.00  0.00     0.033 A 
HETATM    3  C   UNL     1      63.779   7.656   3.682  1.00  0.00    -0.009 A 
HETATM    4  N   UNL     1      61.477   8.171   3.013  1.00  0.00    -0.373 N 
ATOM      5  HN  UNL     1      60.633   7.913   2.502  1.00  0.00     0.164 HD
HETATM    6  C   UNL     1      61.559   9.323   3.716  1.00  0.00     0.106 A 
HETATM    7  C   UNL     1      62.577   7.374   3.023  1.00  0.00     0.100 A 
ENDROOT
BRANCH   3   8
HETATM    8  C   UNL     1      64.924   6.717   3.666  1.00  0.00    -0.025 A 
HETATM    9  C   UNL     1      66.073   6.946   4.447  1.00  0.00     0.012 A 
HETATM   10  C   UNL     1      67.140   6.041   4.463  1.00  0.00     0.001 A 
HETATM   11  C   UNL     1      67.082   4.878   3.702  1.00  0.00     0.000 A 
HETATM   12  C   UNL     1      65.964   4.629   2.914  1.00  0.00     0.001 A 
HETATM   13  C   UNL     1      64.903   5.542   2.890  1.00  0.00     0.012 A 
ENDBRANCH   3   8
BRANCH   1  14
HETATM   14  C   UNL     1      62.644  10.979   5.169  1.00  0.00     0.210 C 
HETATM   15  O   UNL     1      63.166  11.185   6.248  1.00  0.00    -0.644 OA
HETATM   16  O   UNL     1      61.961  11.942   4.525  1.00  0.00    -0.644 OA
ENDBRANCH   1  14
TORSDOF 2
ENDMDL
MODEL 6
REMARK VINA RESULT:      -5.2      1.332      1.843
REMARK  2 active torsions:
REMARK  status: ('A' for Active; 'I' for Inactive)
REMARK    1  A    between atoms: C_1  and  C_2 
REMARK    2  A    between atoms: C_4  and  C_8 
ROOT
HETATM    1  C   UNL     1      64.846   6.486   5.584  1.00  0.00     0.057 A 
HETATM    2  C   UNL     1      64.252   7.657   5.096  1.00  0.00     0.033 A 
HETATM    3  C   UNL     1      63.451   7.630   3.941  1.00  0.00    -0.009 A 
HETATM    4  N   UNL     1      63.829   5.211   3.808  1.00  0.00    -0.373 N 
ATOM      5  HN  UNL     1      63.662   4.321   3.340  1.00  0.00     0.164 HD
HETATM    6  C   UNL     1      64.601   5.298   4.915  1.00  0.00     0.106 A 
HETATM    7  C   UNL     1      63.287   6.370   3.353  1.00  0.00     0.100 A 
ENDROOT
BRANCH   3   8
HETATM    8  C   UNL     1      62.847   8.853   3.363  1.00  0.00    -0.025 A 
HETATM    9  C   UNL     1      62.493   8.926   2.003  1.00  0.00     0.012 A 
HETATM   10  C   UNL     1      61.888  10.066   1.463  1.00  0.00     0.001 A 
HETATM   11  C   UNL     1      61.614  11.162   2.275  1.00  0.00     0.000 A 
HETATM   12  C   UNL     1      61.961  11.123   3.620  1.00  0.00     0.001 A 
HETATM   13  C   UNL     1      62.577   9.986   4.155  1.00  0.00     0.012 A 
ENDBRANCH   3   8
BRANCH   1  14
HETATM   14  C   UNL     1      65.730   6.455   6.764  1.00  0.00     0.210 C 
HETATM   15  O   UNL     1      66.869   6.029   6.789  1.00  0.00    -0.644 OA
HETATM   16  O   UNL     1      65.153   6.979   7.859  1.00  0.00    -0.644 OA
ENDBRANCH   1  14
TORSDOF 2
ENDMDL
MODEL 7
REMARK VINA RESULT:      -5.1      3.168      5.786
REMARK  2 active torsions:
REMARK  status: ('A' for Active; 'I' for Inactive)
REMARK    1  A    between atoms: C_1  and  C_2 
REMARK    2  A    between atoms: C_4  and  C_8 
ROOT
HETATM    1  C   UNL     1      62.271   9.958   2.825  1.00  0.00     0.057 A 
HETATM    2  C   UNL     1      62.840   9.139   3.809  1.00  0.00     0.033 A 
HETATM    3  C   UNL     1      63.123   7.788   3.545  1.00  0.00    -0.009 A 
HETATM    4  N   UNL     1      62.283   8.119   1.266  1.00  0.00    -0.373 N 
ATOM      5  HN  UNL     1      62.091   7.743   0.337  1.00  0.00     0.164 HD
HETATM    6  C   UNL     1      62.019   9.408   1.579  1.00  0.00     0.106 A 
HETATM    7  C   UNL     1      62.815   7.351   2.251  1.00  0.00     0.100 A 
ENDROOT
BRANCH   3   8
HETATM    8  C   UNL     1      63.677   6.876   4.573  1.00  0.00    -0.025 A 
HETATM    9  C   UNL     1      63.717   5.483   4.375  1.00  0.00     0.012 A 
HETATM   10  C   UNL     1      64.274   4.623   5.328  1.00  0.00     0.001 A 
HETATM   11  C   UNL     1      64.813   5.137   6.502  1.00  0.00     0.000 A 
HETATM   12  C   UNL     1      64.779   6.508   6.730  1.00  0.00     0.001 A 
HETATM   13  C   UNL     1      64.211   7.365   5.781  1.00  0.00     0.012 A 
ENDBRANCH   3   8
BRANCH   1  14
HETATM   14  C   UNL     1      61.912  11.370   3.051  1.00  0.00     0.210 C 
HETATM   15  O   UNL     1      61.737  11.895   4.134  1.00  0.00    -0.644 OA
HETATM   16  O   UNL     1      61.808  12.070   1.908  1.00  0.00    -0.644 OA
ENDBRANCH   1  14
TORSDOF 2
ENDMDL
MODEL 8
REMARK VINA RESULT:      -4.9      3.296      5.842
REMARK  2 active torsions:
REMARK  status: ('A' for Active; 'I' for Inactive)
REMARK    1  A    between atoms: C_1  and  C_2 
REMARK    2  A    between atoms: C_4  and  C_8 
ROOT
HETATM    1  C   UNL     1      62.389   9.010   3.101  1.00  0.00     0.057 A 
HETATM    2  C   UNL     1      63.380   8.211   3.687  1.00  0.00     0.033 A 
HETATM    3  C   UNL     1      64.018   8.614   4.873  1.00  0.00    -0.009 A 
HETATM    4  N   UNL     1      62.608  10.619   4.882  1.00  0.00    -0.373 N 
ATOM      5  HN  UNL     1      62.324  11.490   5.329  1.00  0.00     0.164 HD
HETATM    6  C   UNL     1      62.037  10.190   3.734  1.00  0.00     0.106 A 
HETATM    7  C   UNL     1      63.579   9.830   5.410  1.00  0.00     0.100 A 
ENDROOT
BRANCH   3   8
HETATM    8  C   UNL     1      65.107   7.826   5.497  1.00  0.00    -0.025 A 
HETATM    9  C   UNL     1      64.855   6.939   6.561  1.00  0.00     0.012 A 
HETATM   10  C   UNL     1      65.875   6.165   7.126  1.00  0.00     0.001 A 
HETATM   11  C   UNL     1      67.173   6.253   6.635  1.00  0.00     0.000 A 
HETATM   12  C   UNL     1      67.454   7.127   5.591  1.00  0.00     0.001 A 
HETATM   13  C   UNL     1      66.435   7.909   5.035  1.00  0.00     0.012 A 
ENDBRANCH   3   8
BRANCH   1  14
HETATM   14  C   UNL     1      61.712   8.665   1.837  1.00  0.00     0.210 C 
HETATM   15  O   UNL     1      61.708   9.338   0.824  1.00  0.00    -0.644 OA
HETATM   16  O   UNL     1      61.083   7.477   1.891  1.00  0.00    -0.644 OA
ENDBRANCH   1  14
TORSDOF 2
ENDMDL
MODEL 9
REMARK VINA RESULT:      -4.9      1.771      2.343
REMARK  2 active torsions:
REMARK  status: ('A' for Active; 'I' for Inactive)
REMARK    1  A    between atoms: C_1  and  C_2 
REMARK    2  A    between atoms: C_4  and  C_8 
ROOT
HETATM    1  C   UNL     1      65.391   6.028   5.090  1.00  0.00     0.057 A 
HETATM    2  C   UNL     1      64.782   6.834   4.119  1.00  0.00     0.033 A 
HETATM    3  C   UNL     1      63.773   7.746   4.473  1.00  0.00    -0.009 A 
HETATM    4  N   UNL     1      64.036   7.042   6.806  1.00  0.00    -0.373 N 
ATOM      5  HN  UNL     1      63.766   7.131   7.786  1.00  0.00     0.164 HD
HETATM    6  C   UNL     1      64.992   6.173   6.409  1.00  0.00     0.106 A 
HETATM    7  C   UNL     1      63.454   7.792   5.835  1.00  0.00     0.100 A 
ENDROOT
BRANCH   3   8
HETATM    8  C   UNL     1      63.068   8.579   3.471  1.00  0.00    -0.025 A 
HETATM    9  C   UNL     1      62.825   8.111   2.166  1.00  0.00     0.012 A 
HETATM   10  C   UNL     1      62.126   8.880   1.229  1.00  0.00     0.001 A 
HETATM   11  C   UNL     1      61.644  10.137   1.579  1.00  0.00     0.000 A 
HETATM   12  C   UNL     1      61.875  10.630   2.858  1.00  0.00     0.001 A 
HETATM   13  C   UNL     1      62.585   9.863   3.789  1.00  0.00     0.012 A 
ENDBRANCH   3   8
BRANCH   1  14
HETATM   14  C   UNL     1      66.425   5.024   4.779  1.00  0.00     0.210 C 
HETATM   15  O   UNL     1      66.221   3.880   4.418  1.00  0.00    -0.644 OA
HETATM   16  O   UNL     1      67.674   5.504   4.915  1.00  0.00    -0.644 OA
ENDBRANCH   1  14
TORSDOF 2
ENDMDL
