MODEL 1
REMARK VINA RESULT:      -5.4      0.000      0.000
REMARK  1 active torsions:
REMARK  status: ('A' for Active; 'I' for Inactive)
REMARK    1  A    between atoms: N_1  and  C_4 
ROOT
HETATM    1  C   UNL     1      62.706   9.145   3.822  1.00  0.00     0.076 A 
HETATM    2  N   UNL     1      63.200  11.418   6.544  1.00  0.00    -0.191 NA
HETATM    3  C   UNL     1      62.894  10.989   5.512  1.00  0.00     0.102 C 
HETATM    4  C   UNL     1      62.505  10.475   4.228  1.00  0.00     0.073 A 
HETATM    5  C   UNL     1      62.424   8.779   2.491  1.00  0.00     0.033 A 
HETATM    6  C   UNL     1      61.990  11.405   3.305  1.00  0.00     0.025 A 
HETATM    7  C   UNL     1      61.896   9.710   1.593  1.00  0.00     0.002 A 
HETATM    8  C   UNL     1      61.676  11.021   2.002  1.00  0.00     0.002 A 
ENDROOT
BRANCH   1   9
HETATM    9  N   UNL     1      63.197   8.133   4.693  1.00  0.00    -0.267 N 
HETATM   10  N   UNL     1      64.532   7.889   4.781  1.00  0.00    -0.305 N 
HETATM   11  C   UNL     1      64.645   6.976   5.747  1.00  0.00     0.109 A 
ATOM     12  HN  UNL     1      65.280   8.310   4.230  1.00  0.00     0.186 HD
HETATM   13  C   UNL     1      63.401   6.533   6.213  1.00  0.00     0.038 A 
HETATM   14  C   UNL     1      62.487   7.267   5.497  1.00  0.00     0.118 A 
ENDBRANCH   1   9
TORSDOF 1
ENDMDL
MODEL 2
REMARK VINA RESULT:      -5.1      1.536      3.080
REMARK  1 active torsions:
REMARK  status: ('A' for Active; 'I' for Inactive)
REMARK    1  A    between atoms: N_1  and  C_4 
ROOT
HETATM    1  C   UNL     1      63.524   8.995   4.710  1.00  0.00     0.076 A 
HETATM    2  N   UNL     1      63.513   6.301   2.351  1.00  0.00    -0.191 NA
HETATM    3  C   UNL     1      63.321   7.333   2.842  1.00  0.00     0.102 C 
HETATM    4  C   UNL     1      63.075   8.619   3.433  1.00  0.00     0.073 A 
HETATM    5  C   UNL     1      63.103  10.223   5.256  1.00  0.00     0.033 A 
HETATM    6  C   UNL     1      62.244   9.496   2.711  1.00  0.00     0.025 A 
HETATM    7  C   UNL     1      62.294  11.090   4.518  1.00  0.00     0.002 A 
HETATM    8  C   UNL     1      61.868  10.729   3.245  1.00  0.00     0.002 A 
ENDROOT
BRANCH   1   9
HETATM    9  N   UNL     1      64.386   8.184   5.500  1.00  0.00    -0.267 N 
HETATM   10  N   UNL     1      63.876   7.378   6.469  1.00  0.00    -0.305 N 
HETATM   11  C   UNL     1      64.926   6.694   6.927  1.00  0.00     0.109 A 
ATOM     12  HN  UNL     1      62.906   7.312   6.777  1.00  0.00     0.186 HD
HETATM   13  C   UNL     1      66.132   7.120   6.356  1.00  0.00     0.038 A 
HETATM   14  C   UNL     1      65.762   8.101   5.467  1.00  0.00     0.118 A 
ENDBRANCH   1   9
TORSDOF 1
ENDMDL
MODEL 3
REMARK VINA RESULT:      -5.0      1.117      2.763
REMARK  1 active torsions:
REMARK  status: ('A' for Active; 'I' for Inactive)
REMARK    1  A    between atoms: N_1  and  C_4 
ROOT
HETATM    1  C   UNL     1      62.610   9.229   3.770  1.00  0.00     0.076 A 
HETATM    2  N   UNL     1      62.753   6.579   1.367  1.00  0.00    -0.191 NA
HETATM    3  C   UNL     1      62.624   7.630   1.838  1.00  0.00     0.102 C 
HETATM    4  C   UNL     1      62.463   8.941   2.403  1.00  0.00     0.073 A 
HETATM    5  C   UNL     1      62.286  10.516   4.242  1.00  0.00     0.033 A 
HETATM    6  C   UNL     1      62.031   9.956   1.529  1.00  0.00     0.025 A 
HETATM    7  C   UNL     1      61.876  11.517   3.359  1.00  0.00     0.002 A 
HETATM    8  C   UNL     1      61.753  11.238   2.002  1.00  0.00     0.002 A 
ENDROOT
BRANCH   1   9
HETATM    9  N   UNL     1      63.065   8.274   4.721  1.00  0.00    -0.267 N 
HETATM   10  N   UNL     1      64.390   8.167   5.008  1.00  0.00    -0.305 N 
HETATM   11  C   UNL     1      64.450   7.272   5.995  1.00  0.00     0.109 A 
ATOM     12  HN  UNL     1      65.165   8.661   4.566  1.00  0.00     0.186 HD
HETATM   13  C   UNL     1      63.201   6.706   6.281  1.00  0.00     0.038 A 
HETATM   14  C   UNL     1      62.334   7.342   5.425  1.00  0.00     0.118 A 
ENDBRANCH   1   9
TORSDOF 1
ENDMDL
MODEL 4
REMARK VINA RESULT:      -4.7      2.006      2.690
REMARK  1 active torsions:
REMARK  status: ('A' for Active; 'I' for Inactive)
REMARK    1  A    between atoms: N_1  and  C_4 
ROOT
HETATM    1  C   UNL     1      62.374   8.708   2.884  1.00  0.00     0.076 A 
HETATM    2  N   UNL     1      63.188   8.110   6.319  1.00  0.00    -0.191 NA
HETATM    3  C   UNL     1      62.856   8.642   5.345  1.00  0.00     0.102 C 
HETATM    4  C   UNL     1      62.439   9.319   4.148  1.00  0.00     0.073 A 
HETATM    5  C   UNL     1      62.096   9.497   1.750  1.00  0.00     0.033 A 
HETATM    6  C   UNL     1      62.186  10.699   4.259  1.00  0.00     0.025 A 
HETATM    7  C   UNL     1      61.830  10.862   1.880  1.00  0.00     0.002 A 
HETATM    8  C   UNL     1      61.871  11.462   3.134  1.00  0.00     0.002 A 
ENDROOT
BRANCH   1   9
HETATM    9  N   UNL     1      62.589   7.317   2.682  1.00  0.00    -0.267 N 
HETATM   10  N   UNL     1      61.534   6.460   2.623  1.00  0.00    -0.305 N 
HETATM   11  C   UNL     1      62.076   5.279   2.321  1.00  0.00     0.109 A 
ATOM     12  HN  UNL     1      60.549   6.674   2.775  1.00  0.00     0.186 HD
HETATM   13  C   UNL     1      63.476   5.323   2.296  1.00  0.00     0.038 A 
HETATM   14  C   UNL     1      63.781   6.636   2.565  1.00  0.00     0.118 A 
ENDBRANCH   1   9
TORSDOF 1
ENDMDL
MODEL 5
REMARK VINA RESULT:      -4.7      1.487      4.775
REMARK  1 active torsions:
REMARK  status: ('A' for Active; 'I' for Inactive)
REMARK    1  A    between atoms: N_1  and  C_4 
ROOT
HETATM    1  C   UNL     1      64.389   8.131   5.306  1.00  0.00     0.076 A 
HETATM    2  N   UNL     1      61.512   6.555   6.741  1.00  0.00    -0.191 NA
HETATM    3  C   UNL     1      62.608   6.770   6.431  1.00  0.00     0.102 C 
HETATM    4  C   UNL     1      63.973   7.020   6.060  1.00  0.00     0.073 A 
HETATM    5  C   UNL     1      65.727   8.206   4.870  1.00  0.00     0.033 A 
HETATM    6  C   UNL     1      64.911   6.025   6.394  1.00  0.00     0.025 A 
HETATM    7  C   UNL     1      66.649   7.219   5.225  1.00  0.00     0.002 A 
HETATM    8  C   UNL     1      66.242   6.132   5.990  1.00  0.00     0.002 A 
ENDROOT
BRANCH   1   9
HETATM    9  N   UNL     1      63.518   9.196   4.946  1.00  0.00    -0.267 N 
HETATM   10  N   UNL     1      63.393  10.285   5.751  1.00  0.00    -0.305 N 
HETATM   11  C   UNL     1      62.600  11.116   5.073  1.00  0.00     0.109 A 
ATOM     12  HN  UNL     1      63.814  10.433   6.668  1.00  0.00     0.186 HD
HETATM   13  C   UNL     1      62.109  10.543   3.893  1.00  0.00     0.038 A 
HETATM   14  C   UNL     1      62.687   9.297   3.851  1.00  0.00     0.118 A 
ENDBRANCH   1   9
TORSDOF 1
ENDMDL
MODEL 6
REMARK VINA RESULT:      -4.6      1.679      4.365
REMARK  1 active torsions:
REMARK  status: ('A' for Active; 'I' for Inactive)
REMARK    1  A    between atoms: N_1  and  C_4 
ROOT
HETATM    1  C   UNL     1      61.759   7.894   4.259  1.00  0.00     0.076 A 
HETATM    2  N   UNL     1      64.868   9.208   5.455  1.00  0.00    -0.191 NA
HETATM    3  C   UNL     1      63.929   8.539   5.340  1.00  0.00     0.102 C 
HETATM    4  C   UNL     1      62.773   7.695   5.211  1.00  0.00     0.073 A 
HETATM    5  C   UNL     1      60.597   7.100   4.313  1.00  0.00     0.033 A 
HETATM    6  C   UNL     1      62.623   6.680   6.174  1.00  0.00     0.025 A 
HETATM    7  C   UNL     1      60.471   6.084   5.263  1.00  0.00     0.002 A 
HETATM    8  C   UNL     1      61.485   5.872   6.191  1.00  0.00     0.002 A 
ENDROOT
BRANCH   1   9
HETATM    9  N   UNL     1      61.838   8.878   3.234  1.00  0.00    -0.267 N 
HETATM   10  N   UNL     1      61.480  10.165   3.487  1.00  0.00    -0.305 N 
HETATM   11  C   UNL     1      61.775  10.824   2.365  1.00  0.00     0.109 A 
ATOM     12  HN  UNL     1      61.075  10.542   4.344  1.00  0.00     0.186 HD
HETATM   13  C   UNL     1      62.212   9.971   1.343  1.00  0.00     0.038 A 
HETATM   14  C   UNL     1      62.211   8.722   1.916  1.00  0.00     0.118 A 
ENDBRANCH   1   9
TORSDOF 1
ENDMDL
MODEL 7
REMARK VINA RESULT:      -4.4      3.101      6.754
REMARK  1 active torsions:
REMARK  status: ('A' for Active; 'I' for Inactive)
REMARK    1  A    between atoms: N_1  and  C_4 
ROOT
HETATM    1  C   UNL     1      66.248   6.591   7.087  1.00  0.00     0.076 A 
HETATM    2  N   UNL     1      67.289   5.100   4.003  1.00  0.00    -0.191 NA
HETATM    3  C   UNL     1      67.204   5.343   5.133  1.00  0.00     0.102 C 
HETATM    4  C   UNL     1      67.111   5.628   6.538  1.00  0.00     0.073 A 
HETATM    5  C   UNL     1      66.340   6.897   8.459  1.00  0.00     0.033 A 
HETATM    6  C   UNL     1      68.022   4.962   7.378  1.00  0.00     0.025 A 
HETATM    7  C   UNL     1      67.237   6.214   9.283  1.00  0.00     0.002 A 
HETATM    8  C   UNL     1      68.075   5.244   8.743  1.00  0.00     0.002 A 
ENDROOT
BRANCH   1   9
HETATM    9  N   UNL     1      65.278   7.293   6.319  1.00  0.00    -0.267 N 
HETATM   10  N   UNL     1      63.972   6.914   6.348  1.00  0.00    -0.305 N 
HETATM   11  C   UNL     1      63.338   7.833   5.618  1.00  0.00     0.109 A 
ATOM     12  HN  UNL     1      63.568   6.107   6.822  1.00  0.00     0.186 HD
HETATM   13  C   UNL     1      64.220   8.740   5.016  1.00  0.00     0.038 A 
HETATM   14  C   UNL     1      65.462   8.351   5.456  1.00  0.00     0.118 A 
ENDBRANCH   1   9
TORSDOF 1
ENDMDL
MODEL 8
REMARK VINA RESULT:      -4.4      2.180      4.022
REMARK  1 active torsions:
REMARK  status: ('A' for Active; 'I' for Inactive)
REMARK    1  A    between atoms: N_1  and  C_4 
ROOT
HETATM    1  C   UNL     1      62.803   8.033   3.326  1.00  0.00     0.076 A 
HETATM    2  N   UNL     1      61.762  11.344   4.206  1.00  0.00    -0.191 NA
HETATM    3  C   UNL     1      62.371  10.359   4.160  1.00  0.00     0.102 C 
HETATM    4  C   UNL     1      63.140   9.147   4.114  1.00  0.00     0.073 A 
HETATM    5  C   UNL     1      63.540   6.841   3.465  1.00  0.00     0.033 A 
HETATM    6  C   UNL     1      64.231   9.057   4.998  1.00  0.00     0.025 A 
HETATM    7  C   UNL     1      64.631   6.775   4.334  1.00  0.00     0.002 A 
HETATM    8  C   UNL     1      64.979   7.884   5.097  1.00  0.00     0.002 A 
ENDROOT
BRANCH   1   9
HETATM    9  N   UNL     1      61.734   8.041   2.387  1.00  0.00    -0.267 N 
HETATM   10  N   UNL     1      61.943   8.461   1.110  1.00  0.00    -0.305 N 
HETATM   11  C   UNL     1      60.784   8.239   0.488  1.00  0.00     0.109 A 
ATOM     12  HN  UNL     1      62.796   8.856   0.717  1.00  0.00     0.186 HD
HETATM   13  C   UNL     1      59.785   7.791   1.362  1.00  0.00     0.038 A 
HETATM   14  C   UNL     1      60.412   7.704   2.582  1.00  0.00     0.118 A 
ENDBRANCH   1   9
TORSDOF 1
ENDMDL
MODEL 9
REMARK VINA RESULT:      -4.2      4.748      6.665
REMARK  1 active torsions:
REMARK  status: ('A' for Active; 'I' for Inactive)
REMARK    1  A    between atoms: N_1  and  C_4 
ROOT
HETATM    1  C   UNL     1      67.068   5.504   6.564  1.00  0.00     0.076 A 
HETATM    2  N   UNL     1      65.790   8.816   6.095  1.00  0.00    -0.191 NA
HETATM    3  C   UNL     1      66.301   7.893   6.573  1.00  0.00     0.102 C 
HETATM    4  C   UNL     1      66.941   6.760   7.182  1.00  0.00     0.073 A 
HETATM    5  C   UNL     1      67.579   4.420   7.303  1.00  0.00     0.033 A 
HETATM    6  C   UNL     1      67.363   6.915   8.516  1.00  0.00     0.025 A 
HETATM    7  C   UNL     1      68.011   4.596   8.620  1.00  0.00     0.002 A 
HETATM    8  C   UNL     1      67.907   5.843   9.224  1.00  0.00     0.002 A 
ENDROOT
BRANCH   1   9
HETATM    9  N   UNL     1      66.692   5.263   5.213  1.00  0.00    -0.267 N 
HETATM   10  N   UNL     1      67.538   5.578   4.197  1.00  0.00    -0.305 N 
HETATM   11  C   UNL     1      66.929   5.128   3.099  1.00  0.00     0.109 A 
ATOM     12  HN  UNL     1      68.438   6.053   4.260  1.00  0.00     0.186 HD
HETATM   13  C   UNL     1      65.647   4.629   3.365  1.00  0.00     0.038 A 
HETATM   14  C   UNL     1      65.506   4.757   4.725  1.00  0.00     0.118 A 
ENDBRANCH   1   9
TORSDOF 1
ENDMDL
