MODEL 1
REMARK VINA RESULT:      -5.5      0.000      0.000
REMARK  2 active torsions:
REMARK  status: ('A' for Active; 'I' for Inactive)
REMARK    1  A    between atoms: C_1  and  C_3 
REMARK    2  A    between atoms: C_2  and  N_4 
ROOT
HETATM    1  C   UNL     1      62.485   9.698   3.580  1.00  0.00     0.067 A 
HETATM    2  C   UNL     1      63.108   8.430   3.483  1.00  0.00     0.047 A 
HETATM    3  C   UNL     1      61.792  10.251   2.481  1.00  0.00     0.021 A 
HETATM    4  C   UNL     1      62.985   7.763   2.245  1.00  0.00     0.030 A 
HETATM    5  C   UNL     1      61.702   9.562   1.276  1.00  0.00     0.001 A 
HETATM    6  C   UNL     1      62.299   8.316   1.159  1.00  0.00     0.002 A 
ENDROOT
BRANCH   2   7
HETATM    7  N   UNL     1      63.841   7.859   4.515  1.00  0.00    -0.376 N 
HETATM    8  C   UNL     1      65.310   7.958   4.565  1.00  0.00     0.149 C 
HETATM    9  C   UNL     1      65.759   7.870   6.034  1.00  0.00     0.187 C 
HETATM   10  O   UNL     1      65.302   6.654   6.654  1.00  0.00    -0.388 OA
HETATM   11  C   UNL     1      63.864   6.587   6.609  1.00  0.00     0.187 C 
HETATM   12  C   UNL     1      63.348   6.624   5.160  1.00  0.00     0.149 C 
ENDBRANCH   2   7
BRANCH   1  13
HETATM   13  C   UNL     1      62.612  10.562   4.791  1.00  0.00     0.211 C 
HETATM   14  O   UNL     1      63.093  10.289   5.875  1.00  0.00    -0.644 OA
HETATM   15  O   UNL     1      62.065  11.779   4.586  1.00  0.00    -0.644 OA
ENDBRANCH   1  13
TORSDOF 2
ENDMDL
MODEL 2
REMARK VINA RESULT:      -5.2      1.530      1.707
REMARK  2 active torsions:
REMARK  status: ('A' for Active; 'I' for Inactive)
REMARK    1  A    between atoms: C_1  and  C_3 
REMARK    2  A    between atoms: C_2  and  N_4 
ROOT
HETATM    1  C   UNL     1      62.568   9.630   4.057  1.00  0.00     0.067 A 
HETATM    2  C   UNL     1      62.724   8.471   3.258  1.00  0.00     0.047 A 
HETATM    3  C   UNL     1      62.113  10.842   3.494  1.00  0.00     0.021 A 
HETATM    4  C   UNL     1      62.393   8.601   1.892  1.00  0.00     0.030 A 
HETATM    5  C   UNL     1      61.806  10.928   2.141  1.00  0.00     0.001 A 
HETATM    6  C   UNL     1      61.944   9.806   1.339  1.00  0.00     0.002 A 
ENDROOT
BRANCH   2   7
HETATM    7  N   UNL     1      63.211   7.266   3.747  1.00  0.00    -0.376 N 
HETATM    8  C   UNL     1      64.622   6.878   3.578  1.00  0.00     0.149 C 
HETATM    9  C   UNL     1      65.011   5.928   4.724  1.00  0.00     0.187 C 
HETATM   10  O   UNL     1      64.158   4.769   4.762  1.00  0.00    -0.388 OA
HETATM   11  C   UNL     1      62.787   5.171   4.944  1.00  0.00     0.187 C 
HETATM   12  C   UNL     1      62.317   6.091   3.803  1.00  0.00     0.149 C 
ENDBRANCH   2   7
BRANCH   1  13
HETATM   13  C   UNL     1      62.970   9.671   5.494  1.00  0.00     0.211 C 
HETATM   14  O   UNL     1      62.938   8.779   6.321  1.00  0.00    -0.644 OA
HETATM   15  O   UNL     1      63.380  10.906   5.854  1.00  0.00    -0.644 OA
ENDBRANCH   1  13
TORSDOF 2
ENDMDL
MODEL 3
REMARK VINA RESULT:      -5.2      2.117      3.046
REMARK  2 active torsions:
REMARK  status: ('A' for Active; 'I' for Inactive)
REMARK    1  A    between atoms: C_1  and  C_3 
REMARK    2  A    between atoms: C_2  and  N_4 
ROOT
HETATM    1  C   UNL     1      62.511   8.797   2.571  1.00  0.00     0.067 A 
HETATM    2  C   UNL     1      62.830   9.200   3.891  1.00  0.00     0.047 A 
HETATM    3  C   UNL     1      61.911   9.697   1.664  1.00  0.00     0.021 A 
HETATM    4  C   UNL     1      62.523  10.535   4.231  1.00  0.00     0.030 A 
HETATM    5  C   UNL     1      61.619  11.002   2.044  1.00  0.00     0.001 A 
HETATM    6  C   UNL     1      61.927  11.422   3.329  1.00  0.00     0.002 A 
ENDROOT
BRANCH   2   7
HETATM    7  N   UNL     1      63.378   8.346   4.839  1.00  0.00    -0.376 N 
HETATM    8  C   UNL     1      62.554   7.736   5.897  1.00  0.00     0.149 C 
HETATM    9  C   UNL     1      63.205   6.409   6.324  1.00  0.00     0.187 C 
HETATM   10  O   UNL     1      64.558   6.605   6.773  1.00  0.00    -0.388 OA
HETATM   11  C   UNL     1      65.349   7.186   5.718  1.00  0.00     0.187 C 
HETATM   12  C   UNL     1      64.777   8.543   5.273  1.00  0.00     0.149 C 
ENDBRANCH   2   7
BRANCH   1  13
HETATM   13  C   UNL     1      62.688   7.391   2.100  1.00  0.00     0.211 C 
HETATM   14  O   UNL     1      63.714   6.749   1.984  1.00  0.00    -0.644 OA
HETATM   15  O   UNL     1      61.508   6.843   1.740  1.00  0.00    -0.644 OA
ENDBRANCH   1  13
TORSDOF 2
ENDMDL
MODEL 4
REMARK VINA RESULT:      -5.0      1.906      2.682
REMARK  2 active torsions:
REMARK  status: ('A' for Active; 'I' for Inactive)
REMARK    1  A    between atoms: C_1  and  C_3 
REMARK    2  A    between atoms: C_2  and  N_4 
ROOT
HETATM    1  C   UNL     1      62.785   9.156   4.035  1.00  0.00     0.067 A 
HETATM    2  C   UNL     1      62.840   8.169   3.021  1.00  0.00     0.047 A 
HETATM    3  C   UNL     1      62.296  10.451   3.760  1.00  0.00     0.021 A 
HETATM    4  C   UNL     1      62.374   8.554   1.745  1.00  0.00     0.030 A 
HETATM    5  C   UNL     1      61.853  10.790   2.486  1.00  0.00     0.001 A 
HETATM    6  C   UNL     1      61.891   9.839   1.477  1.00  0.00     0.002 A 
ENDROOT
BRANCH   2   7
HETATM    7  N   UNL     1      63.355   6.895   3.222  1.00  0.00    -0.376 N 
HETATM    8  C   UNL     1      62.558   5.832   3.859  1.00  0.00     0.149 C 
HETATM    9  C   UNL     1      63.065   4.469   3.354  1.00  0.00     0.187 C 
HETATM   10  O   UNL     1      64.467   4.295   3.623  1.00  0.00    -0.388 OA
HETATM   11  C   UNL     1      65.227   5.334   2.977  1.00  0.00     0.187 C 
HETATM   12  C   UNL     1      64.801   6.727   3.472  1.00  0.00     0.149 C 
ENDBRANCH   2   7
BRANCH   1  13
HETATM   13  C   UNL     1      63.332   8.926   5.405  1.00  0.00     0.211 C 
HETATM   14  O   UNL     1      62.841   8.304   6.328  1.00  0.00    -0.644 OA
HETATM   15  O   UNL     1      64.516   9.554   5.573  1.00  0.00    -0.644 OA
ENDBRANCH   1  13
TORSDOF 2
ENDMDL
MODEL 5
REMARK VINA RESULT:      -4.9      1.525      1.898
REMARK  2 active torsions:
REMARK  status: ('A' for Active; 'I' for Inactive)
REMARK    1  A    between atoms: C_1  and  C_3 
REMARK    2  A    between atoms: C_2  and  N_4 
ROOT
HETATM    1  C   UNL     1      63.581   8.485   4.062  1.00  0.00     0.067 A 
HETATM    2  C   UNL     1      64.377   7.316   3.981  1.00  0.00     0.047 A 
HETATM    3  C   UNL     1      62.592   8.756   3.091  1.00  0.00     0.021 A 
HETATM    4  C   UNL     1      64.116   6.453   2.895  1.00  0.00     0.030 A 
HETATM    5  C   UNL     1      62.373   7.881   2.033  1.00  0.00     0.001 A 
HETATM    6  C   UNL     1      63.135   6.727   1.936  1.00  0.00     0.002 A 
ENDROOT
BRANCH   2   7
HETATM    7  N   UNL     1      65.395   7.022   4.879  1.00  0.00    -0.376 N 
HETATM    8  C   UNL     1      66.796   6.891   4.442  1.00  0.00     0.149 C 
HETATM    9  C   UNL     1      67.714   7.240   5.626  1.00  0.00     0.187 C 
HETATM   10  O   UNL     1      67.448   6.403   6.766  1.00  0.00    -0.388 OA
HETATM   11  C   UNL     1      66.079   6.560   7.186  1.00  0.00     0.187 C 
HETATM   12  C   UNL     1      65.102   6.182   6.058  1.00  0.00     0.149 C 
ENDBRANCH   2   7
BRANCH   1  13
HETATM   13  C   UNL     1      63.807   9.537   5.096  1.00  0.00     0.211 C 
HETATM   14  O   UNL     1      64.781   9.714   5.804  1.00  0.00    -0.644 OA
HETATM   15  O   UNL     1      62.727  10.337   5.227  1.00  0.00    -0.644 OA
ENDBRANCH   1  13
TORSDOF 2
ENDMDL
MODEL 6
REMARK VINA RESULT:      -4.8      3.190      4.524
REMARK  2 active torsions:
REMARK  status: ('A' for Active; 'I' for Inactive)
REMARK    1  A    between atoms: C_1  and  C_3 
REMARK    2  A    between atoms: C_2  and  N_4 
ROOT
HETATM    1  C   UNL     1      65.119   7.586   5.841  1.00  0.00     0.067 A 
HETATM    2  C   UNL     1      64.958   6.367   6.543  1.00  0.00     0.047 A 
HETATM    3  C   UNL     1      64.061   8.128   5.079  1.00  0.00     0.021 A 
HETATM    4  C   UNL     1      63.695   5.745   6.441  1.00  0.00     0.030 A 
HETATM    5  C   UNL     1      62.834   7.479   5.000  1.00  0.00     0.001 A 
HETATM    6  C   UNL     1      62.651   6.286   5.684  1.00  0.00     0.002 A 
ENDROOT
BRANCH   2   7
HETATM    7  N   UNL     1      65.977   5.763   7.269  1.00  0.00    -0.376 N 
HETATM    8  C   UNL     1      66.402   4.379   7.000  1.00  0.00     0.149 C 
HETATM    9  C   UNL     1      67.875   4.228   7.417  1.00  0.00     0.187 C 
HETATM   10  O   UNL     1      68.070   4.567   8.802  1.00  0.00    -0.388 OA
HETATM   11  C   UNL     1      67.664   5.929   9.038  1.00  0.00     0.187 C 
HETATM   12  C   UNL     1      66.182   6.140   8.683  1.00  0.00     0.149 C 
ENDBRANCH   2   7
BRANCH   1  13
HETATM   13  C   UNL     1      66.425   8.306   5.776  1.00  0.00     0.211 C 
HETATM   14  O   UNL     1      67.288   8.245   4.920  1.00  0.00    -0.644 OA
HETATM   15  O   UNL     1      66.614   9.079   6.866  1.00  0.00    -0.644 OA
ENDBRANCH   1  13
TORSDOF 2
ENDMDL
MODEL 7
REMARK VINA RESULT:      -4.5      2.268      4.553
REMARK  2 active torsions:
REMARK  status: ('A' for Active; 'I' for Inactive)
REMARK    1  A    between atoms: C_1  and  C_3 
REMARK    2  A    between atoms: C_2  and  N_4 
ROOT
HETATM    1  C   UNL     1      65.385   7.043   4.594  1.00  0.00     0.067 A 
HETATM    2  C   UNL     1      64.407   6.633   3.655  1.00  0.00     0.047 A 
HETATM    3  C   UNL     1      66.664   6.447   4.614  1.00  0.00     0.021 A 
HETATM    4  C   UNL     1      64.790   5.617   2.753  1.00  0.00     0.030 A 
HETATM    5  C   UNL     1      66.998   5.444   3.712  1.00  0.00     0.001 A 
HETATM    6  C   UNL     1      66.059   5.029   2.779  1.00  0.00     0.002 A 
ENDROOT
BRANCH   2   7
HETATM    7  N   UNL     1      63.118   7.149   3.619  1.00  0.00    -0.376 N 
HETATM    8  C   UNL     1      61.934   6.277   3.697  1.00  0.00     0.149 C 
HETATM    9  C   UNL     1      60.769   7.082   4.299  1.00  0.00     0.187 C 
HETATM   10  O   UNL     1      60.490   8.264   3.527  1.00  0.00    -0.388 OA
HETATM   11  C   UNL     1      61.655   9.109   3.479  1.00  0.00     0.187 C 
HETATM   12  C   UNL     1      62.850   8.378   2.843  1.00  0.00     0.149 C 
ENDBRANCH   2   7
BRANCH   1  13
HETATM   13  C   UNL     1      65.093   8.035   5.670  1.00  0.00     0.211 C 
HETATM   14  O   UNL     1      65.224   9.245   5.649  1.00  0.00    -0.644 OA
HETATM   15  O   UNL     1      64.663   7.426   6.796  1.00  0.00    -0.644 OA
ENDBRANCH   1  13
TORSDOF 2
ENDMDL
MODEL 8
REMARK VINA RESULT:      -4.4      2.450      2.873
REMARK  2 active torsions:
REMARK  status: ('A' for Active; 'I' for Inactive)
REMARK    1  A    between atoms: C_1  and  C_3 
REMARK    2  A    between atoms: C_2  and  N_4 
ROOT
HETATM    1  C   UNL     1      62.570   6.925   4.832  1.00  0.00     0.067 A 
HETATM    2  C   UNL     1      63.872   6.818   4.284  1.00  0.00     0.047 A 
HETATM    3  C   UNL     1      61.434   6.971   3.995  1.00  0.00     0.021 A 
HETATM    4  C   UNL     1      63.958   6.753   2.877  1.00  0.00     0.030 A 
HETATM    5  C   UNL     1      61.565   6.911   2.612  1.00  0.00     0.001 A 
HETATM    6  C   UNL     1      62.829   6.800   2.052  1.00  0.00     0.002 A 
ENDROOT
BRANCH   2   7
HETATM    7  N   UNL     1      65.027   6.816   5.056  1.00  0.00    -0.376 N 
HETATM    8  C   UNL     1      65.855   8.025   5.210  1.00  0.00     0.149 C 
HETATM    9  C   UNL     1      66.597   7.943   6.555  1.00  0.00     0.187 C 
HETATM   10  O   UNL     1      67.400   6.752   6.644  1.00  0.00    -0.388 OA
HETATM   11  C   UNL     1      66.569   5.584   6.508  1.00  0.00     0.187 C 
HETATM   12  C   UNL     1      65.829   5.579   5.159  1.00  0.00     0.149 C 
ENDBRANCH   2   7
BRANCH   1  13
HETATM   13  C   UNL     1      62.329   7.101   6.295  1.00  0.00     0.211 C 
HETATM   14  O   UNL     1      62.737   7.977   7.035  1.00  0.00    -0.644 OA
HETATM   15  O   UNL     1      61.579   6.096   6.793  1.00  0.00    -0.644 OA
ENDBRANCH   1  13
TORSDOF 2
ENDMDL
MODEL 9
REMARK VINA RESULT:      -4.2     11.045     13.211
REMARK  2 active torsions:
REMARK  status: ('A' for Active; 'I' for Inactive)
REMARK    1  A    between atoms: C_1  and  C_3 
REMARK    2  A    between atoms: C_2  and  N_4 
ROOT
HETATM    1  C   UNL     1      57.713   2.409  11.983  1.00  0.00     0.067 A 
HETATM    2  C   UNL     1      56.757   2.131  12.991  1.00  0.00     0.047 A 
HETATM    3  C   UNL     1      59.080   2.115  12.182  1.00  0.00     0.021 A 
HETATM    4  C   UNL     1      57.247   1.546  14.177  1.00  0.00     0.030 A 
HETATM    5  C   UNL     1      59.521   1.544  13.370  1.00  0.00     0.001 A 
HETATM    6  C   UNL     1      58.603   1.258  14.369  1.00  0.00     0.002 A 
ENDROOT
BRANCH   2   7
HETATM    7  N   UNL     1      55.408   2.441  12.870  1.00  0.00    -0.376 N 
HETATM    8  C   UNL     1      54.799   3.545  13.632  1.00  0.00     0.149 C 
HETATM    9  C   UNL     1      53.584   4.072  12.847  1.00  0.00     0.187 C 
HETATM   10  O   UNL     1      52.627   3.028  12.593  1.00  0.00    -0.388 OA
HETATM   11  C   UNL     1      53.239   1.969  11.833  1.00  0.00     0.187 C 
HETATM   12  C   UNL     1      54.438   1.364  12.584  1.00  0.00     0.149 C 
ENDBRANCH   2   7
BRANCH   1  13
HETATM   13  C   UNL     1      57.359   3.114  10.717  1.00  0.00     0.211 C 
HETATM   14  O   UNL     1      56.364   2.992  10.028  1.00  0.00    -0.644 OA
HETATM   15  O   UNL     1      58.341   3.958  10.334  1.00  0.00    -0.644 OA
ENDBRANCH   1  13
TORSDOF 2
ENDMDL
