MODEL 1
REMARK VINA RESULT:      -4.7      0.000      0.000
REMARK  2 active torsions:
REMARK  status: ('A' for Active; 'I' for Inactive)
REMARK    1  A    between atoms: C_8  and  C_11 
REMARK    2  A    between atoms: N_10  and  C_11 
ROOT
HETATM    1  C   UNL     1      62.733   8.635   2.998  1.00  0.00    -0.018 A 
HETATM    2  S   UNL     1      62.081   8.268   0.526  1.00  0.00    -0.101 SA
HETATM    3  C   UNL     1      62.177   9.300   1.903  1.00  0.00     0.015 A 
HETATM    4  C   UNL     1      62.762   6.952   1.370  1.00  0.00     0.051 A 
HETATM    5  C   UNL     1      63.067   7.278   2.671  1.00  0.00     0.020 A 
HETATM    6  C   UNL     1      62.873   9.348   4.212  1.00  0.00     0.021 A 
HETATM    7  C   UNL     1      61.769  10.645   1.990  1.00  0.00     0.020 A 
HETATM    8  C   UNL     1      62.457  10.687   4.322  1.00  0.00    -0.032 A 
HETATM    9  C   UNL     1      61.915  11.322   3.204  1.00  0.00     0.010 A 
ENDROOT
BRANCH   8  10
HETATM   10  C   UNL     1      62.603  11.414   5.635  1.00  0.00     0.268 C 
BRANCH  10  11
HETATM   11  N   UNL     1      63.935  11.228   6.198  1.00  0.00    -0.075 N 
HETATM   12  H   UNL     1      64.583  10.959   5.458  1.00  0.00     0.274 HD
HETATM   13  H   UNL     1      63.906  10.497   6.908  1.00  0.00     0.274 HD
HETATM   14  H   UNL     1      64.249  12.102   6.623  1.00  0.00     0.274 HD
ENDBRANCH  10  11
ENDBRANCH   8  10
TORSDOF 2
ENDMDL
MODEL 2
REMARK VINA RESULT:      -4.7      1.048      2.022
REMARK  2 active torsions:
REMARK  status: ('A' for Active; 'I' for Inactive)
REMARK    1  A    between atoms: C_8  and  C_11 
REMARK    2  A    between atoms: N_10  and  C_11 
ROOT
HETATM    1  C   UNL     1      62.160   9.185   2.314  1.00  0.00    -0.018 A 
HETATM    2  S   UNL     1      62.853   6.862   1.424  1.00  0.00    -0.101 SA
HETATM    3  C   UNL     1      62.862   8.036   2.685  1.00  0.00     0.015 A 
HETATM    4  C   UNL     1      61.936   7.864   0.394  1.00  0.00     0.051 A 
HETATM    5  C   UNL     1      61.629   9.067   0.986  1.00  0.00     0.020 A 
HETATM    6  C   UNL     1      62.082  10.249   3.243  1.00  0.00     0.021 A 
HETATM    7  C   UNL     1      63.474   7.925   3.948  1.00  0.00     0.020 A 
HETATM    8  C   UNL     1      62.700  10.162   4.504  1.00  0.00    -0.032 A 
HETATM    9  C   UNL     1      63.385   8.995   4.843  1.00  0.00     0.010 A 
ENDROOT
BRANCH   8  10
HETATM   10  C   UNL     1      62.614  11.321   5.464  1.00  0.00     0.268 C 
BRANCH  10  11
HETATM   11  N   UNL     1      63.827  11.435   6.266  1.00  0.00    -0.075 N 
HETATM   12  H   UNL     1      64.628  11.590   5.652  1.00  0.00     0.274 HD
HETATM   13  H   UNL     1      63.967  10.575   6.796  1.00  0.00     0.274 HD
HETATM   14  H   UNL     1      63.736  12.222   6.910  1.00  0.00     0.274 HD
ENDBRANCH  10  11
ENDBRANCH   8  10
TORSDOF 2
ENDMDL
MODEL 3
REMARK VINA RESULT:      -4.3      1.682      2.065
REMARK  2 active torsions:
REMARK  status: ('A' for Active; 'I' for Inactive)
REMARK    1  A    between atoms: C_8  and  C_11 
REMARK    2  A    between atoms: N_10  and  C_11 
ROOT
HETATM    1  C   UNL     1      64.143   7.879   4.156  1.00  0.00    -0.018 A 
HETATM    2  S   UNL     1      63.698   6.183   2.259  1.00  0.00    -0.101 SA
HETATM    3  C   UNL     1      63.296   7.651   3.069  1.00  0.00     0.015 A 
HETATM    4  C   UNL     1      64.976   5.850   3.337  1.00  0.00     0.051 A 
HETATM    5  C   UNL     1      65.111   6.827   4.295  1.00  0.00     0.020 A 
HETATM    6  C   UNL     1      63.936   9.044   4.931  1.00  0.00     0.021 A 
HETATM    7  C   UNL     1      62.265   8.551   2.740  1.00  0.00     0.020 A 
HETATM    8  C   UNL     1      62.902   9.947   4.626  1.00  0.00    -0.032 A 
HETATM    9  C   UNL     1      62.081   9.691   3.527  1.00  0.00     0.010 A 
ENDROOT
BRANCH   8  10
HETATM   10  C   UNL     1      62.695  11.171   5.483  1.00  0.00     0.268 C 
BRANCH  10  11
HETATM   11  N   UNL     1      63.861  11.435   6.318  1.00  0.00    -0.075 N 
HETATM   12  H   UNL     1      64.372  12.235   5.946  1.00  0.00     0.274 HD
HETATM   13  H   UNL     1      64.469  10.616   6.324  1.00  0.00     0.274 HD
HETATM   14  H   UNL     1      63.557  11.640   7.271  1.00  0.00     0.274 HD
ENDBRANCH  10  11
ENDBRANCH   8  10
TORSDOF 2
ENDMDL
MODEL 4
REMARK VINA RESULT:      -4.1      2.532      3.930
REMARK  2 active torsions:
REMARK  status: ('A' for Active; 'I' for Inactive)
REMARK    1  A    between atoms: C_8  and  C_11 
REMARK    2  A    between atoms: N_10  and  C_11 
ROOT
HETATM    1  C   UNL     1      63.575   9.145   4.636  1.00  0.00    -0.018 A 
HETATM    2  S   UNL     1      61.854   8.885   2.728  1.00  0.00    -0.101 SA
HETATM    3  C   UNL     1      63.225   8.291   3.588  1.00  0.00     0.015 A 
HETATM    4  C   UNL     1      61.727  10.259   3.728  1.00  0.00     0.051 A 
HETATM    5  C   UNL     1      62.696  10.277   4.704  1.00  0.00     0.020 A 
HETATM    6  C   UNL     1      64.690   8.798   5.436  1.00  0.00     0.021 A 
HETATM    7  C   UNL     1      63.950   7.113   3.326  1.00  0.00     0.020 A 
HETATM    8  C   UNL     1      65.435   7.633   5.181  1.00  0.00    -0.032 A 
HETATM    9  C   UNL     1      65.050   6.800   4.130  1.00  0.00     0.010 A 
ENDROOT
BRANCH   8  10
HETATM   10  C   UNL     1      66.629   7.301   6.039  1.00  0.00     0.268 C 
BRANCH  10  11
HETATM   11  N   UNL     1      66.947   8.395   6.950  1.00  0.00    -0.075 N 
HETATM   12  H   UNL     1      67.190   9.226   6.411  1.00  0.00     0.274 HD
HETATM   13  H   UNL     1      67.735   8.129   7.540  1.00  0.00     0.274 HD
HETATM   14  H   UNL     1      66.135   8.596   7.536  1.00  0.00     0.274 HD
ENDBRANCH  10  11
ENDBRANCH   8  10
TORSDOF 2
ENDMDL
MODEL 5
REMARK VINA RESULT:      -4.0      3.205      4.060
REMARK  2 active torsions:
REMARK  status: ('A' for Active; 'I' for Inactive)
REMARK    1  A    between atoms: C_8  and  C_11 
REMARK    2  A    between atoms: N_10  and  C_11 
ROOT
HETATM    1  C   UNL     1      65.025   8.215   5.080  1.00  0.00    -0.018 A 
HETATM    2  S   UNL     1      66.242   6.024   4.454  1.00  0.00    -0.101 SA
HETATM    3  C   UNL     1      64.963   7.148   4.181  1.00  0.00     0.015 A 
HETATM    4  C   UNL     1      66.868   6.936   5.751  1.00  0.00     0.051 A 
HETATM    5  C   UNL     1      66.135   8.077   5.980  1.00  0.00     0.020 A 
HETATM    6  C   UNL     1      64.036   9.222   4.990  1.00  0.00     0.021 A 
HETATM    7  C   UNL     1      63.953   7.068   3.204  1.00  0.00     0.020 A 
HETATM    8  C   UNL     1      63.011   9.152   4.030  1.00  0.00    -0.032 A 
HETATM    9  C   UNL     1      62.986   8.075   3.143  1.00  0.00     0.010 A 
ENDROOT
BRANCH   8  10
HETATM   10  C   UNL     1      61.960  10.232   3.972  1.00  0.00     0.268 C 
BRANCH  10  11
HETATM   11  N   UNL     1      61.567  10.515   2.596  1.00  0.00    -0.075 N 
HETATM   12  H   UNL     1      61.367  11.510   2.496  1.00  0.00     0.274 HD
HETATM   13  H   UNL     1      60.733   9.976   2.362  1.00  0.00     0.274 HD
HETATM   14  H   UNL     1      62.327  10.256   1.965  1.00  0.00     0.274 HD
ENDBRANCH  10  11
ENDBRANCH   8  10
TORSDOF 2
ENDMDL
MODEL 6
REMARK VINA RESULT:      -4.0      2.729      3.565
REMARK  2 active torsions:
REMARK  status: ('A' for Active; 'I' for Inactive)
REMARK    1  A    between atoms: C_8  and  C_11 
REMARK    2  A    between atoms: N_10  and  C_11 
ROOT
HETATM    1  C   UNL     1      63.672   7.482   3.689  1.00  0.00    -0.018 A 
HETATM    2  S   UNL     1      64.584   7.028   6.062  1.00  0.00    -0.101 SA
HETATM    3  C   UNL     1      63.720   8.040   4.967  1.00  0.00     0.015 A 
HETATM    4  C   UNL     1      64.897   5.864   4.856  1.00  0.00     0.051 A 
HETATM    5  C   UNL     1      64.356   6.221   3.643  1.00  0.00     0.020 A 
HETATM    6  C   UNL     1      63.001   8.199   2.671  1.00  0.00     0.021 A 
HETATM    7  C   UNL     1      63.116   9.281   5.251  1.00  0.00     0.020 A 
HETATM    8  C   UNL     1      62.404   9.446   2.931  1.00  0.00    -0.032 A 
HETATM    9  C   UNL     1      62.465   9.969   4.223  1.00  0.00     0.010 A 
ENDROOT
BRANCH   8  10
HETATM   10  C   UNL     1      61.713  10.195   1.820  1.00  0.00     0.268 C 
BRANCH  10  11
HETATM   11  N   UNL     1      61.585  11.613   2.137  1.00  0.00    -0.075 N 
HETATM   12  H   UNL     1      61.533  12.152   1.272  1.00  0.00     0.274 HD
HETATM   13  H   UNL     1      62.395  11.916   2.678  1.00  0.00     0.274 HD
HETATM   14  H   UNL     1      60.735  11.765   2.683  1.00  0.00     0.274 HD
ENDBRANCH  10  11
ENDBRANCH   8  10
TORSDOF 2
ENDMDL
MODEL 7
REMARK VINA RESULT:      -3.9      2.261      3.628
REMARK  2 active torsions:
REMARK  status: ('A' for Active; 'I' for Inactive)
REMARK    1  A    between atoms: C_8  and  C_11 
REMARK    2  A    between atoms: N_10  and  C_11 
ROOT
HETATM    1  C   UNL     1      62.653   9.554   4.039  1.00  0.00    -0.018 A 
HETATM    2  S   UNL     1      61.992   9.800   1.554  1.00  0.00    -0.101 SA
HETATM    3  C   UNL     1      62.636   8.845   2.836  1.00  0.00     0.015 A 
HETATM    4  C   UNL     1      61.743  11.141   2.577  1.00  0.00     0.051 A 
HETATM    5  C   UNL     1      62.130  10.881   3.871  1.00  0.00     0.020 A 
HETATM    6  C   UNL     1      63.162   8.907   5.189  1.00  0.00     0.021 A 
HETATM    7  C   UNL     1      63.105   7.519   2.759  1.00  0.00     0.020 A 
HETATM    8  C   UNL     1      63.648   7.588   5.128  1.00  0.00    -0.032 A 
HETATM    9  C   UNL     1      63.607   6.908   3.911  1.00  0.00     0.010 A 
ENDROOT
BRANCH   8  10
HETATM   10  C   UNL     1      64.202   6.933   6.368  1.00  0.00     0.268 C 
BRANCH  10  11
HETATM   11  N   UNL     1      64.862   5.672   6.050  1.00  0.00    -0.075 N 
HETATM   12  H   UNL     1      64.285   4.895   6.373  1.00  0.00     0.274 HD
HETATM   13  H   UNL     1      65.770   5.636   6.513  1.00  0.00     0.274 HD
HETATM   14  H   UNL     1      64.992   5.601   5.040  1.00  0.00     0.274 HD
ENDBRANCH  10  11
ENDBRANCH   8  10
TORSDOF 2
ENDMDL
MODEL 8
REMARK VINA RESULT:      -3.9      3.860      4.841
REMARK  2 active torsions:
REMARK  status: ('A' for Active; 'I' for Inactive)
REMARK    1  A    between atoms: C_8  and  C_11 
REMARK    2  A    between atoms: N_10  and  C_11 
ROOT
HETATM    1  C   UNL     1      65.264   7.987   5.804  1.00  0.00    -0.018 A 
HETATM    2  S   UNL     1      65.691   5.916   7.289  1.00  0.00    -0.101 SA
HETATM    3  C   UNL     1      64.603   6.903   6.387  1.00  0.00     0.015 A 
HETATM    4  C   UNL     1      67.022   6.914   6.917  1.00  0.00     0.051 A 
HETATM    5  C   UNL     1      66.664   7.976   6.120  1.00  0.00     0.020 A 
HETATM    6  C   UNL     1      64.503   8.898   5.034  1.00  0.00     0.021 A 
HETATM    7  C   UNL     1      63.218   6.708   6.216  1.00  0.00     0.020 A 
HETATM    8  C   UNL     1      63.117   8.728   4.864  1.00  0.00    -0.032 A 
HETATM    9  C   UNL     1      62.492   7.629   5.454  1.00  0.00     0.010 A 
ENDROOT
BRANCH   8  10
HETATM   10  C   UNL     1      62.331   9.727   4.053  1.00  0.00     0.268 C 
BRANCH  10  11
HETATM   11  N   UNL     1      62.399  11.059   4.644  1.00  0.00    -0.075 N 
HETATM   12  H   UNL     1      63.376  11.319   4.785  1.00  0.00     0.274 HD
HETATM   13  H   UNL     1      61.915  11.059   5.541  1.00  0.00     0.274 HD
HETATM   14  H   UNL     1      61.956  11.732   4.017  1.00  0.00     0.274 HD
ENDBRANCH  10  11
ENDBRANCH   8  10
TORSDOF 2
ENDMDL
MODEL 9
REMARK VINA RESULT:      -3.8      1.723      1.841
REMARK  2 active torsions:
REMARK  status: ('A' for Active; 'I' for Inactive)
REMARK    1  A    between atoms: C_8  and  C_11 
REMARK    2  A    between atoms: N_10  and  C_11 
ROOT
HETATM    1  C   UNL     1      60.997   7.845   2.833  1.00  0.00    -0.018 A 
HETATM    2  S   UNL     1      60.577   6.970   0.439  1.00  0.00    -0.101 SA
HETATM    3  C   UNL     1      61.139   8.213   1.493  1.00  0.00     0.015 A 
HETATM    4  C   UNL     1      60.147   5.957   1.742  1.00  0.00     0.051 A 
HETATM    5  C   UNL     1      60.424   6.535   2.958  1.00  0.00     0.020 A 
HETATM    6  C   UNL     1      61.408   8.766   3.825  1.00  0.00     0.021 A 
HETATM    7  C   UNL     1      61.679   9.461   1.126  1.00  0.00     0.020 A 
HETATM    8  C   UNL     1      61.937  10.023   3.478  1.00  0.00    -0.032 A 
HETATM    9  C   UNL     1      62.071  10.352   2.129  1.00  0.00     0.010 A 
ENDROOT
BRANCH   8  10
HETATM   10  C   UNL     1      62.348  10.990   4.559  1.00  0.00     0.268 C 
BRANCH  10  11
HETATM   11  N   UNL     1      63.078  10.314   5.625  1.00  0.00    -0.075 N 
HETATM   12  H   UNL     1      62.496  10.272   6.462  1.00  0.00     0.274 HD
HETATM   13  H   UNL     1      63.934  10.827   5.832  1.00  0.00     0.274 HD
HETATM   14  H   UNL     1      63.313   9.366   5.328  1.00  0.00     0.274 HD
ENDBRANCH  10  11
ENDBRANCH   8  10
TORSDOF 2
ENDMDL
