MODEL 1
REMARK VINA RESULT:      -5.4      0.000      0.000
REMARK  1 active torsions:
REMARK  status: ('A' for Active; 'I' for Inactive)
REMARK    1  A    between atoms: C_1  and  C_2 
ROOT
HETATM    1  C   UNL     1      63.709   7.627   5.024  1.00  0.00     0.115 C 
HETATM    2  O   UNL     1      62.843   7.550   2.746  1.00  0.00    -0.350 OA
HETATM    3  C   UNL     1      63.009   8.950   5.315  1.00  0.00     0.059 C 
HETATM    4  C   UNL     1      62.562   9.601   4.036  1.00  0.00    -0.024 A 
HETATM    5  C   UNL     1      62.876   6.865   4.004  1.00  0.00     0.191 C 
HETATM    6  C   UNL     1      62.514   8.876   2.839  1.00  0.00     0.075 A 
HETATM    7  C   UNL     1      62.177  10.949   4.031  1.00  0.00     0.010 A 
HETATM    8  C   UNL     1      62.153   9.502   1.647  1.00  0.00     0.037 A 
HETATM    9  C   UNL     1      61.795  11.570   2.839  1.00  0.00     0.001 A 
HETATM   10  C   UNL     1      61.794  10.850   1.646  1.00  0.00     0.003 A 
ENDROOT
BRANCH   1  11
HETATM   11  C   UNL     1      63.884   6.819   6.277  1.00  0.00     0.179 C 
HETATM   12  O   UNL     1      64.478   7.148   7.289  1.00  0.00    -0.648 OA
HETATM   13  O   UNL     1      63.253   5.629   6.219  1.00  0.00    -0.648 OA
ENDBRANCH   1  11
TORSDOF 1
ENDMDL
MODEL 2
REMARK VINA RESULT:      -5.0      2.494      5.076
REMARK  1 active torsions:
REMARK  status: ('A' for Active; 'I' for Inactive)
REMARK    1  A    between atoms: C_1  and  C_2 
ROOT
HETATM    1  C   UNL     1      63.177   9.075   3.908  1.00  0.00     0.115 C 
HETATM    2  O   UNL     1      64.972   9.238   5.550  1.00  0.00    -0.350 OA
HETATM    3  C   UNL     1      63.522   7.627   3.577  1.00  0.00     0.059 C 
HETATM    4  C   UNL     1      64.890   7.280   4.097  1.00  0.00    -0.024 A 
HETATM    5  C   UNL     1      63.554   9.333   5.359  1.00  0.00     0.191 C 
HETATM    6  C   UNL     1      65.531   8.099   5.034  1.00  0.00     0.075 A 
HETATM    7  C   UNL     1      65.537   6.120   3.650  1.00  0.00     0.010 A 
HETATM    8  C   UNL     1      66.823   7.801   5.466  1.00  0.00     0.037 A 
HETATM    9  C   UNL     1      66.822   5.811   4.101  1.00  0.00     0.001 A 
HETATM   10  C   UNL     1      67.469   6.657   5.000  1.00  0.00     0.003 A 
ENDROOT
BRANCH   1  11
HETATM   11  C   UNL     1      61.718   9.350   3.682  1.00  0.00     0.179 C 
HETATM   12  O   UNL     1      60.856   8.546   3.373  1.00  0.00    -0.648 OA
HETATM   13  O   UNL     1      61.394  10.640   3.906  1.00  0.00    -0.648 OA
ENDBRANCH   1  11
TORSDOF 1
ENDMDL
MODEL 3
REMARK VINA RESULT:      -5.0      2.391      4.225
REMARK  1 active torsions:
REMARK  status: ('A' for Active; 'I' for Inactive)
REMARK    1  A    between atoms: C_1  and  C_2 
ROOT
HETATM    1  C   UNL     1      62.894   9.558   4.891  1.00  0.00     0.115 C 
HETATM    2  O   UNL     1      62.359   8.253   2.903  1.00  0.00    -0.350 OA
HETATM    3  C   UNL     1      64.302   8.977   4.974  1.00  0.00     0.059 C 
HETATM    4  C   UNL     1      64.415   7.749   4.115  1.00  0.00    -0.024 A 
HETATM    5  C   UNL     1      62.476   9.581   3.429  1.00  0.00     0.191 C 
HETATM    6  C   UNL     1      63.446   7.456   3.148  1.00  0.00     0.075 A 
HETATM    7  C   UNL     1      65.506   6.882   4.270  1.00  0.00     0.010 A 
HETATM    8  C   UNL     1      63.529   6.285   2.396  1.00  0.00     0.037 A 
HETATM    9  C   UNL     1      65.599   5.720   3.500  1.00  0.00     0.001 A 
HETATM   10  C   UNL     1      64.605   5.416   2.572  1.00  0.00     0.003 A 
ENDROOT
BRANCH   1  11
HETATM   11  C   UNL     1      62.841  10.938   5.480  1.00  0.00     0.179 C 
HETATM   12  O   UNL     1      63.390  11.327   6.497  1.00  0.00    -0.648 OA
HETATM   13  O   UNL     1      62.125  11.796   4.726  1.00  0.00    -0.648 OA
ENDBRANCH   1  11
TORSDOF 1
ENDMDL
MODEL 4
REMARK VINA RESULT:      -4.9      2.216      5.361
REMARK  1 active torsions:
REMARK  status: ('A' for Active; 'I' for Inactive)
REMARK    1  A    between atoms: C_1  and  C_2 
ROOT
HETATM    1  C   UNL     1      63.457   8.991   5.138  1.00  0.00     0.115 C 
HETATM    2  O   UNL     1      63.605   7.341   6.929  1.00  0.00    -0.350 OA
HETATM    3  C   UNL     1      64.733   8.483   4.476  1.00  0.00     0.059 C 
HETATM    4  C   UNL     1      65.507   7.610   5.424  1.00  0.00    -0.024 A 
HETATM    5  C   UNL     1      62.793   7.820   5.849  1.00  0.00     0.191 C 
HETATM    6  C   UNL     1      64.910   7.104   6.585  1.00  0.00     0.075 A 
HETATM    7  C   UNL     1      66.843   7.286   5.149  1.00  0.00     0.010 A 
HETATM    8  C   UNL     1      65.652   6.344   7.488  1.00  0.00     0.037 A 
HETATM    9  C   UNL     1      67.578   6.506   6.044  1.00  0.00     0.001 A 
HETATM   10  C   UNL     1      66.987   6.044   7.218  1.00  0.00     0.003 A 
ENDROOT
BRANCH   1  11
HETATM   11  C   UNL     1      62.525   9.597   4.129  1.00  0.00     0.179 C 
HETATM   12  O   UNL     1      61.779  10.546   4.292  1.00  0.00    -0.648 OA
HETATM   13  O   UNL     1      62.610   9.000   2.923  1.00  0.00    -0.648 OA
ENDBRANCH   1  11
TORSDOF 1
ENDMDL
MODEL 5
REMARK VINA RESULT:      -4.9      1.353      2.297
REMARK  1 active torsions:
REMARK  status: ('A' for Active; 'I' for Inactive)
REMARK    1  A    between atoms: C_1  and  C_2 
ROOT
HETATM    1  C   UNL     1      63.696   7.555   5.339  1.00  0.00     0.115 C 
HETATM    2  O   UNL     1      63.054   9.839   4.774  1.00  0.00    -0.350 OA
HETATM    3  C   UNL     1      63.698   7.125   3.876  1.00  0.00     0.059 C 
HETATM    4  C   UNL     1      62.979   8.137   3.028  1.00  0.00    -0.024 A 
HETATM    5  C   UNL     1      64.060   9.031   5.399  1.00  0.00     0.191 C 
HETATM    6  C   UNL     1      62.694   9.415   3.522  1.00  0.00     0.075 A 
HETATM    7  C   UNL     1      62.592   7.810   1.721  1.00  0.00     0.010 A 
HETATM    8  C   UNL     1      61.976  10.327   2.750  1.00  0.00     0.037 A 
HETATM    9  C   UNL     1      61.892   8.733   0.941  1.00  0.00     0.001 A 
HETATM   10  C   UNL     1      61.574   9.987   1.459  1.00  0.00     0.003 A 
ENDROOT
BRANCH   1  11
HETATM   11  C   UNL     1      64.661   6.737   6.147  1.00  0.00     0.179 C 
HETATM   12  O   UNL     1      65.406   5.863   5.740  1.00  0.00    -0.648 OA
HETATM   13  O   UNL     1      64.679   7.093   7.447  1.00  0.00    -0.648 OA
ENDBRANCH   1  11
TORSDOF 1
ENDMDL
MODEL 6
REMARK VINA RESULT:      -4.9      2.377      3.281
REMARK  1 active torsions:
REMARK  status: ('A' for Active; 'I' for Inactive)
REMARK    1  A    between atoms: C_1  and  C_2 
ROOT
HETATM    1  C   UNL     1      65.668   6.750   5.118  1.00  0.00     0.115 C 
HETATM    2  O   UNL     1      65.151   8.997   5.913  1.00  0.00    -0.350 OA
HETATM    3  C   UNL     1      64.839   6.936   3.852  1.00  0.00     0.059 C 
HETATM    4  C   UNL     1      63.930   8.126   3.988  1.00  0.00    -0.024 A 
HETATM    5  C   UNL     1      66.211   8.109   5.533  1.00  0.00     0.191 C 
HETATM    6  C   UNL     1      64.130   9.070   5.003  1.00  0.00     0.075 A 
HETATM    7  C   UNL     1      62.870   8.307   3.089  1.00  0.00     0.010 A 
HETATM    8  C   UNL     1      63.249  10.139   5.157  1.00  0.00     0.037 A 
HETATM    9  C   UNL     1      62.001   9.390   3.232  1.00  0.00     0.001 A 
HETATM   10  C   UNL     1      62.183  10.300   4.272  1.00  0.00     0.003 A 
ENDROOT
BRANCH   1  11
HETATM   11  C   UNL     1      66.789   5.776   4.895  1.00  0.00     0.179 C 
HETATM   12  O   UNL     1      67.455   5.212   5.745  1.00  0.00    -0.648 OA
HETATM   13  O   UNL     1      66.995   5.515   3.588  1.00  0.00    -0.648 OA
ENDBRANCH   1  11
TORSDOF 1
ENDMDL
MODEL 7
REMARK VINA RESULT:      -4.8      2.095      4.714
REMARK  1 active torsions:
REMARK  status: ('A' for Active; 'I' for Inactive)
REMARK    1  A    between atoms: C_1  and  C_2 
ROOT
HETATM    1  C   UNL     1      61.815   9.862   3.477  1.00  0.00     0.115 C 
HETATM    2  O   UNL     1      62.057   7.638   2.507  1.00  0.00    -0.350 OA
HETATM    3  C   UNL     1      62.654   9.493   4.696  1.00  0.00     0.059 C 
HETATM    4  C   UNL     1      62.799   8.000   4.803  1.00  0.00    -0.024 A 
HETATM    5  C   UNL     1      62.304   9.034   2.298  1.00  0.00     0.191 C 
HETATM    6  C   UNL     1      62.488   7.169   3.720  1.00  0.00     0.075 A 
HETATM    7  C   UNL     1      63.259   7.423   5.994  1.00  0.00     0.010 A 
HETATM    8  C   UNL     1      62.570   5.783   3.846  1.00  0.00     0.037 A 
HETATM    9  C   UNL     1      63.362   6.035   6.112  1.00  0.00     0.001 A 
HETATM   10  C   UNL     1      63.007   5.215   5.043  1.00  0.00     0.003 A 
ENDROOT
BRANCH   1  11
HETATM   11  C   UNL     1      61.915  11.329   3.174  1.00  0.00     0.179 C 
HETATM   12  O   UNL     1      61.990  11.851   2.075  1.00  0.00    -0.648 OA
HETATM   13  O   UNL     1      61.868  12.092   4.285  1.00  0.00    -0.648 OA
ENDBRANCH   1  11
TORSDOF 1
ENDMDL
MODEL 8
REMARK VINA RESULT:      -4.8      2.670      4.173
REMARK  1 active torsions:
REMARK  status: ('A' for Active; 'I' for Inactive)
REMARK    1  A    between atoms: C_1  and  C_2 
ROOT
HETATM    1  C   UNL     1      65.916   6.752   7.810  1.00  0.00     0.115 C 
HETATM    2  O   UNL     1      65.881   8.654   6.285  1.00  0.00    -0.350 OA
HETATM    3  C   UNL     1      65.043   5.911   6.886  1.00  0.00     0.059 C 
HETATM    4  C   UNL     1      64.381   6.779   5.852  1.00  0.00    -0.024 A 
HETATM    5  C   UNL     1      66.729   7.711   6.952  1.00  0.00     0.191 C 
HETATM    6  C   UNL     1      64.826   8.086   5.621  1.00  0.00     0.075 A 
HETATM    7  C   UNL     1      63.309   6.281   5.099  1.00  0.00     0.010 A 
HETATM    8  C   UNL     1      64.170   8.904   4.702  1.00  0.00     0.037 A 
HETATM    9  C   UNL     1      62.666   7.094   4.163  1.00  0.00     0.001 A 
HETATM   10  C   UNL     1      63.089   8.409   3.972  1.00  0.00     0.003 A 
ENDROOT
BRANCH   1  11
HETATM   11  C   UNL     1      66.819   5.887   8.641  1.00  0.00     0.179 C 
HETATM   12  O   UNL     1      67.831   6.228   9.228  1.00  0.00    -0.648 OA
HETATM   13  O   UNL     1      66.375   4.617   8.736  1.00  0.00    -0.648 OA
ENDBRANCH   1  11
TORSDOF 1
ENDMDL
MODEL 9
REMARK VINA RESULT:      -4.7      2.621      4.707
REMARK  1 active torsions:
REMARK  status: ('A' for Active; 'I' for Inactive)
REMARK    1  A    between atoms: C_1  and  C_2 
ROOT
HETATM    1  C   UNL     1      63.207   8.845   4.677  1.00  0.00     0.115 C 
HETATM    2  O   UNL     1      63.528   7.068   3.038  1.00  0.00    -0.350 OA
HETATM    3  C   UNL     1      64.676   8.824   5.084  1.00  0.00     0.059 C 
HETATM    4  C   UNL     1      65.342   7.570   4.591  1.00  0.00    -0.024 A 
HETATM    5  C   UNL     1      63.114   8.429   3.216  1.00  0.00     0.191 C 
HETATM    6  C   UNL     1      64.733   6.770   3.616  1.00  0.00     0.075 A 
HETATM    7  C   UNL     1      66.591   7.190   5.101  1.00  0.00     0.010 A 
HETATM    8  C   UNL     1      65.330   5.578   3.207  1.00  0.00     0.037 A 
HETATM    9  C   UNL     1      67.198   6.007   4.674  1.00  0.00     0.001 A 
HETATM   10  C   UNL     1      66.563   5.196   3.736  1.00  0.00     0.003 A 
ENDROOT
BRANCH   1  11
HETATM   11  C   UNL     1      62.606  10.206   4.880  1.00  0.00     0.179 C 
HETATM   12  O   UNL     1      61.748  10.741   4.201  1.00  0.00    -0.648 OA
HETATM   13  O   UNL     1      63.087  10.825   5.977  1.00  0.00    -0.648 OA
ENDBRANCH   1  11
TORSDOF 1
ENDMDL
