MODEL 1
REMARK VINA RESULT:      -4.8      0.000      0.000
REMARK  1 active torsions:
REMARK  status: ('A' for Active; 'I' for Inactive)
REMARK    1  A    between atoms: N_1  and  C_4 
ROOT
HETATM    1  N   UNL     1      66.078   5.355   8.342  1.00  0.00    -0.191 NA
HETATM    2  C   UNL     1      65.529   6.011   7.557  1.00  0.00     0.099 C 
HETATM    3  C   UNL     1      63.517   8.436   4.709  1.00  0.00     0.038 A 
HETATM    4  C   UNL     1      64.917   8.457   4.803  1.00  0.00     0.031 A 
HETATM    5  C   UNL     1      62.794   7.589   5.563  1.00  0.00     0.031 A 
HETATM    6  C   UNL     1      64.851   6.822   6.590  1.00  0.00     0.044 A 
HETATM    7  C   UNL     1      63.459   6.786   6.497  1.00  0.00     0.025 A 
HETATM    8  C   UNL     1      65.579   7.657   5.741  1.00  0.00     0.025 A 
ENDROOT
BRANCH   3   9
HETATM    9  N   UNL     1      62.839   9.267   3.762  1.00  0.00    -0.333 N 
HETATM   10  C   UNL     1      62.291  10.515   4.003  1.00  0.00     0.096 A 
HETATM   11  C   UNL     1      61.725  10.999   2.844  1.00  0.00     0.019 A 
HETATM   12  C   UNL     1      61.915  10.024   1.849  1.00  0.00     0.019 A 
HETATM   13  C   UNL     1      62.599   8.978   2.431  1.00  0.00     0.096 A 
ENDBRANCH   3   9
TORSDOF 1
ENDMDL
MODEL 2
REMARK VINA RESULT:      -4.6      1.467      6.059
REMARK  1 active torsions:
REMARK  status: ('A' for Active; 'I' for Inactive)
REMARK    1  A    between atoms: N_1  and  C_4 
ROOT
HETATM    1  N   UNL     1      61.505   9.709   3.722  1.00  0.00    -0.191 NA
HETATM    2  C   UNL     1      62.326   9.140   4.314  1.00  0.00     0.099 C 
HETATM    3  C   UNL     1      65.328   7.085   6.505  1.00  0.00     0.038 A 
HETATM    4  C   UNL     1      63.980   6.718   6.625  1.00  0.00     0.031 A 
HETATM    5  C   UNL     1      65.670   8.135   5.639  1.00  0.00     0.031 A 
HETATM    6  C   UNL     1      63.340   8.442   5.045  1.00  0.00     0.044 A 
HETATM    7  C   UNL     1      64.680   8.807   4.913  1.00  0.00     0.025 A 
HETATM    8  C   UNL     1      62.991   7.395   5.901  1.00  0.00     0.025 A 
ENDROOT
BRANCH   3   9
HETATM    9  N   UNL     1      66.337   6.405   7.258  1.00  0.00    -0.333 N 
HETATM   10  C   UNL     1      66.568   6.516   8.617  1.00  0.00     0.096 A 
HETATM   11  C   UNL     1      67.625   5.705   8.972  1.00  0.00     0.019 A 
HETATM   12  C   UNL     1      68.074   5.073   7.799  1.00  0.00     0.019 A 
HETATM   13  C   UNL     1      67.273   5.512   6.768  1.00  0.00     0.096 A 
ENDBRANCH   3   9
TORSDOF 1
ENDMDL
MODEL 3
REMARK VINA RESULT:      -4.4      1.742      5.650
REMARK  1 active torsions:
REMARK  status: ('A' for Active; 'I' for Inactive)
REMARK    1  A    between atoms: N_1  and  C_4 
ROOT
HETATM    1  N   UNL     1      61.341   9.120   0.855  1.00  0.00    -0.191 NA
HETATM    2  C   UNL     1      62.000   8.819   1.763  1.00  0.00     0.099 C 
HETATM    3  C   UNL     1      64.437   7.737   5.068  1.00  0.00     0.038 A 
HETATM    4  C   UNL     1      63.721   8.944   5.074  1.00  0.00     0.031 A 
HETATM    5  C   UNL     1      64.324   6.888   3.957  1.00  0.00     0.031 A 
HETATM    6  C   UNL     1      62.815   8.450   2.881  1.00  0.00     0.044 A 
HETATM    7  C   UNL     1      63.515   7.243   2.871  1.00  0.00     0.025 A 
HETATM    8  C   UNL     1      62.917   9.299   3.984  1.00  0.00     0.025 A 
ENDROOT
BRANCH   3   9
HETATM    9  N   UNL     1      65.273   7.382   6.174  1.00  0.00    -0.333 N 
HETATM   10  C   UNL     1      66.483   7.961   6.513  1.00  0.00     0.096 A 
HETATM   11  C   UNL     1      66.986   7.348   7.640  1.00  0.00     0.019 A 
HETATM   12  C   UNL     1      66.068   6.350   8.014  1.00  0.00     0.019 A 
HETATM   13  C   UNL     1      65.031   6.391   7.108  1.00  0.00     0.096 A 
ENDBRANCH   3   9
TORSDOF 1
ENDMDL
MODEL 4
REMARK VINA RESULT:      -4.4      2.587      5.580
REMARK  1 active torsions:
REMARK  status: ('A' for Active; 'I' for Inactive)
REMARK    1  A    between atoms: N_1  and  C_4 
ROOT
HETATM    1  N   UNL     1      61.646  11.110   3.963  1.00  0.00    -0.191 NA
HETATM    2  C   UNL     1      62.363  10.198   4.016  1.00  0.00     0.099 C 
HETATM    3  C   UNL     1      65.006   6.878   4.189  1.00  0.00     0.038 A 
HETATM    4  C   UNL     1      65.115   7.927   5.114  1.00  0.00     0.031 A 
HETATM    5  C   UNL     1      63.999   6.939   3.212  1.00  0.00     0.031 A 
HETATM    6  C   UNL     1      63.248   9.074   4.079  1.00  0.00     0.044 A 
HETATM    7  C   UNL     1      63.125   8.031   3.161  1.00  0.00     0.025 A 
HETATM    8  C   UNL     1      64.243   9.020   5.057  1.00  0.00     0.025 A 
ENDROOT
BRANCH   3   9
HETATM    9  N   UNL     1      65.908   5.769   4.235  1.00  0.00    -0.333 N 
HETATM   10  C   UNL     1      66.438   5.184   5.371  1.00  0.00     0.096 A 
HETATM   11  C   UNL     1      67.266   4.143   5.009  1.00  0.00     0.019 A 
HETATM   12  C   UNL     1      67.261   4.079   3.604  1.00  0.00     0.019 A 
HETATM   13  C   UNL     1      66.425   5.077   3.154  1.00  0.00     0.096 A 
ENDBRANCH   3   9
TORSDOF 1
ENDMDL
MODEL 5
REMARK VINA RESULT:      -4.3      1.835      5.709
REMARK  1 active torsions:
REMARK  status: ('A' for Active; 'I' for Inactive)
REMARK    1  A    between atoms: N_1  and  C_4 
ROOT
HETATM    1  N   UNL     1      61.075   9.121   1.320  1.00  0.00    -0.191 NA
HETATM    2  C   UNL     1      61.891   8.766   2.065  1.00  0.00     0.099 C 
HETATM    3  C   UNL     1      64.851   7.451   4.813  1.00  0.00     0.038 A 
HETATM    4  C   UNL     1      64.542   6.688   3.677  1.00  0.00     0.031 A 
HETATM    5  C   UNL     1      64.174   8.663   5.019  1.00  0.00     0.031 A 
HETATM    6  C   UNL     1      62.896   8.328   2.987  1.00  0.00     0.044 A 
HETATM    7  C   UNL     1      63.203   9.098   4.109  1.00  0.00     0.025 A 
HETATM    8  C   UNL     1      63.567   7.123   2.771  1.00  0.00     0.025 A 
ENDROOT
BRANCH   3   9
HETATM    9  N   UNL     1      65.834   6.998   5.748  1.00  0.00    -0.333 N 
HETATM   10  C   UNL     1      65.651   6.792   7.104  1.00  0.00     0.096 A 
HETATM   11  C   UNL     1      66.831   6.354   7.666  1.00  0.00     0.019 A 
HETATM   12  C   UNL     1      67.784   6.292   6.634  1.00  0.00     0.019 A 
HETATM   13  C   UNL     1      67.154   6.686   5.474  1.00  0.00     0.096 A 
ENDBRANCH   3   9
TORSDOF 1
ENDMDL
MODEL 6
REMARK VINA RESULT:      -4.2      2.263      2.981
REMARK  1 active torsions:
REMARK  status: ('A' for Active; 'I' for Inactive)
REMARK    1  A    between atoms: N_1  and  C_4 
ROOT
HETATM    1  N   UNL     1      66.730   8.201   6.488  1.00  0.00    -0.191 NA
HETATM    2  C   UNL     1      65.853   8.128   5.730  1.00  0.00     0.099 C 
HETATM    3  C   UNL     1      62.626   7.846   2.984  1.00  0.00     0.038 A 
HETATM    4  C   UNL     1      62.723   8.936   3.861  1.00  0.00     0.031 A 
HETATM    5  C   UNL     1      63.621   6.856   3.020  1.00  0.00     0.031 A 
HETATM    6  C   UNL     1      64.770   8.037   4.798  1.00  0.00     0.044 A 
HETATM    7  C   UNL     1      64.687   6.954   3.922  1.00  0.00     0.025 A 
HETATM    8  C   UNL     1      63.787   9.028   4.766  1.00  0.00     0.025 A 
ENDROOT
BRANCH   3   9
HETATM    9  N   UNL     1      61.528   7.741   2.072  1.00  0.00    -0.333 N 
HETATM   10  C   UNL     1      60.963   8.770   1.339  1.00  0.00     0.096 A 
HETATM   11  C   UNL     1      59.928   8.276   0.575  1.00  0.00     0.019 A 
HETATM   12  C   UNL     1      59.837   6.898   0.842  1.00  0.00     0.019 A 
HETATM   13  C   UNL     1      60.823   6.594   1.755  1.00  0.00     0.096 A 
ENDBRANCH   3   9
TORSDOF 1
ENDMDL
MODEL 7
REMARK VINA RESULT:      -4.1      3.266      4.106
REMARK  1 active torsions:
REMARK  status: ('A' for Active; 'I' for Inactive)
REMARK    1  A    between atoms: N_1  and  C_4 
ROOT
HETATM    1  N   UNL     1      65.746   8.644   5.412  1.00  0.00    -0.191 NA
HETATM    2  C   UNL     1      64.661   8.459   5.041  1.00  0.00     0.099 C 
HETATM    3  C   UNL     1      60.706   7.762   3.658  1.00  0.00     0.038 A 
HETATM    4  C   UNL     1      61.255   6.973   4.680  1.00  0.00     0.031 A 
HETATM    5  C   UNL     1      61.482   8.795   3.109  1.00  0.00     0.031 A 
HETATM    6  C   UNL     1      63.324   8.230   4.581  1.00  0.00     0.044 A 
HETATM    7  C   UNL     1      62.784   9.027   3.571  1.00  0.00     0.025 A 
HETATM    8  C   UNL     1      62.558   7.204   5.136  1.00  0.00     0.025 A 
ENDROOT
BRANCH   3   9
HETATM    9  N   UNL     1      59.381   7.514   3.180  1.00  0.00    -0.333 N 
HETATM   10  C   UNL     1      58.247   7.330   3.950  1.00  0.00     0.096 A 
HETATM   11  C   UNL     1      57.162   7.118   3.126  1.00  0.00     0.019 A 
HETATM   12  C   UNL     1      57.631   7.162   1.802  1.00  0.00     0.019 A 
HETATM   13  C   UNL     1      58.986   7.408   1.858  1.00  0.00     0.096 A 
ENDBRANCH   3   9
TORSDOF 1
ENDMDL
MODEL 8
REMARK VINA RESULT:      -4.1      2.018      5.731
REMARK  1 active torsions:
REMARK  status: ('A' for Active; 'I' for Inactive)
REMARK    1  A    between atoms: N_1  and  C_4 
ROOT
HETATM    1  N   UNL     1      61.743  11.744   3.099  1.00  0.00    -0.191 NA
HETATM    2  C   UNL     1      62.026  10.724   3.576  1.00  0.00     0.099 C 
HETATM    3  C   UNL     1      63.043   7.002   5.351  1.00  0.00     0.038 A 
HETATM    4  C   UNL     1      61.909   7.117   4.532  1.00  0.00     0.031 A 
HETATM    5  C   UNL     1      63.843   8.135   5.562  1.00  0.00     0.031 A 
HETATM    6  C   UNL     1      62.375   9.467   4.167  1.00  0.00     0.044 A 
HETATM    7  C   UNL     1      63.510   9.360   4.971  1.00  0.00     0.025 A 
HETATM    8  C   UNL     1      61.575   8.344   3.947  1.00  0.00     0.025 A 
ENDROOT
BRANCH   3   9
HETATM    9  N   UNL     1      63.374   5.752   5.963  1.00  0.00    -0.333 N 
HETATM   10  C   UNL     1      64.611   5.377   6.456  1.00  0.00     0.096 A 
HETATM   11  C   UNL     1      64.534   4.100   6.970  1.00  0.00     0.019 A 
HETATM   12  C   UNL     1      63.211   3.659   6.787  1.00  0.00     0.019 A 
HETATM   13  C   UNL     1      62.522   4.683   6.175  1.00  0.00     0.096 A 
ENDBRANCH   3   9
TORSDOF 1
ENDMDL
MODEL 9
REMARK VINA RESULT:      -3.9      3.437      5.840
REMARK  1 active torsions:
REMARK  status: ('A' for Active; 'I' for Inactive)
REMARK    1  A    between atoms: N_1  and  C_4 
ROOT
HETATM    1  N   UNL     1      61.888  11.879   3.766  1.00  0.00    -0.191 NA
HETATM    2  C   UNL     1      62.055  10.818   3.324  1.00  0.00     0.099 C 
HETATM    3  C   UNL     1      62.634   6.928   1.721  1.00  0.00     0.038 A 
HETATM    4  C   UNL     1      62.053   7.941   0.944  1.00  0.00     0.031 A 
HETATM    5  C   UNL     1      63.033   7.225   3.034  1.00  0.00     0.031 A 
HETATM    6  C   UNL     1      62.259   9.509   2.781  1.00  0.00     0.044 A 
HETATM    7  C   UNL     1      62.847   8.510   3.558  1.00  0.00     0.025 A 
HETATM    8  C   UNL     1      61.863   9.223   1.473  1.00  0.00     0.025 A 
ENDROOT
BRANCH   3   9
HETATM    9  N   UNL     1      62.811   5.612   1.187  1.00  0.00    -0.333 N 
HETATM   10  C   UNL     1      63.951   5.114   0.583  1.00  0.00     0.096 A 
HETATM   11  C   UNL     1      63.735   3.807   0.200  1.00  0.00     0.019 A 
HETATM   12  C   UNL     1      62.418   3.480   0.568  1.00  0.00     0.019 A 
HETATM   13  C   UNL     1      61.875   4.594   1.171  1.00  0.00     0.096 A 
ENDBRANCH   3   9
TORSDOF 1
ENDMDL
