MODEL 1
REMARK VINA RESULT:      -4.9      0.000      0.000
REMARK  2 active torsions:
REMARK  status: ('A' for Active; 'I' for Inactive)
REMARK    1  A    between atoms: N_1  and  C_3 
REMARK    2  A    between atoms: C_2  and  C_4 
ROOT
HETATM    1  C   UNL     1      64.000   8.211   5.177  1.00  0.00     0.038 A 
HETATM    2  C   UNL     1      65.618   6.670   6.900  1.00  0.00     0.041 A 
HETATM    3  C   UNL     1      65.357   8.524   5.354  1.00  0.00     0.031 A 
HETATM    4  C   UNL     1      63.466   7.110   5.865  1.00  0.00     0.031 A 
HETATM    5  C   UNL     1      64.270   6.347   6.720  1.00  0.00     0.020 A 
HETATM    6  C   UNL     1      66.158   7.759   6.212  1.00  0.00     0.020 A 
ENDROOT
BRANCH   1   7
HETATM    7  N   UNL     1      63.172   9.007   4.322  1.00  0.00    -0.333 N 
HETATM    8  C   UNL     1      62.782   8.704   3.028  1.00  0.00     0.096 A 
HETATM    9  C   UNL     1      62.007   9.729   2.529  1.00  0.00     0.019 A 
HETATM   10  C   UNL     1      61.902  10.701   3.540  1.00  0.00     0.019 A 
HETATM   11  C   UNL     1      62.612  10.236   4.625  1.00  0.00     0.096 A 
ENDBRANCH   1   7
BRANCH   2  12
HETATM   12  C   UNL     1      66.422   5.839   7.828  1.00  0.00     0.209 C 
HETATM   13  O   UNL     1      65.993   4.964   8.557  1.00  0.00    -0.644 OA
HETATM   14  O   UNL     1      67.732   6.146   7.802  1.00  0.00    -0.644 OA
ENDBRANCH   2  12
TORSDOF 2
ENDMDL
MODEL 2
REMARK VINA RESULT:      -4.8      3.880      5.992
REMARK  2 active torsions:
REMARK  status: ('A' for Active; 'I' for Inactive)
REMARK    1  A    between atoms: N_1  and  C_3 
REMARK    2  A    between atoms: C_2  and  C_4 
ROOT
HETATM    1  C   UNL     1      64.174   8.062   4.965  1.00  0.00     0.038 A 
HETATM    2  C   UNL     1      62.518   9.123   2.941  1.00  0.00     0.041 A 
HETATM    3  C   UNL     1      63.537   9.301   5.138  1.00  0.00     0.031 A 
HETATM    4  C   UNL     1      63.964   7.356   3.770  1.00  0.00     0.031 A 
HETATM    5  C   UNL     1      63.142   7.884   2.766  1.00  0.00     0.020 A 
HETATM    6  C   UNL     1      62.716   9.827   4.131  1.00  0.00     0.020 A 
ENDROOT
BRANCH   1   7
HETATM    7  N   UNL     1      65.034   7.534   5.980  1.00  0.00    -0.333 N 
HETATM    8  C   UNL     1      64.751   6.494   6.849  1.00  0.00     0.096 A 
HETATM    9  C   UNL     1      65.821   6.295   7.695  1.00  0.00     0.019 A 
HETATM   10  C   UNL     1      66.808   7.234   7.343  1.00  0.00     0.019 A 
HETATM   11  C   UNL     1      66.310   7.972   6.292  1.00  0.00     0.096 A 
ENDBRANCH   1   7
BRANCH   2  12
HETATM   12  C   UNL     1      61.670   9.644   1.843  1.00  0.00     0.209 C 
HETATM   13  O   UNL     1      60.963   8.978   1.110  1.00  0.00    -0.644 OA
HETATM   14  O   UNL     1      61.750  10.980   1.710  1.00  0.00    -0.644 OA
ENDBRANCH   2  12
TORSDOF 2
ENDMDL
MODEL 3
REMARK VINA RESULT:      -4.7      3.412      5.879
REMARK  2 active torsions:
REMARK  status: ('A' for Active; 'I' for Inactive)
REMARK    1  A    between atoms: N_1  and  C_3 
REMARK    2  A    between atoms: C_2  and  C_4 
ROOT
HETATM    1  C   UNL     1      65.097   7.217   6.349  1.00  0.00     0.038 A 
HETATM    2  C   UNL     1      63.023   8.438   4.874  1.00  0.00     0.041 A 
HETATM    3  C   UNL     1      65.367   8.298   5.495  1.00  0.00     0.031 A 
HETATM    4  C   UNL     1      63.774   6.762   6.463  1.00  0.00     0.031 A 
HETATM    5  C   UNL     1      62.747   7.369   5.730  1.00  0.00     0.020 A 
HETATM    6  C   UNL     1      64.337   8.902   4.762  1.00  0.00     0.020 A 
ENDROOT
BRANCH   1   7
HETATM    7  N   UNL     1      66.152   6.581   7.078  1.00  0.00    -0.333 N 
HETATM    8  C   UNL     1      66.249   6.451   8.454  1.00  0.00     0.096 A 
HETATM    9  C   UNL     1      67.420   5.799   8.774  1.00  0.00     0.019 A 
HETATM   10  C   UNL     1      68.074   5.503   7.564  1.00  0.00     0.019 A 
HETATM   11  C   UNL     1      67.280   5.981   6.545  1.00  0.00     0.096 A 
ENDBRANCH   1   7
BRANCH   2  12
HETATM   12  C   UNL     1      61.903   9.036   4.110  1.00  0.00     0.209 C 
HETATM   13  O   UNL     1      61.601  10.215   4.092  1.00  0.00    -0.644 OA
HETATM   14  O   UNL     1      61.206   8.127   3.406  1.00  0.00    -0.644 OA
ENDBRANCH   2  12
TORSDOF 2
ENDMDL
MODEL 4
REMARK VINA RESULT:      -4.7      3.777      6.011
REMARK  2 active torsions:
REMARK  status: ('A' for Active; 'I' for Inactive)
REMARK    1  A    between atoms: N_1  and  C_3 
REMARK    2  A    between atoms: C_2  and  C_4 
ROOT
HETATM    1  C   UNL     1      65.063   7.458   4.931  1.00  0.00     0.038 A 
HETATM    2  C   UNL     1      63.022   8.983   3.716  1.00  0.00     0.041 A 
HETATM    3  C   UNL     1      64.407   6.989   3.782  1.00  0.00     0.031 A 
HETATM    4  C   UNL     1      64.692   8.705   5.458  1.00  0.00     0.031 A 
HETATM    5  C   UNL     1      63.679   9.460   4.855  1.00  0.00     0.020 A 
HETATM    6  C   UNL     1      63.393   7.747   3.181  1.00  0.00     0.020 A 
ENDROOT
BRANCH   1   7
HETATM    7  N   UNL     1      66.081   6.674   5.562  1.00  0.00    -0.333 N 
HETATM    8  C   UNL     1      66.657   6.904   6.801  1.00  0.00     0.096 A 
HETATM    9  C   UNL     1      67.614   5.945   7.049  1.00  0.00     0.019 A 
HETATM   10  C   UNL     1      67.637   5.083   5.937  1.00  0.00     0.019 A 
HETATM   11  C   UNL     1      66.691   5.543   5.048  1.00  0.00     0.096 A 
ENDBRANCH   1   7
BRANCH   2  12
HETATM   12  C   UNL     1      61.947   9.814   3.124  1.00  0.00     0.209 C 
HETATM   13  O   UNL     1      61.491   9.696   2.002  1.00  0.00    -0.644 OA
HETATM   14  O   UNL     1      61.496  10.762   3.965  1.00  0.00    -0.644 OA
ENDBRANCH   2  12
TORSDOF 2
ENDMDL
MODEL 5
REMARK VINA RESULT:      -4.6      2.123      3.021
REMARK  2 active torsions:
REMARK  status: ('A' for Active; 'I' for Inactive)
REMARK    1  A    between atoms: N_1  and  C_3 
REMARK    2  A    between atoms: C_2  and  C_4 
ROOT
HETATM    1  C   UNL     1      63.067   7.920   3.299  1.00  0.00     0.038 A 
HETATM    2  C   UNL     1      65.359   7.872   4.945  1.00  0.00     0.041 A 
HETATM    3  C   UNL     1      64.017   6.894   3.173  1.00  0.00     0.031 A 
HETATM    4  C   UNL     1      63.273   8.916   4.266  1.00  0.00     0.031 A 
HETATM    5  C   UNL     1      64.411   8.891   5.082  1.00  0.00     0.020 A 
HETATM    6  C   UNL     1      65.155   6.873   3.991  1.00  0.00     0.020 A 
ENDROOT
BRANCH   1   7
HETATM    7  N   UNL     1      61.917   7.959   2.447  1.00  0.00    -0.333 N 
HETATM    8  C   UNL     1      60.637   7.534   2.761  1.00  0.00     0.096 A 
HETATM    9  C   UNL     1      59.811   7.713   1.673  1.00  0.00     0.019 A 
HETATM   10  C   UNL     1      60.594   8.273   0.646  1.00  0.00     0.019 A 
HETATM   11  C   UNL     1      61.870   8.421   1.143  1.00  0.00     0.096 A 
ENDBRANCH   1   7
BRANCH   2  12
HETATM   12  C   UNL     1      66.552   7.899   5.823  1.00  0.00     0.209 C 
HETATM   13  O   UNL     1      67.494   7.131   5.771  1.00  0.00    -0.644 OA
HETATM   14  O   UNL     1      66.509   8.888   6.734  1.00  0.00    -0.644 OA
ENDBRANCH   2  12
TORSDOF 2
ENDMDL
MODEL 6
REMARK VINA RESULT:      -4.6      3.871      6.033
REMARK  2 active torsions:
REMARK  status: ('A' for Active; 'I' for Inactive)
REMARK    1  A    between atoms: N_1  and  C_3 
REMARK    2  A    between atoms: C_2  and  C_4 
ROOT
HETATM    1  C   UNL     1      63.658   7.635   4.889  1.00  0.00     0.038 A 
HETATM    2  C   UNL     1      62.545   9.945   3.710  1.00  0.00     0.041 A 
HETATM    3  C   UNL     1      63.226   7.619   3.553  1.00  0.00     0.031 A 
HETATM    4  C   UNL     1      63.536   8.824   5.624  1.00  0.00     0.031 A 
HETATM    5  C   UNL     1      62.983   9.970   5.037  1.00  0.00     0.020 A 
HETATM    6  C   UNL     1      62.672   8.767   2.970  1.00  0.00     0.020 A 
ENDROOT
BRANCH   1   7
HETATM    7  N   UNL     1      64.200   6.456   5.496  1.00  0.00    -0.333 N 
HETATM    8  C   UNL     1      64.850   6.375   6.716  1.00  0.00     0.096 A 
HETATM    9  C   UNL     1      65.244   5.074   6.942  1.00  0.00     0.019 A 
HETATM   10  C   UNL     1      64.824   4.315   5.835  1.00  0.00     0.019 A 
HETATM   11  C   UNL     1      64.184   5.175   4.971  1.00  0.00     0.096 A 
ENDBRANCH   1   7
BRANCH   2  12
HETATM   12  C   UNL     1      61.955  11.180   3.141  1.00  0.00     0.209 C 
HETATM   13  O   UNL     1      61.691  11.369   1.969  1.00  0.00    -0.644 OA
HETATM   14  O   UNL     1      61.726  12.126   4.070  1.00  0.00    -0.644 OA
ENDBRANCH   2  12
TORSDOF 2
ENDMDL
MODEL 7
REMARK VINA RESULT:      -4.0      2.686      3.415
REMARK  2 active torsions:
REMARK  status: ('A' for Active; 'I' for Inactive)
REMARK    1  A    between atoms: N_1  and  C_3 
REMARK    2  A    between atoms: C_2  and  C_4 
ROOT
HETATM    1  C   UNL     1      62.147   7.291   4.773  1.00  0.00     0.038 A 
HETATM    2  C   UNL     1      64.787   7.827   5.613  1.00  0.00     0.041 A 
HETATM    3  C   UNL     1      62.628   6.780   5.988  1.00  0.00     0.031 A 
HETATM    4  C   UNL     1      63.001   8.082   3.988  1.00  0.00     0.031 A 
HETATM    5  C   UNL     1      64.311   8.346   4.406  1.00  0.00     0.020 A 
HETATM    6  C   UNL     1      63.940   7.046   6.404  1.00  0.00     0.020 A 
ENDROOT
BRANCH   1   7
HETATM    7  N   UNL     1      60.816   6.999   4.333  1.00  0.00    -0.333 N 
HETATM    8  C   UNL     1      60.084   5.856   4.606  1.00  0.00     0.096 A 
HETATM    9  C   UNL     1      58.855   5.936   3.988  1.00  0.00     0.019 A 
HETATM   10  C   UNL     1      58.811   7.169   3.312  1.00  0.00     0.019 A 
HETATM   11  C   UNL     1      60.013   7.802   3.542  1.00  0.00     0.096 A 
ENDBRANCH   1   7
BRANCH   2  12
HETATM   12  C   UNL     1      66.186   8.124   6.004  1.00  0.00     0.209 C 
HETATM   13  O   UNL     1      66.602   8.226   7.143  1.00  0.00    -0.644 OA
HETATM   14  O   UNL     1      67.001   8.287   4.946  1.00  0.00    -0.644 OA
ENDBRANCH   2  12
TORSDOF 2
ENDMDL
MODEL 8
REMARK VINA RESULT:      -4.0      2.641      3.347
REMARK  2 active torsions:
REMARK  status: ('A' for Active; 'I' for Inactive)
REMARK    1  A    between atoms: N_1  and  C_3 
REMARK    2  A    between atoms: C_2  and  C_4 
ROOT
HETATM    1  C   UNL     1      62.055   8.170   4.240  1.00  0.00     0.038 A 
HETATM    2  C   UNL     1      62.116   5.793   5.760  1.00  0.00     0.041 A 
HETATM    3  C   UNL     1      62.745   8.119   5.461  1.00  0.00     0.031 A 
HETATM    4  C   UNL     1      61.403   7.014   3.785  1.00  0.00     0.031 A 
HETATM    5  C   UNL     1      61.434   5.835   4.541  1.00  0.00     0.020 A 
HETATM    6  C   UNL     1      62.773   6.939   6.216  1.00  0.00     0.020 A 
ENDROOT
BRANCH   1   7
HETATM    7  N   UNL     1      62.002   9.383   3.481  1.00  0.00    -0.333 N 
HETATM    8  C   UNL     1      61.940  10.673   3.980  1.00  0.00     0.096 A 
HETATM    9  C   UNL     1      61.879  11.569   2.935  1.00  0.00     0.019 A 
HETATM   10  C   UNL     1      61.910  10.821   1.744  1.00  0.00     0.019 A 
HETATM   11  C   UNL     1      61.993   9.493   2.101  1.00  0.00     0.096 A 
ENDBRANCH   1   7
BRANCH   2  12
HETATM   12  C   UNL     1      62.106   4.526   6.529  1.00  0.00     0.209 C 
HETATM   13  O   UNL     1      61.212   4.140   7.258  1.00  0.00    -0.644 OA
HETATM   14  O   UNL     1      63.224   3.799   6.352  1.00  0.00    -0.644 OA
ENDBRANCH   2  12
TORSDOF 2
ENDMDL
MODEL 9
REMARK VINA RESULT:      -4.0      5.751      6.780
REMARK  2 active torsions:
REMARK  status: ('A' for Active; 'I' for Inactive)
REMARK    1  A    between atoms: N_1  and  C_3 
REMARK    2  A    between atoms: C_2  and  C_4 
ROOT
HETATM    1  C   UNL     1      58.832   7.160   3.946  1.00  0.00     0.038 A 
HETATM    2  C   UNL     1      57.789   6.391   6.453  1.00  0.00     0.041 A 
HETATM    3  C   UNL     1      59.569   6.327   4.803  1.00  0.00     0.031 A 
HETATM    4  C   UNL     1      57.563   7.595   4.357  1.00  0.00     0.031 A 
HETATM    5  C   UNL     1      57.047   7.213   5.601  1.00  0.00     0.020 A 
HETATM    6  C   UNL     1      59.051   5.947   6.048  1.00  0.00     0.020 A 
ENDROOT
BRANCH   1   7
HETATM    7  N   UNL     1      59.371   7.572   2.685  1.00  0.00    -0.333 N 
HETATM    8  C   UNL     1      58.715   7.578   1.466  1.00  0.00     0.096 A 
HETATM    9  C   UNL     1      59.575   8.020   0.483  1.00  0.00     0.019 A 
HETATM   10  C   UNL     1      60.804   8.305   1.104  1.00  0.00     0.019 A 
HETATM   11  C   UNL     1      60.654   8.032   2.446  1.00  0.00     0.096 A 
ENDBRANCH   1   7
BRANCH   2  12
HETATM   12  C   UNL     1      57.204   6.026   7.766  1.00  0.00     0.209 C 
HETATM   13  O   UNL     1      57.556   5.099   8.471  1.00  0.00    -0.644 OA
HETATM   14  O   UNL     1      56.198   6.839   8.133  1.00  0.00    -0.644 OA
ENDBRANCH   2  12
TORSDOF 2
ENDMDL
