MODEL 1
REMARK VINA RESULT:      -3.8      0.000      0.000
REMARK  2 active torsions:
REMARK  status: ('A' for Active; 'I' for Inactive)
REMARK    1  A    between atoms: C_3  and  C_7 
REMARK    2  A    between atoms: C_7  and  N_8 
ROOT
HETATM    1  N   UNL     1      64.647   9.031   5.628  1.00  0.00    -0.340 N 
ATOM      2  HN  UNL     1      65.109   9.371   6.472  1.00  0.00     0.167 HD
HETATM    3  C   UNL     1      63.555   9.573   4.978  1.00  0.00     0.066 A 
HETATM    4  C   UNL     1      63.254   8.805   3.873  1.00  0.00     0.075 A 
HETATM    5  C   UNL     1      64.954   7.973   4.905  1.00  0.00     0.120 A 
HETATM    6  O   UNL     1      64.144   7.769   3.821  1.00  0.00    -0.301 OA
HETATM    7  C   UNL     1      62.239   8.873   2.809  1.00  0.00     0.079 C 
HETATM    8  C   UNL     1      66.032   6.987   5.109  1.00  0.00     0.098 C 
ENDROOT
BRANCH   3   9
HETATM    9  C   UNL     1      62.878  10.797   5.481  1.00  0.00     0.288 C 
BRANCH   9  10
HETATM   10  N   UNL     1      63.795  11.531   6.350  1.00  0.00    -0.074 N 
HETATM   11  H   UNL     1      63.470  12.492   6.453  1.00  0.00     0.274 HD
HETATM   12  H   UNL     1      64.728  11.530   5.937  1.00  0.00     0.274 HD
HETATM   13  H   UNL     1      63.828  11.083   7.266  1.00  0.00     0.274 HD
ENDBRANCH   9  10
ENDBRANCH   3   9
TORSDOF 2
ENDMDL
MODEL 2
REMARK VINA RESULT:      -3.7      1.957      2.238
REMARK  2 active torsions:
REMARK  status: ('A' for Active; 'I' for Inactive)
REMARK    1  A    between atoms: C_3  and  C_7 
REMARK    2  A    between atoms: C_7  and  N_8 
ROOT
HETATM    1  N   UNL     1      62.990   9.003   4.575  1.00  0.00    -0.340 N 
ATOM      2  HN  UNL     1      63.325   8.606   5.452  1.00  0.00     0.167 HD
HETATM    3  C   UNL     1      62.577  10.299   4.328  1.00  0.00     0.066 A 
HETATM    4  C   UNL     1      62.207  10.417   3.005  1.00  0.00     0.075 A 
HETATM    5  C   UNL     1      62.850   8.400   3.411  1.00  0.00     0.120 A 
HETATM    6  O   UNL     1      62.373   9.199   2.409  1.00  0.00    -0.301 OA
HETATM    7  C   UNL     1      61.707  11.516   2.163  1.00  0.00     0.079 C 
HETATM    8  C   UNL     1      63.128   6.996   3.052  1.00  0.00     0.098 C 
ENDROOT
BRANCH   3   9
HETATM    9  C   UNL     1      62.567  11.329   5.400  1.00  0.00     0.288 C 
BRANCH   9  10
HETATM   10  N   UNL     1      63.798  11.224   6.180  1.00  0.00    -0.074 N 
HETATM   11  H   UNL     1      64.375  12.050   6.018  1.00  0.00     0.274 HD
HETATM   12  H   UNL     1      64.312  10.390   5.895  1.00  0.00     0.274 HD
HETATM   13  H   UNL     1      63.568  11.159   7.172  1.00  0.00     0.274 HD
ENDBRANCH   9  10
ENDBRANCH   3   9
TORSDOF 2
ENDMDL
MODEL 3
REMARK VINA RESULT:      -3.7      1.951      2.581
REMARK  2 active torsions:
REMARK  status: ('A' for Active; 'I' for Inactive)
REMARK    1  A    between atoms: C_3  and  C_7 
REMARK    2  A    between atoms: C_7  and  N_8 
ROOT
HETATM    1  N   UNL     1      63.738   8.136   4.027  1.00  0.00    -0.340 N 
ATOM      2  HN  UNL     1      63.657   7.332   3.405  1.00  0.00     0.167 HD
HETATM    3  C   UNL     1      62.831   9.162   4.217  1.00  0.00     0.066 A 
HETATM    4  C   UNL     1      63.328  10.045   5.152  1.00  0.00     0.075 A 
HETATM    5  C   UNL     1      64.732   8.439   4.838  1.00  0.00     0.120 A 
HETATM    6  O   UNL     1      64.554   9.592   5.553  1.00  0.00    -0.301 OA
HETATM    7  C   UNL     1      62.838  11.290   5.765  1.00  0.00     0.079 C 
HETATM    8  C   UNL     1      65.997   7.716   5.070  1.00  0.00     0.098 C 
ENDROOT
BRANCH   3   9
HETATM    9  C   UNL     1      61.547   9.212   3.469  1.00  0.00     0.288 C 
BRANCH   9  10
HETATM   10  N   UNL     1      61.566  10.354   2.557  1.00  0.00    -0.074 N 
HETATM   11  H   UNL     1      60.613  10.575   2.269  1.00  0.00     0.274 HD
HETATM   12  H   UNL     1      62.125  10.123   1.735  1.00  0.00     0.274 HD
HETATM   13  H   UNL     1      61.974  11.160   3.030  1.00  0.00     0.274 HD
ENDBRANCH   9  10
ENDBRANCH   3   9
TORSDOF 2
ENDMDL
MODEL 4
REMARK VINA RESULT:      -3.6      1.531      3.024
REMARK  2 active torsions:
REMARK  status: ('A' for Active; 'I' for Inactive)
REMARK    1  A    between atoms: C_3  and  C_7 
REMARK    2  A    between atoms: C_7  and  N_8 
ROOT
HETATM    1  N   UNL     1      62.010  10.605   3.432  1.00  0.00    -0.340 N 
ATOM      2  HN  UNL     1      61.447  11.433   3.241  1.00  0.00     0.167 HD
HETATM    3  C   UNL     1      62.665  10.273   4.603  1.00  0.00     0.066 A 
HETATM    4  C   UNL     1      63.307   9.063   4.440  1.00  0.00     0.075 A 
HETATM    5  C   UNL     1      62.282   9.602   2.621  1.00  0.00     0.120 A 
HETATM    6  O   UNL     1      63.072   8.627   3.166  1.00  0.00    -0.301 OA
HETATM    7  C   UNL     1      64.135   8.204   5.302  1.00  0.00     0.079 C 
HETATM    8  C   UNL     1      61.862   9.397   1.222  1.00  0.00     0.098 C 
ENDROOT
BRANCH   3   9
HETATM    9  C   UNL     1      62.625  11.159   5.796  1.00  0.00     0.288 C 
BRANCH   9  10
HETATM   10  N   UNL     1      63.991  11.446   6.228  1.00  0.00    -0.074 N 
HETATM   11  H   UNL     1      63.967  12.016   7.074  1.00  0.00     0.274 HD
HETATM   12  H   UNL     1      64.481  11.953   5.491  1.00  0.00     0.274 HD
HETATM   13  H   UNL     1      64.477  10.571   6.421  1.00  0.00     0.274 HD
ENDBRANCH   9  10
ENDBRANCH   3   9
TORSDOF 2
ENDMDL
MODEL 5
REMARK VINA RESULT:      -3.6      3.256      4.432
REMARK  2 active torsions:
REMARK  status: ('A' for Active; 'I' for Inactive)
REMARK    1  A    between atoms: C_3  and  C_7 
REMARK    2  A    between atoms: C_7  and  N_8 
ROOT
HETATM    1  N   UNL     1      67.514   7.038   7.125  1.00  0.00    -0.340 N 
ATOM      2  HN  UNL     1      68.504   6.875   7.305  1.00  0.00     0.167 HD
HETATM    3  C   UNL     1      66.924   7.501   5.964  1.00  0.00     0.066 A 
HETATM    4  C   UNL     1      65.558   7.573   6.143  1.00  0.00     0.075 A 
HETATM    5  C   UNL     1      66.499   6.857   7.946  1.00  0.00     0.120 A 
HETATM    6  O   UNL     1      65.276   7.167   7.417  1.00  0.00    -0.301 OA
HETATM    7  C   UNL     1      64.422   7.968   5.295  1.00  0.00     0.079 C 
HETATM    8  C   UNL     1      66.505   6.380   9.342  1.00  0.00     0.098 C 
ENDROOT
BRANCH   3   9
HETATM    9  C   UNL     1      67.732   7.845   4.765  1.00  0.00     0.288 C 
BRANCH   9  10
HETATM   10  N   UNL     1      67.555   6.807   3.751  1.00  0.00    -0.074 N 
HETATM   11  H   UNL     1      66.571   6.543   3.703  1.00  0.00     0.274 HD
HETATM   12  H   UNL     1      68.114   5.991   4.000  1.00  0.00     0.274 HD
HETATM   13  H   UNL     1      67.858   7.163   2.844  1.00  0.00     0.274 HD
ENDBRANCH   9  10
ENDBRANCH   3   9
TORSDOF 2
ENDMDL
MODEL 6
REMARK VINA RESULT:      -3.5      2.193      3.571
REMARK  2 active torsions:
REMARK  status: ('A' for Active; 'I' for Inactive)
REMARK    1  A    between atoms: C_3  and  C_7 
REMARK    2  A    between atoms: C_7  and  N_8 
ROOT
HETATM    1  N   UNL     1      62.233  10.458   4.005  1.00  0.00    -0.340 N 
ATOM      2  HN  UNL     1      62.119  11.138   4.757  1.00  0.00     0.167 HD
HETATM    3  C   UNL     1      62.614   9.133   4.105  1.00  0.00     0.066 A 
HETATM    4  C   UNL     1      62.638   8.568   2.848  1.00  0.00     0.075 A 
HETATM    5  C   UNL     1      62.048  10.638   2.712  1.00  0.00     0.120 A 
HETATM    6  O   UNL     1      62.281   9.530   1.944  1.00  0.00    -0.301 OA
HETATM    7  C   UNL     1      62.944   7.229   2.318  1.00  0.00     0.079 C 
HETATM    8  C   UNL     1      61.639  11.858   1.992  1.00  0.00     0.098 C 
ENDROOT
BRANCH   3   9
HETATM    9  C   UNL     1      62.935   8.513   5.418  1.00  0.00     0.288 C 
BRANCH   9  10
HETATM   10  N   UNL     1      64.367   8.652   5.678  1.00  0.00    -0.074 N 
HETATM   11  H   UNL     1      64.781   7.728   5.800  1.00  0.00     0.274 HD
HETATM   12  H   UNL     1      64.506   9.202   6.526  1.00  0.00     0.274 HD
HETATM   13  H   UNL     1      64.811   9.123   4.890  1.00  0.00     0.274 HD
ENDBRANCH   9  10
ENDBRANCH   3   9
TORSDOF 2
ENDMDL
MODEL 7
REMARK VINA RESULT:      -3.5      2.030      3.545
REMARK  2 active torsions:
REMARK  status: ('A' for Active; 'I' for Inactive)
REMARK    1  A    between atoms: C_3  and  C_7 
REMARK    2  A    between atoms: C_7  and  N_8 
ROOT
HETATM    1  N   UNL     1      63.069   8.271   3.115  1.00  0.00    -0.340 N 
ATOM      2  HN  UNL     1      63.359   7.367   2.743  1.00  0.00     0.167 HD
HETATM    3  C   UNL     1      63.378   8.825   4.342  1.00  0.00     0.066 A 
HETATM    4  C   UNL     1      62.787  10.067   4.445  1.00  0.00     0.075 A 
HETATM    5  C   UNL     1      62.312   9.182   2.537  1.00  0.00     0.120 A 
HETATM    6  O   UNL     1      62.094  10.302   3.290  1.00  0.00    -0.301 OA
HETATM    7  C   UNL     1      62.757  11.119   5.474  1.00  0.00     0.079 C 
HETATM    8  C   UNL     1      61.672   9.153   1.208  1.00  0.00     0.098 C 
ENDROOT
BRANCH   3   9
HETATM    9  C   UNL     1      64.222   8.105   5.331  1.00  0.00     0.288 C 
BRANCH   9  10
HETATM   10  N   UNL     1      63.385   7.655   6.442  1.00  0.00    -0.074 N 
HETATM   11  H   UNL     1      62.637   7.061   6.085  1.00  0.00     0.274 HD
HETATM   12  H   UNL     1      62.981   8.466   6.912  1.00  0.00     0.274 HD
HETATM   13  H   UNL     1      63.954   7.127   7.103  1.00  0.00     0.274 HD
ENDBRANCH   9  10
ENDBRANCH   3   9
TORSDOF 2
ENDMDL
MODEL 8
REMARK VINA RESULT:      -3.5      2.538      3.831
REMARK  2 active torsions:
REMARK  status: ('A' for Active; 'I' for Inactive)
REMARK    1  A    between atoms: C_3  and  C_7 
REMARK    2  A    between atoms: C_7  and  N_8 
ROOT
HETATM    1  N   UNL     1      65.101   7.242   7.134  1.00  0.00    -0.340 N 
ATOM      2  HN  UNL     1      64.155   7.227   7.515  1.00  0.00     0.167 HD
HETATM    3  C   UNL     1      65.528   7.777   5.933  1.00  0.00     0.066 A 
HETATM    4  C   UNL     1      66.888   7.589   5.806  1.00  0.00     0.075 A 
HETATM    5  C   UNL     1      66.202   6.757   7.673  1.00  0.00     0.120 A 
HETATM    6  O   UNL     1      67.329   6.927   6.918  1.00  0.00    -0.301 OA
HETATM    7  C   UNL     1      67.891   7.935   4.787  1.00  0.00     0.079 C 
HETATM    8  C   UNL     1      66.377   6.056   8.959  1.00  0.00     0.098 C 
ENDROOT
BRANCH   3   9
HETATM    9  C   UNL     1      64.580   8.428   4.991  1.00  0.00     0.288 C 
BRANCH   9  10
HETATM   10  N   UNL     1      63.404   8.883   5.730  1.00  0.00    -0.074 N 
HETATM   11  H   UNL     1      63.380   9.903   5.736  1.00  0.00     0.274 HD
HETATM   12  H   UNL     1      63.451   8.538   6.689  1.00  0.00     0.274 HD
HETATM   13  H   UNL     1      62.561   8.525   5.280  1.00  0.00     0.274 HD
ENDBRANCH   9  10
ENDBRANCH   3   9
TORSDOF 2
ENDMDL
MODEL 9
REMARK VINA RESULT:      -3.4      1.741      3.231
REMARK  2 active torsions:
REMARK  status: ('A' for Active; 'I' for Inactive)
REMARK    1  A    between atoms: C_3  and  C_7 
REMARK    2  A    between atoms: C_7  and  N_8 
ROOT
HETATM    1  N   UNL     1      63.104   9.053   5.875  1.00  0.00    -0.340 N 
ATOM      2  HN  UNL     1      63.002   9.347   6.846  1.00  0.00     0.167 HD
HETATM    3  C   UNL     1      63.514   7.824   5.395  1.00  0.00     0.066 A 
HETATM    4  C   UNL     1      63.509   7.846   4.016  1.00  0.00     0.075 A 
HETATM    5  C   UNL     1      62.877   9.759   4.785  1.00  0.00     0.120 A 
HETATM    6  O   UNL     1      63.106   9.089   3.614  1.00  0.00    -0.301 OA
HETATM    7  C   UNL     1      63.823   6.868   2.963  1.00  0.00     0.079 C 
HETATM    8  C   UNL     1      62.421  11.156   4.659  1.00  0.00     0.098 C 
ENDROOT
BRANCH   3   9
HETATM    9  C   UNL     1      63.887   6.716   6.313  1.00  0.00     0.288 C 
BRANCH   9  10
HETATM   10  N   UNL     1      65.007   7.141   7.150  1.00  0.00    -0.074 N 
HETATM   11  H   UNL     1      64.666   7.759   7.887  1.00  0.00     0.274 HD
HETATM   12  H   UNL     1      65.689   7.639   6.578  1.00  0.00     0.274 HD
HETATM   13  H   UNL     1      65.448   6.322   7.570  1.00  0.00     0.274 HD
ENDBRANCH   9  10
ENDBRANCH   3   9
TORSDOF 2
ENDMDL
