MODEL 1
REMARK VINA RESULT:      -5.7      0.000      0.000
REMARK  3 active torsions:
REMARK  status: ('A' for Active; 'I' for Inactive)
REMARK    1  A    between atoms: C_3  and  C_7 
REMARK    2  A    between atoms: C_4  and  C_8 
REMARK    3  A    between atoms: C_8  and  N_9 
ROOT
HETATM    1  N   UNL     1      64.552   7.725   6.563  1.00  0.00    -0.336 N 
ATOM      2  HN  UNL     1      63.720   7.620   7.143  1.00  0.00     0.168 HD
HETATM    3  C   UNL     1      64.663   8.363   5.411  1.00  0.00     0.158 A 
HETATM    4  C   UNL     1      65.821   7.233   6.803  1.00  0.00     0.066 A 
HETATM    5  O   UNL     1      65.922   8.319   4.870  1.00  0.00    -0.296 OA
HETATM    6  C   UNL     1      66.655   7.596   5.765  1.00  0.00     0.075 A 
HETATM    7  C   UNL     1      68.075   7.382   5.443  1.00  0.00     0.079 C 
ENDROOT
BRANCH   3   8
HETATM    8  C   UNL     1      63.656   9.119   4.669  1.00  0.00     0.015 A 
HETATM    9  C   UNL     1      63.215  10.357   5.158  1.00  0.00     0.016 A 
HETATM   10  C   UNL     1      62.268  11.109   4.456  1.00  0.00     0.001 A 
HETATM   11  C   UNL     1      61.749  10.629   3.255  1.00  0.00     0.000 A 
HETATM   12  C   UNL     1      62.171   9.398   2.758  1.00  0.00     0.001 A 
HETATM   13  C   UNL     1      63.119   8.648   3.460  1.00  0.00     0.016 A 
ENDBRANCH   3   8
BRANCH   4  14
HETATM   14  C   UNL     1      66.123   6.448   8.028  1.00  0.00     0.288 C 
BRANCH  14  15
HETATM   15  N   UNL     1      67.294   7.027   8.684  1.00  0.00    -0.074 N 
HETATM   16  H   UNL     1      68.101   6.953   8.066  1.00  0.00     0.274 HD
HETATM   17  H   UNL     1      67.482   6.521   9.550  1.00  0.00     0.274 HD
HETATM   18  H   UNL     1      67.114   8.008   8.896  1.00  0.00     0.274 HD
ENDBRANCH  14  15
ENDBRANCH   4  14
TORSDOF 3
ENDMDL
MODEL 2
REMARK VINA RESULT:      -5.4      1.616      2.043
REMARK  3 active torsions:
REMARK  status: ('A' for Active; 'I' for Inactive)
REMARK    1  A    between atoms: C_3  and  C_7 
REMARK    2  A    between atoms: C_4  and  C_8 
REMARK    3  A    between atoms: C_8  and  N_9 
ROOT
HETATM    1  N   UNL     1      64.740   8.379   5.735  1.00  0.00    -0.336 N 
ATOM      2  HN  UNL     1      65.302   9.228   5.794  1.00  0.00     0.168 HD
HETATM    3  C   UNL     1      63.653   8.174   5.011  1.00  0.00     0.158 A 
HETATM    4  C   UNL     1      64.941   7.181   6.393  1.00  0.00     0.066 A 
HETATM    5  O   UNL     1      63.120   6.920   5.152  1.00  0.00    -0.296 OA
HETATM    6  C   UNL     1      63.948   6.292   6.037  1.00  0.00     0.075 A 
HETATM    7  C   UNL     1      63.616   4.902   6.386  1.00  0.00     0.079 C 
ENDROOT
BRANCH   3   8
HETATM    8  C   UNL     1      62.980   9.073   4.076  1.00  0.00     0.015 A 
HETATM    9  C   UNL     1      62.578  10.348   4.502  1.00  0.00     0.016 A 
HETATM   10  C   UNL     1      61.951  11.232   3.620  1.00  0.00     0.001 A 
HETATM   11  C   UNL     1      61.715  10.852   2.300  1.00  0.00     0.000 A 
HETATM   12  C   UNL     1      62.102   9.587   1.863  1.00  0.00     0.001 A 
HETATM   13  C   UNL     1      62.730   8.704   2.744  1.00  0.00     0.016 A 
ENDBRANCH   3   8
BRANCH   4  14
HETATM   14  C   UNL     1      66.089   6.994   7.318  1.00  0.00     0.288 C 
BRANCH  14  15
HETATM   15  N   UNL     1      66.926   8.191   7.282  1.00  0.00    -0.074 N 
HETATM   16  H   UNL     1      67.904   7.926   7.403  1.00  0.00     0.274 HD
HETATM   17  H   UNL     1      66.650   8.821   8.035  1.00  0.00     0.274 HD
HETATM   18  H   UNL     1      66.809   8.661   6.384  1.00  0.00     0.274 HD
ENDBRANCH  14  15
ENDBRANCH   4  14
TORSDOF 3
ENDMDL
MODEL 3
REMARK VINA RESULT:      -5.3      1.623      2.155
REMARK  3 active torsions:
REMARK  status: ('A' for Active; 'I' for Inactive)
REMARK    1  A    between atoms: C_3  and  C_7 
REMARK    2  A    between atoms: C_4  and  C_8 
REMARK    3  A    between atoms: C_8  and  N_9 
ROOT
HETATM    1  N   UNL     1      65.675   7.339   4.486  1.00  0.00    -0.336 N 
ATOM      2  HN  UNL     1      65.875   7.336   3.486  1.00  0.00     0.168 HD
HETATM    3  C   UNL     1      64.745   8.028   5.125  1.00  0.00     0.158 A 
HETATM    4  C   UNL     1      66.313   6.624   5.481  1.00  0.00     0.066 A 
HETATM    5  O   UNL     1      64.730   7.818   6.479  1.00  0.00    -0.296 OA
HETATM    6  C   UNL     1      65.735   6.921   6.698  1.00  0.00     0.075 A 
HETATM    7  C   UNL     1      65.958   6.501   8.091  1.00  0.00     0.079 C 
ENDROOT
BRANCH   3   8
HETATM    8  C   UNL     1      63.732   8.935   4.590  1.00  0.00     0.015 A 
HETATM    9  C   UNL     1      63.437  10.127   5.268  1.00  0.00     0.016 A 
HETATM   10  C   UNL     1      62.487  11.021   4.765  1.00  0.00     0.001 A 
HETATM   11  C   UNL     1      61.817  10.731   3.578  1.00  0.00     0.000 A 
HETATM   12  C   UNL     1      62.093   9.549   2.896  1.00  0.00     0.001 A 
HETATM   13  C   UNL     1      63.044   8.657   3.398  1.00  0.00     0.016 A 
ENDBRANCH   3   8
BRANCH   4  14
HETATM   14  C   UNL     1      67.436   5.703   5.168  1.00  0.00     0.288 C 
BRANCH  14  15
HETATM   15  N   UNL     1      67.424   5.411   3.736  1.00  0.00    -0.074 N 
HETATM   16  H   UNL     1      67.167   4.435   3.591  1.00  0.00     0.274 HD
HETATM   17  H   UNL     1      68.352   5.578   3.348  1.00  0.00     0.274 HD
HETATM   18  H   UNL     1      66.747   6.015   3.272  1.00  0.00     0.274 HD
ENDBRANCH  14  15
ENDBRANCH   4  14
TORSDOF 3
ENDMDL
MODEL 4
REMARK VINA RESULT:      -5.2      1.775      5.325
REMARK  3 active torsions:
REMARK  status: ('A' for Active; 'I' for Inactive)
REMARK    1  A    between atoms: C_3  and  C_7 
REMARK    2  A    between atoms: C_4  and  C_8 
REMARK    3  A    between atoms: C_8  and  N_9 
ROOT
HETATM    1  N   UNL     1      64.611   9.083   5.801  1.00  0.00    -0.336 N 
ATOM      2  HN  UNL     1      65.012   9.487   6.647  1.00  0.00     0.168 HD
HETATM    3  C   UNL     1      64.952   7.956   5.200  1.00  0.00     0.158 A 
HETATM    4  C   UNL     1      63.588   9.588   5.022  1.00  0.00     0.066 A 
HETATM    5  O   UNL     1      64.224   7.687   4.070  1.00  0.00    -0.296 OA
HETATM    6  C   UNL     1      63.355   8.735   3.964  1.00  0.00     0.075 A 
HETATM    7  C   UNL     1      62.429   8.716   2.821  1.00  0.00     0.079 C 
ENDROOT
BRANCH   3   8
HETATM    8  C   UNL     1      65.953   6.965   5.586  1.00  0.00     0.015 A 
HETATM    9  C   UNL     1      66.502   6.995   6.877  1.00  0.00     0.016 A 
HETATM   10  C   UNL     1      67.445   6.045   7.277  1.00  0.00     0.001 A 
HETATM   11  C   UNL     1      67.855   5.053   6.389  1.00  0.00     0.000 A 
HETATM   12  C   UNL     1      67.326   5.012   5.101  1.00  0.00     0.001 A 
HETATM   13  C   UNL     1      66.381   5.961   4.702  1.00  0.00     0.016 A 
ENDBRANCH   3   8
BRANCH   4  14
HETATM   14  C   UNL     1      62.913  10.865   5.372  1.00  0.00     0.288 C 
BRANCH  14  15
HETATM   15  N   UNL     1      63.698  11.551   6.396  1.00  0.00    -0.074 N 
HETATM   16  H   UNL     1      63.972  12.471   6.055  1.00  0.00     0.274 HD
HETATM   17  H   UNL     1      64.533  11.004   6.607  1.00  0.00     0.274 HD
HETATM   18  H   UNL     1      63.136  11.654   7.242  1.00  0.00     0.274 HD
ENDBRANCH  14  15
ENDBRANCH   4  14
TORSDOF 3
ENDMDL
MODEL 5
REMARK VINA RESULT:      -5.0      2.207      5.529
REMARK  3 active torsions:
REMARK  status: ('A' for Active; 'I' for Inactive)
REMARK    1  A    between atoms: C_3  and  C_7 
REMARK    2  A    between atoms: C_4  and  C_8 
REMARK    3  A    between atoms: C_8  and  N_9 
ROOT
HETATM    1  N   UNL     1      63.477   8.363   3.863  1.00  0.00    -0.336 N 
ATOM      2  HN  UNL     1      63.346   7.636   3.161  1.00  0.00     0.168 HD
HETATM    3  C   UNL     1      64.431   8.449   4.774  1.00  0.00     0.158 A 
HETATM    4  C   UNL     1      62.698   9.483   4.080  1.00  0.00     0.066 A 
HETATM    5  O   UNL     1      64.330   9.551   5.583  1.00  0.00    -0.296 OA
HETATM    6  C   UNL     1      63.220  10.206   5.133  1.00  0.00     0.075 A 
HETATM    7  C   UNL     1      62.857  11.452   5.826  1.00  0.00     0.079 C 
ENDROOT
BRANCH   3   8
HETATM    8  C   UNL     1      65.572   7.567   5.008  1.00  0.00     0.015 A 
HETATM    9  C   UNL     1      66.270   7.637   6.222  1.00  0.00     0.016 A 
HETATM   10  C   UNL     1      67.351   6.789   6.477  1.00  0.00     0.001 A 
HETATM   11  C   UNL     1      67.750   5.860   5.518  1.00  0.00     0.000 A 
HETATM   12  C   UNL     1      67.072   5.781   4.304  1.00  0.00     0.001 A 
HETATM   13  C   UNL     1      65.990   6.628   4.050  1.00  0.00     0.016 A 
ENDBRANCH   3   8
BRANCH   4  14
HETATM   14  C   UNL     1      61.504   9.764   3.241  1.00  0.00     0.288 C 
BRANCH  14  15
HETATM   15  N   UNL     1      61.700  11.036   2.548  1.00  0.00    -0.074 N 
HETATM   16  H   UNL     1      61.656  10.884   1.541  1.00  0.00     0.274 HD
HETATM   17  H   UNL     1      62.613  11.419   2.794  1.00  0.00     0.274 HD
HETATM   18  H   UNL     1      60.970  11.691   2.827  1.00  0.00     0.274 HD
ENDBRANCH  14  15
ENDBRANCH   4  14
TORSDOF 3
ENDMDL
MODEL 6
REMARK VINA RESULT:      -4.7      2.899      6.031
REMARK  3 active torsions:
REMARK  status: ('A' for Active; 'I' for Inactive)
REMARK    1  A    between atoms: C_3  and  C_7 
REMARK    2  A    between atoms: C_4  and  C_8 
REMARK    3  A    between atoms: C_8  and  N_9 
ROOT
HETATM    1  N   UNL     1      62.302   7.791   2.716  1.00  0.00    -0.336 N 
ATOM      2  HN  UNL     1      62.246   6.783   2.567  1.00  0.00     0.168 HD
HETATM    3  C   UNL     1      62.947   8.435   3.673  1.00  0.00     0.158 A 
HETATM    4  C   UNL     1      61.720   8.793   1.964  1.00  0.00     0.066 A 
HETATM    5  O   UNL     1      62.825   9.798   3.605  1.00  0.00    -0.296 OA
HETATM    6  C   UNL     1      62.039  10.018   2.511  1.00  0.00     0.075 A 
HETATM    7  C   UNL     1      61.732  11.420   2.185  1.00  0.00     0.079 C 
ENDROOT
BRANCH   3   8
HETATM    8  C   UNL     1      63.782   7.904   4.747  1.00  0.00     0.015 A 
HETATM    9  C   UNL     1      63.311   6.845   5.539  1.00  0.00     0.016 A 
HETATM   10  C   UNL     1      64.100   6.307   6.559  1.00  0.00     0.001 A 
HETATM   11  C   UNL     1      65.371   6.822   6.802  1.00  0.00     0.000 A 
HETATM   12  C   UNL     1      65.853   7.877   6.031  1.00  0.00     0.001 A 
HETATM   13  C   UNL     1      65.064   8.414   5.010  1.00  0.00     0.016 A 
ENDBRANCH   3   8
BRANCH   4  14
HETATM   14  C   UNL     1      60.898   8.478   0.767  1.00  0.00     0.288 C 
BRANCH  14  15
HETATM   15  N   UNL     1      59.484   8.559   1.128  1.00  0.00    -0.074 N 
HETATM   16  H   UNL     1      58.914   8.262   0.337  1.00  0.00     0.274 HD
HETATM   17  H   UNL     1      59.251   9.522   1.372  1.00  0.00     0.274 HD
HETATM   18  H   UNL     1      59.302   7.952   1.927  1.00  0.00     0.274 HD
ENDBRANCH  14  15
ENDBRANCH   4  14
TORSDOF 3
ENDMDL
MODEL 7
REMARK VINA RESULT:      -4.6      2.075      5.655
REMARK  3 active torsions:
REMARK  status: ('A' for Active; 'I' for Inactive)
REMARK    1  A    between atoms: C_3  and  C_7 
REMARK    2  A    between atoms: C_4  and  C_8 
REMARK    3  A    between atoms: C_8  and  N_9 
ROOT
HETATM    1  N   UNL     1      63.614   9.205   4.871  1.00  0.00    -0.336 N 
ATOM      2  HN  UNL     1      63.694   9.798   5.697  1.00  0.00     0.168 HD
HETATM    3  C   UNL     1      64.348   8.154   4.552  1.00  0.00     0.158 A 
HETATM    4  C   UNL     1      62.711   9.319   3.831  1.00  0.00     0.066 A 
HETATM    5  O   UNL     1      63.994   7.568   3.364  1.00  0.00    -0.296 OA
HETATM    6  C   UNL     1      62.948   8.318   2.910  1.00  0.00     0.075 A 
HETATM    7  C   UNL     1      62.349   7.916   1.628  1.00  0.00     0.079 C 
ENDROOT
BRANCH   3   8
HETATM    8  C   UNL     1      65.440   7.526   5.293  1.00  0.00     0.015 A 
HETATM    9  C   UNL     1      66.711   7.425   4.709  1.00  0.00     0.016 A 
HETATM   10  C   UNL     1      67.776   6.847   5.407  1.00  0.00     0.001 A 
HETATM   11  C   UNL     1      67.582   6.362   6.698  1.00  0.00     0.000 A 
HETATM   12  C   UNL     1      66.325   6.448   7.290  1.00  0.00     0.001 A 
HETATM   13  C   UNL     1      65.260   7.027   6.593  1.00  0.00     0.016 A 
ENDBRANCH   3   8
BRANCH   4  14
HETATM   14  C   UNL     1      61.686  10.393   3.815  1.00  0.00     0.288 C 
BRANCH  14  15
HETATM   15  N   UNL     1      61.815  11.154   2.574  1.00  0.00    -0.074 N 
HETATM   16  H   UNL     1      60.943  11.649   2.387  1.00  0.00     0.274 HD
HETATM   17  H   UNL     1      62.015  10.516   1.804  1.00  0.00     0.274 HD
HETATM   18  H   UNL     1      62.576  11.826   2.666  1.00  0.00     0.274 HD
ENDBRANCH  14  15
ENDBRANCH   4  14
TORSDOF 3
ENDMDL
MODEL 8
REMARK VINA RESULT:      -4.6      1.938      2.667
REMARK  3 active torsions:
REMARK  status: ('A' for Active; 'I' for Inactive)
REMARK    1  A    between atoms: C_3  and  C_7 
REMARK    2  A    between atoms: C_4  and  C_8 
REMARK    3  A    between atoms: C_8  and  N_9 
ROOT
HETATM    1  N   UNL     1      65.082   5.627   5.451  1.00  0.00    -0.336 N 
ATOM      2  HN  UNL     1      64.900   5.046   4.633  1.00  0.00     0.168 HD
HETATM    3  C   UNL     1      64.712   6.879   5.655  1.00  0.00     0.158 A 
HETATM    4  C   UNL     1      65.773   5.285   6.598  1.00  0.00     0.066 A 
HETATM    5  O   UNL     1      65.118   7.390   6.861  1.00  0.00    -0.296 OA
HETATM    6  C   UNL     1      65.796   6.365   7.456  1.00  0.00     0.075 A 
HETATM    7  C   UNL     1      66.357   6.628   8.790  1.00  0.00     0.079 C 
ENDROOT
BRANCH   3   8
HETATM    8  C   UNL     1      63.917   7.761   4.804  1.00  0.00     0.015 A 
HETATM    9  C   UNL     1      63.636   7.386   3.481  1.00  0.00     0.016 A 
HETATM   10  C   UNL     1      62.860   8.204   2.654  1.00  0.00     0.001 A 
HETATM   11  C   UNL     1      62.357   9.409   3.139  1.00  0.00     0.000 A 
HETATM   12  C   UNL     1      62.631   9.800   4.448  1.00  0.00     0.001 A 
HETATM   13  C   UNL     1      63.406   8.981   5.275  1.00  0.00     0.016 A 
ENDBRANCH   3   8
BRANCH   4  14
HETATM   14  C   UNL     1      66.357   3.930   6.770  1.00  0.00     0.288 C 
BRANCH  14  15
HETATM   15  N   UNL     1      65.444   3.119   7.572  1.00  0.00    -0.074 N 
HETATM   16  H   UNL     1      65.029   3.696   8.302  1.00  0.00     0.274 HD
HETATM   17  H   UNL     1      65.960   2.349   7.999  1.00  0.00     0.274 HD
HETATM   18  H   UNL     1      64.708   2.744   6.973  1.00  0.00     0.274 HD
ENDBRANCH  14  15
ENDBRANCH   4  14
TORSDOF 3
ENDMDL
MODEL 9
REMARK VINA RESULT:      -4.2      2.160      5.886
REMARK  3 active torsions:
REMARK  status: ('A' for Active; 'I' for Inactive)
REMARK    1  A    between atoms: C_3  and  C_7 
REMARK    2  A    between atoms: C_4  and  C_8 
REMARK    3  A    between atoms: C_8  and  N_9 
ROOT
HETATM    1  N   UNL     1      64.269   6.030   5.349  1.00  0.00    -0.336 N 
ATOM      2  HN  UNL     1      64.269   5.027   5.163  1.00  0.00     0.168 HD
HETATM    3  C   UNL     1      65.023   6.696   6.207  1.00  0.00     0.158 A 
HETATM    4  C   UNL     1      63.482   7.002   4.762  1.00  0.00     0.066 A 
HETATM    5  O   UNL     1      64.781   8.045   6.229  1.00  0.00    -0.296 OA
HETATM    6  C   UNL     1      63.795   8.231   5.303  1.00  0.00     0.075 A 
HETATM    7  C   UNL     1      63.322   9.611   5.106  1.00  0.00     0.079 C 
ENDROOT
BRANCH   3   8
HETATM    8  C   UNL     1      66.079   6.205   7.089  1.00  0.00     0.015 A 
HETATM    9  C   UNL     1      66.353   6.877   8.290  1.00  0.00     0.016 A 
HETATM   10  C   UNL     1      67.343   6.413   9.160  1.00  0.00     0.001 A 
HETATM   11  C   UNL     1      68.075   5.272   8.840  1.00  0.00     0.000 A 
HETATM   12  C   UNL     1      67.821   4.596   7.649  1.00  0.00     0.001 A 
HETATM   13  C   UNL     1      66.829   5.059   6.779  1.00  0.00     0.016 A 
ENDBRANCH   3   8
BRANCH   4  14
HETATM   14  C   UNL     1      62.485   6.656   3.716  1.00  0.00     0.288 C 
BRANCH  14  15
HETATM   15  N   UNL     1      63.063   6.929   2.402  1.00  0.00    -0.074 N 
HETATM   16  H   UNL     1      63.724   7.702   2.475  1.00  0.00     0.274 HD
HETATM   17  H   UNL     1      62.320   7.178   1.749  1.00  0.00     0.274 HD
HETATM   18  H   UNL     1      63.548   6.097   2.065  1.00  0.00     0.274 HD
ENDBRANCH  14  15
ENDBRANCH   4  14
TORSDOF 3
ENDMDL
