MODEL 1
REMARK VINA RESULT:      -5.6      0.000      0.000
REMARK  3 active torsions:
REMARK  status: ('A' for Active; 'I' for Inactive)
REMARK    1  A    between atoms: C_3  and  C_7 
REMARK    2  A    between atoms: C_4  and  C_8 
REMARK    3  A    between atoms: C_8  and  O_10 
ROOT
HETATM    1  N   UNK     1      64.492   7.619   6.525  1.00  0.00    -0.336 N 
ATOM      2  HN  UNK     1      63.642   7.462   7.066  1.00  0.00     0.168 HD
HETATM    3  C   UNK     1      64.634   8.339   5.423  1.00  0.00     0.158 A 
HETATM    4  C   UNK     1      65.761   7.130   6.773  1.00  0.00     0.064 A 
HETATM    5  O   UNK     1      65.913   8.363   4.936  1.00  0.00    -0.296 OA
HETATM    6  C   UNK     1      66.630   7.604   5.814  1.00  0.00     0.076 A 
HETATM    7  C   UNK     1      68.074   7.487   5.559  1.00  0.00     0.079 C 
ENDROOT
BRANCH   3   8
HETATM    8  C   UNK     1      63.645   9.122   4.693  1.00  0.00     0.015 A 
HETATM    9  C   UNK     1      63.222  10.360   5.202  1.00  0.00     0.016 A 
HETATM   10  C   UNK     1      62.295  11.140   4.507  1.00  0.00     0.001 A 
HETATM   11  C   UNK     1      61.772  10.686   3.297  1.00  0.00     0.000 A 
HETATM   12  C   UNK     1      62.174   9.455   2.782  1.00  0.00     0.001 A 
HETATM   13  C   UNK     1      63.104   8.679   3.475  1.00  0.00     0.016 A 
ENDBRANCH   3   8
BRANCH   4  14
HETATM   14  C   UNK     1      66.034   6.243   7.934  1.00  0.00     0.223 C 
BRANCH  14  15
HETATM   15  O   UNK     1      66.940   6.830   8.865  1.00  0.00    -0.395 OA
HETATM   16  H   UNK     1      67.389   6.131   9.365  1.00  0.00     0.209 HD
ENDBRANCH  14  15
ENDBRANCH   4  14
TORSDOF 3
ENDMDL
MODEL 2
REMARK VINA RESULT:      -5.3      2.180      5.320
REMARK  3 active torsions:
REMARK  status: ('A' for Active; 'I' for Inactive)
REMARK    1  A    between atoms: C_3  and  C_7 
REMARK    2  A    between atoms: C_4  and  C_8 
REMARK    3  A    between atoms: C_8  and  O_10 
ROOT
HETATM    1  N   UNK     1      64.579   9.086   5.649  1.00  0.00    -0.336 N 
ATOM      2  HN  UNK     1      65.181   9.298   6.445  1.00  0.00     0.168 HD
HETATM    3  C   UNK     1      64.630   8.034   4.847  1.00  0.00     0.158 A 
HETATM    4  C   UNK     1      63.523   9.831   5.159  1.00  0.00     0.064 A 
HETATM    5  O   UNK     1      63.672   8.034   3.869  1.00  0.00    -0.296 OA
HETATM    6  C   UNK     1      62.958   9.175   4.087  1.00  0.00     0.076 A 
HETATM    7  C   UNK     1      61.814   9.418   3.194  1.00  0.00     0.079 C 
ENDROOT
BRANCH   3   8
HETATM    8  C   UNK     1      65.524   6.883   4.883  1.00  0.00     0.015 A 
HETATM    9  C   UNK     1      66.088   6.403   3.691  1.00  0.00     0.016 A 
HETATM   10  C   UNK     1      66.967   5.317   3.702  1.00  0.00     0.001 A 
HETATM   11  C   UNK     1      67.285   4.693   4.907  1.00  0.00     0.000 A 
HETATM   12  C   UNK     1      66.726   5.151   6.099  1.00  0.00     0.001 A 
HETATM   13  C   UNK     1      65.852   6.238   6.086  1.00  0.00     0.016 A 
ENDBRANCH   3   8
BRANCH   4  14
HETATM   14  C   UNK     1      63.137  11.125   5.781  1.00  0.00     0.223 C 
BRANCH  14  15
HETATM   15  O   UNK     1      64.205  11.714   6.519  1.00  0.00    -0.395 OA
HETATM   16  H   UNK     1      64.842  11.027   6.770  1.00  0.00     0.209 HD
ENDBRANCH  14  15
ENDBRANCH   4  14
TORSDOF 3
ENDMDL
MODEL 3
REMARK VINA RESULT:      -5.1      1.412      2.277
REMARK  3 active torsions:
REMARK  status: ('A' for Active; 'I' for Inactive)
REMARK    1  A    between atoms: C_3  and  C_7 
REMARK    2  A    between atoms: C_4  and  C_8 
REMARK    3  A    between atoms: C_8  and  O_10 
ROOT
HETATM    1  N   UNK     1      64.989   8.336   5.929  1.00  0.00    -0.336 N 
ATOM      2  HN  UNK     1      65.606   9.146   5.980  1.00  0.00     0.168 HD
HETATM    3  C   UNK     1      63.833   8.231   5.294  1.00  0.00     0.158 A 
HETATM    4  C   UNK     1      65.170   7.093   6.506  1.00  0.00     0.064 A 
HETATM    5  O   UNK     1      63.245   6.999   5.409  1.00  0.00    -0.296 OA
HETATM    6  C   UNK     1      64.115   6.273   6.169  1.00  0.00     0.076 A 
HETATM    7  C   UNK     1      63.757   4.868   6.422  1.00  0.00     0.079 C 
ENDROOT
BRANCH   3   8
HETATM    8  C   UNK     1      63.130   9.213   4.479  1.00  0.00     0.015 A 
HETATM    9  C   UNK     1      62.765   8.892   3.163  1.00  0.00     0.016 A 
HETATM   10  C   UNK     1      62.068   9.807   2.370  1.00  0.00     0.001 A 
HETATM   11  C   UNK     1      61.735  11.060   2.884  1.00  0.00     0.000 A 
HETATM   12  C   UNK     1      62.099  11.398   4.186  1.00  0.00     0.001 A 
HETATM   13  C   UNK     1      62.791  10.481   4.978  1.00  0.00     0.016 A 
ENDBRANCH   3   8
BRANCH   4  14
HETATM   14  C   UNK     1      66.365   6.793   7.338  1.00  0.00     0.223 C 
BRANCH  14  15
HETATM   15  O   UNK     1      66.023   6.458   8.681  1.00  0.00    -0.395 OA
HETATM   16  H   UNK     1      65.096   6.691   8.847  1.00  0.00     0.209 HD
ENDBRANCH  14  15
ENDBRANCH   4  14
TORSDOF 3
ENDMDL
MODEL 4
REMARK VINA RESULT:      -5.1      1.476      2.483
REMARK  3 active torsions:
REMARK  status: ('A' for Active; 'I' for Inactive)
REMARK    1  A    between atoms: C_3  and  C_7 
REMARK    2  A    between atoms: C_4  and  C_8 
REMARK    3  A    between atoms: C_8  and  O_10 
ROOT
HETATM    1  N   UNK     1      65.563   7.077   4.492  1.00  0.00    -0.336 N 
ATOM      2  HN  UNK     1      65.603   6.911   3.487  1.00  0.00     0.168 HD
HETATM    3  C   UNK     1      64.807   7.946   5.145  1.00  0.00     0.158 A 
HETATM    4  C   UNK     1      66.284   6.446   5.488  1.00  0.00     0.064 A 
HETATM    5  O   UNK     1      64.977   7.922   6.503  1.00  0.00    -0.296 OA
HETATM    6  C   UNK     1      65.909   6.949   6.715  1.00  0.00     0.076 A 
HETATM    7  C   UNK     1      66.262   6.667   8.116  1.00  0.00     0.079 C 
ENDROOT
BRANCH   3   8
HETATM    8  C   UNK     1      63.814   8.881   4.630  1.00  0.00     0.015 A 
HETATM    9  C   UNK     1      63.159   8.606   3.420  1.00  0.00     0.016 A 
HETATM   10  C   UNK     1      62.186   9.474   2.920  1.00  0.00     0.001 A 
HETATM   11  C   UNK     1      61.862  10.634   3.622  1.00  0.00     0.000 A 
HETATM   12  C   UNK     1      62.509  10.927   4.821  1.00  0.00     0.001 A 
HETATM   13  C   UNK     1      63.478  10.057   5.321  1.00  0.00     0.016 A 
ENDBRANCH   3   8
BRANCH   4  14
HETATM   14  C   UNK     1      67.282   5.391   5.169  1.00  0.00     0.223 C 
BRANCH  14  15
HETATM   15  O   UNK     1      67.529   5.282   3.769  1.00  0.00    -0.395 OA
HETATM   16  H   UNK     1      67.149   4.454   3.437  1.00  0.00     0.209 HD
ENDBRANCH  14  15
ENDBRANCH   4  14
TORSDOF 3
ENDMDL
MODEL 5
REMARK VINA RESULT:      -5.0      1.960      5.564
REMARK  3 active torsions:
REMARK  status: ('A' for Active; 'I' for Inactive)
REMARK    1  A    between atoms: C_3  and  C_7 
REMARK    2  A    between atoms: C_4  and  C_8 
REMARK    3  A    between atoms: C_8  and  O_10 
ROOT
HETATM    1  N   UNK     1      64.012   9.699   5.464  1.00  0.00    -0.336 N 
ATOM      2  HN  UNK     1      64.302  10.234   6.283  1.00  0.00     0.168 HD
HETATM    3  C   UNK     1      64.515   8.559   5.016  1.00  0.00     0.158 A 
HETATM    4  C   UNK     1      63.004   9.998   4.567  1.00  0.00     0.064 A 
HETATM    5  O   UNK     1      63.897   8.085   3.889  1.00  0.00    -0.296 OA
HETATM    6  C   UNK     1      62.922   8.999   3.620  1.00  0.00     0.076 A 
HETATM    7  C   UNK     1      62.054   8.719   2.466  1.00  0.00     0.079 C 
ENDROOT
BRANCH   3   8
HETATM    8  C   UNK     1      65.588   7.740   5.563  1.00  0.00     0.015 A 
HETATM    9  C   UNK     1      65.343   6.928   6.682  1.00  0.00     0.016 A 
HETATM   10  C   UNK     1      66.348   6.114   7.209  1.00  0.00     0.001 A 
HETATM   11  C   UNK     1      67.615   6.110   6.628  1.00  0.00     0.000 A 
HETATM   12  C   UNK     1      67.878   6.917   5.523  1.00  0.00     0.001 A 
HETATM   13  C   UNK     1      66.872   7.726   4.995  1.00  0.00     0.016 A 
ENDBRANCH   3   8
BRANCH   4  14
HETATM   14  C   UNK     1      62.187  11.232   4.706  1.00  0.00     0.223 C 
BRANCH  14  15
HETATM   15  O   UNK     1      61.948  11.869   3.453  1.00  0.00    -0.395 OA
HETATM   16  H   UNK     1      61.003  12.066   3.365  1.00  0.00     0.209 HD
ENDBRANCH  14  15
ENDBRANCH   4  14
TORSDOF 3
ENDMDL
MODEL 6
REMARK VINA RESULT:      -4.9      2.193      5.490
REMARK  3 active torsions:
REMARK  status: ('A' for Active; 'I' for Inactive)
REMARK    1  A    between atoms: C_3  and  C_7 
REMARK    2  A    between atoms: C_4  and  C_8 
REMARK    3  A    between atoms: C_8  and  O_10 
ROOT
HETATM    1  N   UNK     1      63.444   8.410   3.892  1.00  0.00    -0.336 N 
ATOM      2  HN  UNK     1      63.278   7.714   3.166  1.00  0.00     0.168 HD
HETATM    3  C   UNK     1      64.431   8.449   4.773  1.00  0.00     0.158 A 
HETATM    4  C   UNK     1      62.690   9.532   4.182  1.00  0.00     0.064 A 
HETATM    5  O   UNK     1      64.380   9.526   5.617  1.00  0.00    -0.296 OA
HETATM    6  C   UNK     1      63.276  10.223   5.221  1.00  0.00     0.076 A 
HETATM    7  C   UNK     1      62.995  11.477   5.936  1.00  0.00     0.079 C 
ENDROOT
BRANCH   3   8
HETATM    8  C   UNK     1      65.559   7.542   4.943  1.00  0.00     0.015 A 
HETATM    9  C   UNK     1      66.324   7.596   6.118  1.00  0.00     0.016 A 
HETATM   10  C   UNK     1      67.394   6.719   6.314  1.00  0.00     0.001 A 
HETATM   11  C   UNK     1      67.717   5.784   5.332  1.00  0.00     0.000 A 
HETATM   12  C   UNK     1      66.973   5.725   4.155  1.00  0.00     0.001 A 
HETATM   13  C   UNK     1      65.902   6.597   3.962  1.00  0.00     0.016 A 
ENDBRANCH   3   8
BRANCH   4  14
HETATM   14  C   UNK     1      61.456   9.853   3.417  1.00  0.00     0.223 C 
BRANCH  14  15
HETATM   15  O   UNK     1      61.408  11.219   3.011  1.00  0.00    -0.395 OA
HETATM   16  H   UNK     1      60.727  11.331   2.330  1.00  0.00     0.209 HD
ENDBRANCH  14  15
ENDBRANCH   4  14
TORSDOF 3
ENDMDL
MODEL 7
REMARK VINA RESULT:      -4.5      2.815      4.356
REMARK  3 active torsions:
REMARK  status: ('A' for Active; 'I' for Inactive)
REMARK    1  A    between atoms: C_3  and  C_7 
REMARK    2  A    between atoms: C_4  and  C_8 
REMARK    3  A    between atoms: C_8  and  O_10 
ROOT
HETATM    1  N   UNK     1      62.981   7.939   3.641  1.00  0.00    -0.336 N 
ATOM      2  HN  UNK     1      63.292   7.040   3.273  1.00  0.00     0.168 HD
HETATM    3  C   UNK     1      61.849   8.575   3.386  1.00  0.00     0.158 A 
HETATM    4  C   UNK     1      63.646   8.773   4.520  1.00  0.00     0.064 A 
HETATM    5  O   UNK     1      61.721   9.768   4.047  1.00  0.00    -0.296 OA
HETATM    6  C   UNK     1      62.864   9.878   4.783  1.00  0.00     0.076 A 
HETATM    7  C   UNK     1      62.984  11.065   5.643  1.00  0.00     0.079 C 
ENDROOT
BRANCH   3   8
HETATM    8  C   UNK     1      60.728   8.174   2.546  1.00  0.00     0.015 A 
HETATM    9  C   UNK     1      59.601   7.575   3.128  1.00  0.00     0.016 A 
HETATM   10  C   UNK     1      58.503   7.205   2.347  1.00  0.00     0.001 A 
HETATM   11  C   UNK     1      58.525   7.422   0.970  1.00  0.00     0.000 A 
HETATM   12  C   UNK     1      59.641   8.008   0.374  1.00  0.00     0.001 A 
HETATM   13  C   UNK     1      60.734   8.381   1.157  1.00  0.00     0.016 A 
ENDBRANCH   3   8
BRANCH   4  14
HETATM   14  C   UNK     1      64.992   8.426   5.047  1.00  0.00     0.223 C 
BRANCH  14  15
HETATM   15  O   UNK     1      64.950   8.007   6.409  1.00  0.00    -0.395 OA
HETATM   16  H   UNK     1      64.074   7.642   6.609  1.00  0.00     0.209 HD
ENDBRANCH  14  15
ENDBRANCH   4  14
TORSDOF 3
ENDMDL
MODEL 8
REMARK VINA RESULT:      -4.4      9.540     11.376
REMARK  3 active torsions:
REMARK  status: ('A' for Active; 'I' for Inactive)
REMARK    1  A    between atoms: C_3  and  C_7 
REMARK    2  A    between atoms: C_4  and  C_8 
REMARK    3  A    between atoms: C_8  and  O_10 
ROOT
HETATM    1  N   UNK     1      58.429   3.933  10.658  1.00  0.00    -0.336 N 
ATOM      2  HN  UNK     1      58.157   4.649  11.332  1.00  0.00     0.168 HD
HETATM    3  C   UNK     1      58.488   2.624  10.840  1.00  0.00     0.158 A 
HETATM    4  C   UNK     1      58.819   4.108   9.344  1.00  0.00     0.064 A 
HETATM    5  O   UNK     1      58.884   1.925   9.730  1.00  0.00    -0.296 OA
HETATM    6  C   UNK     1      59.075   2.879   8.774  1.00  0.00     0.076 A 
HETATM    7  C   UNK     1      59.468   2.405   7.438  1.00  0.00     0.079 C 
ENDROOT
BRANCH   3   8
HETATM    8  C   UNK     1      58.165   1.836  12.023  1.00  0.00     0.015 A 
HETATM    9  C   UNK     1      57.041   0.996  12.014  1.00  0.00     0.016 A 
HETATM   10  C   UNK     1      56.725   0.212  13.126  1.00  0.00     0.001 A 
HETATM   11  C   UNK     1      57.526   0.266  14.265  1.00  0.00     0.000 A 
HETATM   12  C   UNK     1      58.641   1.103  14.294  1.00  0.00     0.001 A 
HETATM   13  C   UNK     1      58.958   1.882  13.181  1.00  0.00     0.016 A 
ENDBRANCH   3   8
BRANCH   4  14
HETATM   14  C   UNK     1      58.906   5.463   8.737  1.00  0.00     0.223 C 
BRANCH  14  15
HETATM   15  O   UNK     1      58.624   6.498   9.676  1.00  0.00    -0.395 OA
HETATM   16  H   UNK     1      57.664   6.588   9.779  1.00  0.00     0.209 HD
ENDBRANCH  14  15
ENDBRANCH   4  14
TORSDOF 3
ENDMDL
MODEL 9
REMARK VINA RESULT:      -4.4      2.576      5.673
REMARK  3 active torsions:
REMARK  status: ('A' for Active; 'I' for Inactive)
REMARK    1  A    between atoms: C_3  and  C_7 
REMARK    2  A    between atoms: C_4  and  C_8 
REMARK    3  A    between atoms: C_8  and  O_10 
ROOT
HETATM    1  N   UNK     1      61.973   7.343   4.279  1.00  0.00    -0.336 N 
ATOM      2  HN  UNK     1      61.705   6.448   4.688  1.00  0.00     0.168 HD
HETATM    3  C   UNK     1      63.072   8.046   4.505  1.00  0.00     0.158 A 
HETATM    4  C   UNK     1      61.272   8.101   3.361  1.00  0.00     0.064 A 
HETATM    5  O   UNK     1      63.143   9.211   3.789  1.00  0.00    -0.296 OA
HETATM    6  C   UNK     1      61.999   9.230   3.047  1.00  0.00     0.076 A 
HETATM    7  C   UNK     1      61.824  10.368   2.131  1.00  0.00     0.079 C 
ENDROOT
BRANCH   3   8
HETATM    8  C   UNK     1      64.208   7.740   5.365  1.00  0.00     0.015 A 
HETATM    9  C   UNK     1      64.061   6.816   6.411  1.00  0.00     0.016 A 
HETATM   10  C   UNK     1      65.141   6.487   7.233  1.00  0.00     0.001 A 
HETATM   11  C   UNK     1      66.382   7.088   7.023  1.00  0.00     0.000 A 
HETATM   12  C   UNK     1      66.543   8.015   5.995  1.00  0.00     0.001 A 
HETATM   13  C   UNK     1      65.463   8.338   5.172  1.00  0.00     0.016 A 
ENDBRANCH   3   8
BRANCH   4  14
HETATM   14  C   UNK     1      59.946   7.664   2.849  1.00  0.00     0.223 C 
BRANCH  14  15
HETATM   15  O   UNK     1      58.866   8.208   3.603  1.00  0.00    -0.395 OA
HETATM   16  H   UNK     1      58.998   9.162   3.716  1.00  0.00     0.209 HD
ENDBRANCH  14  15
ENDBRANCH   4  14
TORSDOF 3
ENDMDL
