MODEL 1
REMARK VINA RESULT:      -6.1      0.000      0.000
REMARK  1 active torsions:
REMARK  status: ('A' for Active; 'I' for Inactive)
REMARK    1  A    between atoms: C_2  and  C_4 
ROOT
HETATM    1  C   UNL     1      62.900   8.890   3.217  1.00  0.00     0.093 A 
HETATM    2  C   UNL     1      62.161   9.806   2.479  1.00  0.00     0.074 A 
HETATM    3  O   UNL     1      63.453   9.117   4.451  1.00  0.00    -0.339 OA
HETATM    4  C   UNL     1      63.161   7.614   2.735  1.00  0.00    -0.021 A 
HETATM    5  C   UNL     1      64.034   7.855   4.877  1.00  0.00     0.064 C 
HETATM    6  C   UNL     1      63.996   6.860   3.698  1.00  0.00     0.079 C 
HETATM    7  C   UNL     1      61.679   9.392   1.225  1.00  0.00     0.021 A 
HETATM    8  C   UNL     1      62.693   7.201   1.498  1.00  0.00     0.010 A 
HETATM    9  C   UNL     1      61.944   8.101   0.741  1.00  0.00     0.002 A 
HETATM   10  C   UNL     1      63.213   7.344   6.067  1.00  0.00     0.046 C 
HETATM   11  C   UNL     1      65.471   8.140   5.317  1.00  0.00     0.046 C 
ENDROOT
BRANCH   2  12
HETATM   12  C   UNL     1      61.890  11.170   2.999  1.00  0.00     0.212 C 
HETATM   13  O   UNL     1      61.679  11.508   4.148  1.00  0.00    -0.644 OA
HETATM   14  O   UNL     1      61.893  12.093   2.015  1.00  0.00    -0.644 OA
ENDBRANCH   2  12
TORSDOF 1
ENDMDL
MODEL 2
REMARK VINA RESULT:      -6.0      1.558      2.059
REMARK  1 active torsions:
REMARK  status: ('A' for Active; 'I' for Inactive)
REMARK    1  A    between atoms: C_2  and  C_4 
ROOT
HETATM    1  C   UNL     1      63.941   8.833   4.713  1.00  0.00     0.093 A 
HETATM    2  C   UNL     1      62.948   9.774   4.470  1.00  0.00     0.074 A 
HETATM    3  O   UNL     1      64.885   8.904   5.704  1.00  0.00    -0.339 OA
HETATM    4  C   UNL     1      64.069   7.696   3.926  1.00  0.00    -0.021 A 
HETATM    5  C   UNL     1      65.634   7.660   5.646  1.00  0.00     0.064 C 
HETATM    6  C   UNL     1      65.224   6.885   4.375  1.00  0.00     0.079 C 
HETATM    7  C   UNL     1      62.072   9.532   3.399  1.00  0.00     0.021 A 
HETATM    8  C   UNL     1      63.211   7.453   2.865  1.00  0.00     0.010 A 
HETATM    9  C   UNL     1      62.203   8.380   2.605  1.00  0.00     0.002 A 
HETATM   10  C   UNL     1      65.312   6.864   6.915  1.00  0.00     0.046 C 
HETATM   11  C   UNL     1      67.120   8.024   5.618  1.00  0.00     0.046 C 
ENDROOT
BRANCH   2  12
HETATM   12  C   UNL     1      62.820  10.989   5.312  1.00  0.00     0.212 C 
HETATM   13  O   UNL     1      63.299  11.196   6.411  1.00  0.00    -0.644 OA
HETATM   14  O   UNL     1      62.064  11.936   4.719  1.00  0.00    -0.644 OA
ENDBRANCH   2  12
TORSDOF 1
ENDMDL
MODEL 3
REMARK VINA RESULT:      -5.7      2.103      3.735
REMARK  1 active torsions:
REMARK  status: ('A' for Active; 'I' for Inactive)
REMARK    1  A    between atoms: C_2  and  C_4 
ROOT
HETATM    1  C   UNL     1      62.486   8.865   3.088  1.00  0.00     0.093 A 
HETATM    2  C   UNL     1      62.743   9.615   4.229  1.00  0.00     0.074 A 
HETATM    3  O   UNL     1      62.736   7.526   2.938  1.00  0.00    -0.339 OA
HETATM    4  C   UNL     1      61.938   9.443   1.951  1.00  0.00    -0.021 A 
HETATM    5  C   UNL     1      62.210   7.155   1.635  1.00  0.00     0.064 C 
HETATM    6  C   UNL     1      61.803   8.434   0.874  1.00  0.00     0.079 C 
HETATM    7  C   UNL     1      62.424  10.983   4.193  1.00  0.00     0.021 A 
HETATM    8  C   UNL     1      61.626  10.792   1.906  1.00  0.00     0.010 A 
HETATM    9  C   UNL     1      61.870  11.565   3.040  1.00  0.00     0.002 A 
HETATM   10  C   UNL     1      61.008   6.233   1.866  1.00  0.00     0.046 C 
HETATM   11  C   UNL     1      63.316   6.398   0.897  1.00  0.00     0.046 C 
ENDROOT
BRANCH   2  12
HETATM   12  C   UNL     1      63.332   8.992   5.440  1.00  0.00     0.212 C 
HETATM   13  O   UNL     1      62.790   8.267   6.252  1.00  0.00    -0.644 OA
HETATM   14  O   UNL     1      64.633   9.319   5.593  1.00  0.00    -0.644 OA
ENDBRANCH   2  12
TORSDOF 1
ENDMDL
MODEL 4
REMARK VINA RESULT:      -5.3      1.737      3.712
REMARK  1 active torsions:
REMARK  status: ('A' for Active; 'I' for Inactive)
REMARK    1  A    between atoms: C_2  and  C_4 
ROOT
HETATM    1  C   UNL     1      62.452   8.692   3.794  1.00  0.00     0.093 A 
HETATM    2  C   UNL     1      63.207   9.485   4.649  1.00  0.00     0.074 A 
HETATM    3  O   UNL     1      61.222   9.014   3.282  1.00  0.00    -0.339 OA
HETATM    4  C   UNL     1      62.900   7.445   3.378  1.00  0.00    -0.021 A 
HETATM    5  C   UNL     1      60.870   7.946   2.361  1.00  0.00     0.064 C 
HETATM    6  C   UNL     1      61.892   6.799   2.507  1.00  0.00     0.079 C 
HETATM    7  C   UNL     1      64.447   8.981   5.077  1.00  0.00     0.021 A 
HETATM    8  C   UNL     1      64.119   6.940   3.800  1.00  0.00     0.010 A 
HETATM    9  C   UNL     1      64.898   7.720   4.655  1.00  0.00     0.002 A 
HETATM   10  C   UNL     1      60.882   8.531   0.945  1.00  0.00     0.046 C 
HETATM   11  C   UNL     1      59.458   7.480   2.722  1.00  0.00     0.046 C 
ENDROOT
BRANCH   2  12
HETATM   12  C   UNL     1      62.719  10.815   5.093  1.00  0.00     0.212 C 
HETATM   13  O   UNL     1      62.045  11.614   4.471  1.00  0.00    -0.644 OA
HETATM   14  O   UNL     1      63.115  11.103   6.350  1.00  0.00    -0.644 OA
ENDBRANCH   2  12
TORSDOF 1
ENDMDL
MODEL 5
REMARK VINA RESULT:      -5.2      1.860      3.040
REMARK  1 active torsions:
REMARK  status: ('A' for Active; 'I' for Inactive)
REMARK    1  A    between atoms: C_2  and  C_4 
ROOT
HETATM    1  C   UNL     1      62.780   8.654   3.507  1.00  0.00     0.093 A 
HETATM    2  C   UNL     1      62.071   9.519   2.683  1.00  0.00     0.074 A 
HETATM    3  O   UNL     1      63.098   7.353   3.218  1.00  0.00    -0.339 OA
HETATM    4  C   UNL     1      63.235   9.056   4.756  1.00  0.00    -0.021 A 
HETATM    5  C   UNL     1      63.930   6.882   4.312  1.00  0.00     0.064 C 
HETATM    6  C   UNL     1      63.924   7.937   5.439  1.00  0.00     0.079 C 
HETATM    7  C   UNL     1      61.834  10.820   3.156  1.00  0.00     0.021 A 
HETATM    8  C   UNL     1      63.001  10.336   5.232  1.00  0.00     0.010 A 
HETATM    9  C   UNL     1      62.296  11.224   4.420  1.00  0.00     0.002 A 
HETATM   10  C   UNL     1      65.342   6.660   3.760  1.00  0.00     0.046 C 
HETATM   11  C   UNL     1      63.341   5.554   4.792  1.00  0.00     0.046 C 
ENDROOT
BRANCH   2  12
HETATM   12  C   UNL     1      61.584   9.081   1.351  1.00  0.00     0.212 C 
HETATM   13  O   UNL     1      60.474   8.685   1.049  1.00  0.00    -0.644 OA
HETATM   14  O   UNL     1      62.548   9.160   0.410  1.00  0.00    -0.644 OA
ENDBRANCH   2  12
TORSDOF 1
ENDMDL
MODEL 6
REMARK VINA RESULT:      -5.1      2.004      3.294
REMARK  1 active torsions:
REMARK  status: ('A' for Active; 'I' for Inactive)
REMARK    1  A    between atoms: C_2  and  C_4 
ROOT
HETATM    1  C   UNL     1      62.577   8.656   3.219  1.00  0.00     0.093 A 
HETATM    2  C   UNL     1      62.168   8.579   1.893  1.00  0.00     0.074 A 
HETATM    3  O   UNL     1      63.049   7.613   3.972  1.00  0.00    -0.339 OA
HETATM    4  C   UNL     1      62.528   9.852   3.922  1.00  0.00    -0.021 A 
HETATM    5  C   UNL     1      63.453   8.180   5.248  1.00  0.00     0.064 C 
HETATM    6  C   UNL     1      62.983   9.649   5.317  1.00  0.00     0.079 C 
HETATM    7  C   UNL     1      61.705   9.758   1.286  1.00  0.00     0.021 A 
HETATM    8  C   UNL     1      62.068  11.018   3.331  1.00  0.00     0.010 A 
HETATM    9  C   UNL     1      61.657  10.967   2.000  1.00  0.00     0.002 A 
HETATM   10  C   UNL     1      64.979   8.075   5.340  1.00  0.00     0.046 C 
HETATM   11  C   UNL     1      62.803   7.338   6.347  1.00  0.00     0.046 C 
ENDROOT
BRANCH   2  12
HETATM   12  C   UNL     1      62.219   7.296   1.148  1.00  0.00     0.212 C 
HETATM   13  O   UNL     1      63.144   6.836   0.505  1.00  0.00    -0.644 OA
HETATM   14  O   UNL     1      61.059   6.612   1.241  1.00  0.00    -0.644 OA
ENDBRANCH   2  12
TORSDOF 1
ENDMDL
MODEL 7
REMARK VINA RESULT:      -5.0      1.644      4.547
REMARK  1 active torsions:
REMARK  status: ('A' for Active; 'I' for Inactive)
REMARK    1  A    between atoms: C_2  and  C_4 
ROOT
HETATM    1  C   UNL     1      63.076   8.127   4.449  1.00  0.00     0.093 A 
HETATM    2  C   UNL     1      64.018   7.582   5.312  1.00  0.00     0.074 A 
HETATM    3  O   UNL     1      63.309   9.123   3.537  1.00  0.00    -0.339 OA
HETATM    4  C   UNL     1      61.758   7.692   4.448  1.00  0.00    -0.021 A 
HETATM    5  C   UNL     1      62.075   9.290   2.789  1.00  0.00     0.064 C 
HETATM    6  C   UNL     1      60.962   8.460   3.463  1.00  0.00     0.079 C 
HETATM    7  C   UNL     1      63.589   6.568   6.185  1.00  0.00     0.021 A 
HETATM    8  C   UNL     1      61.326   6.696   5.309  1.00  0.00     0.010 A 
HETATM    9  C   UNL     1      62.254   6.129   6.182  1.00  0.00     0.002 A 
HETATM   10  C   UNL     1      62.334   8.818   1.354  1.00  0.00     0.046 C 
HETATM   11  C   UNL     1      61.736  10.782   2.795  1.00  0.00     0.046 C 
ENDROOT
BRANCH   2  12
HETATM   12  C   UNL     1      65.425   8.055   5.311  1.00  0.00     0.212 C 
HETATM   13  O   UNL     1      66.378   7.575   4.727  1.00  0.00    -0.644 OA
HETATM   14  O   UNL     1      65.588   9.155   6.075  1.00  0.00    -0.644 OA
ENDBRANCH   2  12
TORSDOF 1
ENDMDL
MODEL 8
REMARK VINA RESULT:      -4.7      3.444      6.003
REMARK  1 active torsions:
REMARK  status: ('A' for Active; 'I' for Inactive)
REMARK    1  A    between atoms: C_2  and  C_4 
ROOT
HETATM    1  C   UNL     1      65.497   6.614   5.901  1.00  0.00     0.093 A 
HETATM    2  C   UNL     1      66.525   6.038   6.637  1.00  0.00     0.074 A 
HETATM    3  O   UNL     1      64.463   7.353   6.413  1.00  0.00    -0.339 OA
HETATM    4  C   UNL     1      65.427   6.470   4.522  1.00  0.00    -0.021 A 
HETATM    5  C   UNL     1      63.702   7.837   5.274  1.00  0.00     0.064 C 
HETATM    6  C   UNL     1      64.220   7.147   3.994  1.00  0.00     0.079 C 
HETATM    7  C   UNL     1      67.497   5.306   5.934  1.00  0.00     0.021 A 
HETATM    8  C   UNL     1      66.379   5.746   3.822  1.00  0.00     0.010 A 
HETATM    9  C   UNL     1      67.424   5.163   4.539  1.00  0.00     0.002 A 
HETATM   10  C   UNL     1      63.885   9.357   5.204  1.00  0.00     0.046 C 
HETATM   11  C   UNL     1      62.232   7.498   5.531  1.00  0.00     0.046 C 
ENDROOT
BRANCH   2  12
HETATM   12  C   UNL     1      66.592   6.192   8.112  1.00  0.00     0.212 C 
HETATM   13  O   UNL     1      67.037   7.127   8.751  1.00  0.00    -0.644 OA
HETATM   14  O   UNL     1      66.078   5.123   8.754  1.00  0.00    -0.644 OA
ENDBRANCH   2  12
TORSDOF 1
ENDMDL
MODEL 9
REMARK VINA RESULT:      -4.6      1.903      4.305
REMARK  1 active torsions:
REMARK  status: ('A' for Active; 'I' for Inactive)
REMARK    1  A    between atoms: C_2  and  C_4 
ROOT
HETATM    1  C   UNL     1      63.616   7.350   3.371  1.00  0.00     0.093 A 
HETATM    2  C   UNL     1      64.605   7.238   4.341  1.00  0.00     0.074 A 
HETATM    3  O   UNL     1      62.601   8.270   3.366  1.00  0.00    -0.339 OA
HETATM    4  C   UNL     1      63.571   6.490   2.282  1.00  0.00    -0.021 A 
HETATM    5  C   UNL     1      61.884   8.082   2.116  1.00  0.00     0.064 C 
HETATM    6  C   UNL     1      62.403   6.803   1.427  1.00  0.00     0.079 C 
HETATM    7  C   UNL     1      65.563   6.223   4.178  1.00  0.00     0.021 A 
HETATM    8  C   UNL     1      64.509   5.483   2.118  1.00  0.00     0.010 A 
HETATM    9  C   UNL     1      65.514   5.354   3.076  1.00  0.00     0.002 A 
HETATM   10  C   UNL     1      62.128   9.323   1.250  1.00  0.00     0.046 C 
HETATM   11  C   UNL     1      60.397   7.966   2.457  1.00  0.00     0.046 C 
ENDROOT
BRANCH   2  12
HETATM   12  C   UNL     1      64.645   8.158   5.505  1.00  0.00     0.212 C 
HETATM   13  O   UNL     1      65.052   9.304   5.543  1.00  0.00    -0.644 OA
HETATM   14  O   UNL     1      64.155   7.581   6.621  1.00  0.00    -0.644 OA
ENDBRANCH   2  12
TORSDOF 1
ENDMDL
