MODEL 1
REMARK VINA RESULT:      -6.1      0.000      0.000
REMARK  2 active torsions:
REMARK  status: ('A' for Active; 'I' for Inactive)
REMARK    1  A    between atoms: C_5  and  C_8 
REMARK    2  A    between atoms: C_8  and  O_9 
ROOT
HETATM    1  C   UNL     1      63.724   9.255   4.966  1.00  0.00     0.084 A 
HETATM    2  O   UNL     1      64.657   8.914   5.909  1.00  0.00    -0.340 OA
HETATM    3  C   UNL     1      63.621   8.341   3.929  1.00  0.00    -0.021 A 
HETATM    4  C   UNL     1      65.150   7.602   5.517  1.00  0.00     0.064 C 
HETATM    5  C   UNL     1      62.953  10.404   5.022  1.00  0.00    -0.001 A 
HETATM    6  C   UNL     1      64.591   7.240   4.123  1.00  0.00     0.079 C 
HETATM    7  C   UNL     1      62.723   8.539   2.893  1.00  0.00     0.010 A 
HETATM    8  C   UNL     1      62.036  10.608   3.976  1.00  0.00     0.012 A 
HETATM    9  C   UNL     1      64.687   6.603   6.582  1.00  0.00     0.046 C 
HETATM   10  C   UNL     1      66.677   7.693   5.506  1.00  0.00     0.046 C 
HETATM   11  C   UNL     1      61.922   9.683   2.925  1.00  0.00     0.001 A 
ENDROOT
BRANCH   5  12
HETATM   12  C   UNL     1      63.068  11.383   6.151  1.00  0.00     0.205 C 
BRANCH  12  13
HETATM   13  O   UNL     1      64.435  11.604   6.472  1.00  0.00    -0.396 OA
HETATM   14  H   UNL     1      64.892  11.978   5.703  1.00  0.00     0.209 HD
ENDBRANCH  12  13
ENDBRANCH   5  12
TORSDOF 2
ENDMDL
MODEL 2
REMARK VINA RESULT:      -5.5      1.479      1.929
REMARK  2 active torsions:
REMARK  status: ('A' for Active; 'I' for Inactive)
REMARK    1  A    between atoms: C_5  and  C_8 
REMARK    2  A    between atoms: C_8  and  O_9 
ROOT
HETATM    1  C   UNL     1      62.758   9.407   3.877  1.00  0.00     0.084 A 
HETATM    2  O   UNL     1      63.302   8.441   4.679  1.00  0.00    -0.340 OA
HETATM    3  C   UNL     1      62.499   8.977   2.584  1.00  0.00    -0.021 A 
HETATM    4  C   UNL     1      63.315   7.226   3.878  1.00  0.00     0.064 C 
HETATM    5  C   UNL     1      62.491  10.700   4.295  1.00  0.00    -0.001 A 
HETATM    6  C   UNL     1      62.920   7.567   2.424  1.00  0.00     0.079 C 
HETATM    7  C   UNL     1      61.947   9.834   1.647  1.00  0.00     0.010 A 
HETATM    8  C   UNL     1      61.926  11.574   3.349  1.00  0.00     0.012 A 
HETATM    9  C   UNL     1      62.320   6.249   4.514  1.00  0.00     0.046 C 
HETATM   10  C   UNL     1      64.735   6.661   3.958  1.00  0.00     0.046 C 
HETATM   11  C   UNL     1      61.656  11.142   2.039  1.00  0.00     0.001 A 
ENDROOT
BRANCH   5  12
HETATM   12  C   UNL     1      62.769  11.154   5.696  1.00  0.00     0.205 C 
BRANCH  12  13
HETATM   13  O   UNL     1      64.160  11.052   5.979  1.00  0.00    -0.396 OA
HETATM   14  H   UNL     1      64.547  10.344   5.443  1.00  0.00     0.209 HD
ENDBRANCH  12  13
ENDBRANCH   5  12
TORSDOF 2
ENDMDL
MODEL 3
REMARK VINA RESULT:      -5.2      2.037      2.617
REMARK  2 active torsions:
REMARK  status: ('A' for Active; 'I' for Inactive)
REMARK    1  A    between atoms: C_5  and  C_8 
REMARK    2  A    between atoms: C_8  and  O_9 
ROOT
HETATM    1  C   UNL     1      62.834   8.877   3.150  1.00  0.00     0.084 A 
HETATM    2  O   UNL     1      63.316   9.160   4.399  1.00  0.00    -0.340 OA
HETATM    3  C   UNL     1      63.130   7.594   2.716  1.00  0.00    -0.021 A 
HETATM    4  C   UNL     1      63.901   7.920   4.886  1.00  0.00     0.064 C 
HETATM    5  C   UNL     1      62.123   9.776   2.372  1.00  0.00    -0.001 A 
HETATM    6  C   UNL     1      63.927   6.882   3.740  1.00  0.00     0.079 C 
HETATM    7  C   UNL     1      62.714   7.149   1.472  1.00  0.00     0.010 A 
HETATM    8  C   UNL     1      61.693   9.329   1.110  1.00  0.00     0.012 A 
HETATM    9  C   UNL     1      63.039   7.437   6.057  1.00  0.00     0.046 C 
HETATM   10  C   UNL     1      65.311   8.259   5.371  1.00  0.00     0.046 C 
HETATM   11  C   UNL     1      61.985   8.028   0.668  1.00  0.00     0.001 A 
ENDROOT
BRANCH   5  12
HETATM   12  C   UNL     1      61.803  11.159   2.852  1.00  0.00     0.205 C 
BRANCH  12  13
HETATM   13  O   UNL     1      62.083  12.110   1.832  1.00  0.00    -0.396 OA
HETATM   14  H   UNL     1      61.648  11.839   1.009  1.00  0.00     0.209 HD
ENDBRANCH  12  13
ENDBRANCH   5  12
TORSDOF 2
ENDMDL
MODEL 4
REMARK VINA RESULT:      -5.1      1.586      3.824
REMARK  2 active torsions:
REMARK  status: ('A' for Active; 'I' for Inactive)
REMARK    1  A    between atoms: C_5  and  C_8 
REMARK    2  A    between atoms: C_8  and  O_9 
ROOT
HETATM    1  C   UNL     1      63.173   8.724   3.868  1.00  0.00     0.084 A 
HETATM    2  O   UNL     1      62.047   9.204   3.256  1.00  0.00    -0.340 OA
HETATM    3  C   UNL     1      63.654   7.550   3.310  1.00  0.00    -0.021 A 
HETATM    4  C   UNL     1      61.810   8.324   2.122  1.00  0.00     0.064 C 
HETATM    5  C   UNL     1      63.786   9.335   4.949  1.00  0.00    -0.001 A 
HETATM    6  C   UNL     1      62.775   7.119   2.199  1.00  0.00     0.079 C 
HETATM    7  C   UNL     1      64.787   6.934   3.813  1.00  0.00     0.010 A 
HETATM    8  C   UNL     1      64.941   8.718   5.461  1.00  0.00     0.012 A 
HETATM    9  C   UNL     1      62.041   9.146   0.850  1.00  0.00     0.046 C 
HETATM   10  C   UNL     1      60.348   7.880   2.207  1.00  0.00     0.046 C 
HETATM   11  C   UNL     1      65.436   7.531   4.896  1.00  0.00     0.001 A 
ENDROOT
BRANCH   5  12
HETATM   12  C   UNL     1      63.263  10.609   5.542  1.00  0.00     0.205 C 
BRANCH  12  13
HETATM   13  O   UNL     1      64.309  11.307   6.207  1.00  0.00    -0.396 OA
HETATM   14  H   UNL     1      64.554  12.090   5.691  1.00  0.00     0.209 HD
ENDBRANCH  12  13
ENDBRANCH   5  12
TORSDOF 2
ENDMDL
MODEL 5
REMARK VINA RESULT:      -4.7      1.842      3.959
REMARK  2 active torsions:
REMARK  status: ('A' for Active; 'I' for Inactive)
REMARK    1  A    between atoms: C_5  and  C_8 
REMARK    2  A    between atoms: C_8  and  O_9 
ROOT
HETATM    1  C   UNL     1      62.688   8.730   3.321  1.00  0.00     0.084 A 
HETATM    2  O   UNL     1      62.749   7.574   2.590  1.00  0.00    -0.340 OA
HETATM    3  C   UNL     1      62.012   9.758   2.682  1.00  0.00    -0.021 A 
HETATM    4  C   UNL     1      61.954   7.821   1.397  1.00  0.00     0.064 C 
HETATM    5  C   UNL     1      63.250   8.882   4.577  1.00  0.00    -0.001 A 
HETATM    6  C   UNL     1      61.558   9.314   1.345  1.00  0.00     0.079 C 
HETATM    7  C   UNL     1      61.861  10.995   3.287  1.00  0.00     0.010 A 
HETATM    8  C   UNL     1      63.096  10.134   5.199  1.00  0.00     0.012 A 
HETATM    9  C   UNL     1      60.719   6.917   1.476  1.00  0.00     0.046 C 
HETATM   10  C   UNL     1      62.822   7.426   0.201  1.00  0.00     0.046 C 
HETATM   11  C   UNL     1      62.407  11.177   4.559  1.00  0.00     0.001 A 
ENDROOT
BRANCH   5  12
HETATM   12  C   UNL     1      63.975   7.763   5.263  1.00  0.00     0.205 C 
BRANCH  12  13
HETATM   13  O   UNL     1      64.938   8.284   6.170  1.00  0.00    -0.396 OA
HETATM   14  H   UNL     1      65.101   7.638   6.874  1.00  0.00     0.209 HD
ENDBRANCH  12  13
ENDBRANCH   5  12
TORSDOF 2
ENDMDL
MODEL 6
REMARK VINA RESULT:      -4.7      2.250      3.448
REMARK  2 active torsions:
REMARK  status: ('A' for Active; 'I' for Inactive)
REMARK    1  A    between atoms: C_5  and  C_8 
REMARK    2  A    between atoms: C_8  and  O_9 
ROOT
HETATM    1  C   UNL     1      62.662   8.862   3.526  1.00  0.00     0.084 A 
HETATM    2  O   UNL     1      62.888   7.573   3.126  1.00  0.00    -0.340 OA
HETATM    3  C   UNL     1      63.114   9.135   4.808  1.00  0.00    -0.021 A 
HETATM    4  C   UNL     1      63.651   6.956   4.200  1.00  0.00     0.064 C 
HETATM    5  C   UNL     1      62.034   9.817   2.743  1.00  0.00    -0.001 A 
HETATM    6  C   UNL     1      63.705   7.918   5.408  1.00  0.00     0.079 C 
HETATM    7  C   UNL     1      62.961  10.395   5.363  1.00  0.00     0.010 A 
HETATM    8  C   UNL     1      61.881  11.099   3.300  1.00  0.00     0.012 A 
HETATM    9  C   UNL     1      65.053   6.664   3.655  1.00  0.00     0.046 C 
HETATM   10  C   UNL     1      62.937   5.649   4.551  1.00  0.00     0.046 C 
HETATM   11  C   UNL     1      62.343  11.383   4.596  1.00  0.00     0.001 A 
ENDROOT
BRANCH   5  12
HETATM   12  C   UNL     1      61.554   9.514   1.356  1.00  0.00     0.205 C 
BRANCH  12  13
HETATM   13  O   UNL     1      60.398   8.687   1.406  1.00  0.00    -0.396 OA
HETATM   14  H   UNL     1      60.139   8.548   2.330  1.00  0.00     0.209 HD
ENDBRANCH  12  13
ENDBRANCH   5  12
TORSDOF 2
ENDMDL
MODEL 7
REMARK VINA RESULT:      -4.5      1.832      4.117
REMARK  2 active torsions:
REMARK  status: ('A' for Active; 'I' for Inactive)
REMARK    1  A    between atoms: C_5  and  C_8 
REMARK    2  A    between atoms: C_8  and  O_9 
ROOT
HETATM    1  C   UNL     1      62.887   8.012   4.490  1.00  0.00     0.084 A 
HETATM    2  O   UNL     1      63.235   9.011   3.622  1.00  0.00    -0.340 OA
HETATM    3  C   UNL     1      61.564   7.612   4.377  1.00  0.00    -0.021 A 
HETATM    4  C   UNL     1      62.067   9.229   2.783  1.00  0.00     0.064 C 
HETATM    5  C   UNL     1      63.756   7.447   5.408  1.00  0.00    -0.001 A 
HETATM    6  C   UNL     1      60.877   8.417   3.342  1.00  0.00     0.079 C 
HETATM    7  C   UNL     1      61.053   6.610   5.184  1.00  0.00     0.010 A 
HETATM    8  C   UNL     1      63.243   6.426   6.228  1.00  0.00     0.012 A 
HETATM    9  C   UNL     1      62.433   8.781   1.364  1.00  0.00     0.046 C 
HETATM   10  C   UNL     1      61.783  10.732   2.806  1.00  0.00     0.046 C 
HETATM   11  C   UNL     1      61.906   6.012   6.114  1.00  0.00     0.001 A 
ENDROOT
BRANCH   5  12
HETATM   12  C   UNL     1      65.186   7.882   5.520  1.00  0.00     0.205 C 
BRANCH  12  13
HETATM   13  O   UNL     1      65.257   9.285   5.743  1.00  0.00    -0.396 OA
HETATM   14  H   UNL     1      65.260   9.461   6.696  1.00  0.00     0.209 HD
ENDBRANCH  12  13
ENDBRANCH   5  12
TORSDOF 2
ENDMDL
MODEL 8
REMARK VINA RESULT:      -4.4     11.035     12.831
REMARK  2 active torsions:
REMARK  status: ('A' for Active; 'I' for Inactive)
REMARK    1  A    between atoms: C_5  and  C_8 
REMARK    2  A    between atoms: C_8  and  O_9 
ROOT
HETATM    1  C   UNL     1      56.925   2.565  12.279  1.00  0.00     0.084 A 
HETATM    2  O   UNL     1      55.755   3.054  11.765  1.00  0.00    -0.340 OA
HETATM    3  C   UNL     1      56.788   1.999  13.538  1.00  0.00    -0.021 A 
HETATM    4  C   UNL     1      54.722   2.692  12.724  1.00  0.00     0.064 C 
HETATM    5  C   UNL     1      58.144   2.627  11.625  1.00  0.00    -0.001 A 
HETATM    6  C   UNL     1      55.384   2.111  13.994  1.00  0.00     0.079 C 
HETATM    7  C   UNL     1      57.878   1.458  14.198  1.00  0.00     0.010 A 
HETATM    8  C   UNL     1      59.254   2.074  12.288  1.00  0.00     0.012 A 
HETATM    9  C   UNL     1      53.810   1.664  12.047  1.00  0.00     0.046 C 
HETATM   10  C   UNL     1      53.940   3.971  13.031  1.00  0.00     0.046 C 
HETATM   11  C   UNL     1      59.119   1.494  13.560  1.00  0.00     0.001 A 
ENDROOT
BRANCH   5  12
HETATM   12  C   UNL     1      58.282   3.235  10.262  1.00  0.00     0.205 C 
BRANCH  12  13
HETATM   13  O   UNL     1      58.638   4.608  10.370  1.00  0.00    -0.396 OA
HETATM   14  H   UNL     1      59.536   4.682  10.725  1.00  0.00     0.209 HD
ENDBRANCH  12  13
ENDBRANCH   5  12
TORSDOF 2
ENDMDL
MODEL 9
REMARK VINA RESULT:      -4.1      3.390      4.989
REMARK  2 active torsions:
REMARK  status: ('A' for Active; 'I' for Inactive)
REMARK    1  A    between atoms: C_5  and  C_8 
REMARK    2  A    between atoms: C_8  and  O_9 
ROOT
HETATM    1  C   UNL     1      60.997   7.669   3.867  1.00  0.00     0.084 A 
HETATM    2  O   UNL     1      60.762   8.483   2.793  1.00  0.00    -0.340 OA
HETATM    3  C   UNL     1      62.314   7.681   4.299  1.00  0.00    -0.021 A 
HETATM    4  C   UNL     1      62.015   9.180   2.546  1.00  0.00     0.064 C 
HETATM    5  C   UNL     1      60.026   6.891   4.476  1.00  0.00    -0.001 A 
HETATM    6  C   UNL     1      63.122   8.573   3.437  1.00  0.00     0.079 C 
HETATM    7  C   UNL     1      62.717   6.911   5.376  1.00  0.00     0.010 A 
HETATM    8  C   UNL     1      60.428   6.110   5.574  1.00  0.00     0.012 A 
HETATM    9  C   UNL     1      61.785  10.660   2.869  1.00  0.00     0.046 C 
HETATM   10  C   UNL     1      62.329   9.006   1.059  1.00  0.00     0.046 C 
HETATM   11  C   UNL     1      61.760   6.123   6.019  1.00  0.00     0.001 A 
ENDROOT
BRANCH   5  12
HETATM   12  C   UNL     1      58.602   6.888   4.006  1.00  0.00     0.205 C 
BRANCH  12  13
HETATM   13  O   UNL     1      58.071   8.207   4.040  1.00  0.00    -0.396 OA
HETATM   14  H   UNL     1      57.212   8.198   4.489  1.00  0.00     0.209 HD
ENDBRANCH  12  13
ENDBRANCH   5  12
TORSDOF 2
ENDMDL
