MODEL 1
REMARK VINA RESULT:      -5.4      0.000      0.000
REMARK  1 active torsions:
REMARK  status: ('A' for Active; 'I' for Inactive)
REMARK    1  A    between atoms: C_1  and  C_4 
ROOT
HETATM    1  C   UNL     1      63.235   8.029   4.513  1.00  0.00     0.076 A 
HETATM    2  C   UNL     1      63.384   7.072   3.528  1.00  0.00     0.162 A 
HETATM    3  C   UNL     1      62.719   9.185   3.851  1.00  0.00     0.017 A 
HETATM    4  O   UNL     1      62.999   7.549   2.317  1.00  0.00    -0.321 OA
HETATM    5  C   UNL     1      62.595   8.834   2.510  1.00  0.00     0.086 A 
HETATM    6  C   UNL     1      62.343  10.489   4.231  1.00  0.00     0.015 A 
HETATM    7  C   UNL     1      62.124   9.685   1.515  1.00  0.00     0.038 A 
HETATM    8  C   UNL     1      61.866  11.372   3.250  1.00  0.00     0.001 A 
HETATM    9  C   UNL     1      61.759  10.974   1.914  1.00  0.00     0.003 A 
ENDROOT
BRANCH   1  10
HETATM   10  C   UNL     1      63.551   7.851   5.909  1.00  0.00     0.212 C 
HETATM   11  O   UNL     1      62.748   7.626   6.801  1.00  0.00    -0.644 OA
HETATM   12  O   UNL     1      64.869   7.952   6.199  1.00  0.00    -0.644 OA
ENDBRANCH   1  10
TORSDOF 1
ENDMDL
MODEL 2
REMARK VINA RESULT:      -5.4      1.554      2.394
REMARK  1 active torsions:
REMARK  status: ('A' for Active; 'I' for Inactive)
REMARK    1  A    between atoms: C_1  and  C_4 
ROOT
HETATM    1  C   UNL     1      63.328   9.399   4.958  1.00  0.00     0.076 A 
HETATM    2  C   UNL     1      62.832  10.653   5.261  1.00  0.00     0.162 A 
HETATM    3  C   UNL     1      62.879   9.119   3.631  1.00  0.00     0.017 A 
HETATM    4  O   UNL     1      62.117  11.161   4.226  1.00  0.00    -0.321 OA
HETATM    5  C   UNL     1      62.143  10.232   3.234  1.00  0.00     0.086 A 
HETATM    6  C   UNL     1      63.010   8.053   2.720  1.00  0.00     0.015 A 
HETATM    7  C   UNL     1      61.524  10.363   1.994  1.00  0.00     0.038 A 
HETATM    8  C   UNL     1      62.395   8.154   1.462  1.00  0.00     0.001 A 
HETATM    9  C   UNL     1      61.666   9.292   1.107  1.00  0.00     0.003 A 
ENDROOT
BRANCH   1  10
HETATM   10  C   UNL     1      64.129   8.580   5.835  1.00  0.00     0.212 C 
HETATM   11  O   UNL     1      63.726   7.632   6.492  1.00  0.00    -0.644 OA
HETATM   12  O   UNL     1      65.432   8.938   5.895  1.00  0.00    -0.644 OA
ENDBRANCH   1  10
TORSDOF 1
ENDMDL
MODEL 3
REMARK VINA RESULT:      -5.3      2.125      2.904
REMARK  1 active torsions:
REMARK  status: ('A' for Active; 'I' for Inactive)
REMARK    1  A    between atoms: C_1  and  C_4 
ROOT
HETATM    1  C   UNL     1      62.795   9.712   4.454  1.00  0.00     0.076 A 
HETATM    2  C   UNL     1      63.315   8.624   5.130  1.00  0.00     0.162 A 
HETATM    3  C   UNL     1      62.538   9.252   3.126  1.00  0.00     0.017 A 
HETATM    4  O   UNL     1      63.395   7.537   4.322  1.00  0.00    -0.321 OA
HETATM    5  C   UNL     1      62.924   7.915   3.103  1.00  0.00     0.086 A 
HETATM    6  C   UNL     1      62.024   9.812   1.941  1.00  0.00     0.015 A 
HETATM    7  C   UNL     1      62.837   7.091   1.985  1.00  0.00     0.038 A 
HETATM    8  C   UNL     1      61.926   9.008   0.795  1.00  0.00     0.001 A 
HETATM    9  C   UNL     1      62.326   7.669   0.819  1.00  0.00     0.003 A 
ENDROOT
BRANCH   1  10
HETATM   10  C   UNL     1      62.578  11.022   5.017  1.00  0.00     0.212 C 
HETATM   11  O   UNL     1      61.939  11.925   4.499  1.00  0.00    -0.644 OA
HETATM   12  O   UNL     1      63.155  11.211   6.226  1.00  0.00    -0.644 OA
ENDBRANCH   1  10
TORSDOF 1
ENDMDL
MODEL 4
REMARK VINA RESULT:      -4.9      2.279      3.944
REMARK  1 active torsions:
REMARK  status: ('A' for Active; 'I' for Inactive)
REMARK    1  A    between atoms: C_1  and  C_4 
ROOT
HETATM    1  C   UNL     1      62.129   9.839   2.516  1.00  0.00     0.076 A 
HETATM    2  C   UNL     1      61.642   9.285   1.347  1.00  0.00     0.162 A 
HETATM    3  C   UNL     1      62.909   8.812   3.132  1.00  0.00     0.017 A 
HETATM    4  O   UNL     1      62.062   8.003   1.200  1.00  0.00    -0.321 OA
HETATM    5  C   UNL     1      62.832   7.713   2.283  1.00  0.00     0.086 A 
HETATM    6  C   UNL     1      63.670   8.686   4.311  1.00  0.00     0.015 A 
HETATM    7  C   UNL     1      63.458   6.492   2.519  1.00  0.00     0.038 A 
HETATM    8  C   UNL     1      64.311   7.467   4.578  1.00  0.00     0.001 A 
HETATM    9  C   UNL     1      64.206   6.389   3.695  1.00  0.00     0.003 A 
ENDROOT
BRANCH   1  10
HETATM   10  C   UNL     1      61.873  11.181   2.977  1.00  0.00     0.212 C 
HETATM   11  O   UNL     1      61.679  11.514   4.136  1.00  0.00    -0.644 OA
HETATM   12  O   UNL     1      61.857  12.113   1.996  1.00  0.00    -0.644 OA
ENDBRANCH   1  10
TORSDOF 1
ENDMDL
MODEL 5
REMARK VINA RESULT:      -4.7      1.328      2.502
REMARK  1 active torsions:
REMARK  status: ('A' for Active; 'I' for Inactive)
REMARK    1  A    between atoms: C_1  and  C_4 
ROOT
HETATM    1  C   UNL     1      63.322   7.796   4.289  1.00  0.00     0.076 A 
HETATM    2  C   UNL     1      63.412   8.277   5.581  1.00  0.00     0.162 A 
HETATM    3  C   UNL     1      62.786   8.871   3.515  1.00  0.00     0.017 A 
HETATM    4  O   UNL     1      62.975   9.559   5.659  1.00  0.00    -0.321 OA
HETATM    5  C   UNL     1      62.594   9.923   4.405  1.00  0.00     0.086 A 
HETATM    6  C   UNL     1      62.442   9.075   2.164  1.00  0.00     0.015 A 
HETATM    7  C   UNL     1      62.081  11.168   4.051  1.00  0.00     0.038 A 
HETATM    8  C   UNL     1      61.920  10.319   1.776  1.00  0.00     0.001 A 
HETATM    9  C   UNL     1      61.744  11.347   2.706  1.00  0.00     0.003 A 
ENDROOT
BRANCH   1  10
HETATM   10  C   UNL     1      63.702   6.472   3.859  1.00  0.00     0.212 C 
HETATM   11  O   UNL     1      63.119   5.435   4.139  1.00  0.00    -0.644 OA
HETATM   12  O   UNL     1      64.807   6.436   3.080  1.00  0.00    -0.644 OA
ENDBRANCH   1  10
TORSDOF 1
ENDMDL
MODEL 6
REMARK VINA RESULT:      -4.5      1.051      1.318
REMARK  1 active torsions:
REMARK  status: ('A' for Active; 'I' for Inactive)
REMARK    1  A    between atoms: C_1  and  C_4 
ROOT
HETATM    1  C   UNL     1      62.315   8.031   3.952  1.00  0.00     0.076 A 
HETATM    2  C   UNL     1      62.291   7.297   2.782  1.00  0.00     0.162 A 
HETATM    3  C   UNL     1      62.145   9.393   3.554  1.00  0.00     0.017 A 
HETATM    4  O   UNL     1      62.118   8.099   1.702  1.00  0.00    -0.321 OA
HETATM    5  C   UNL     1      62.029   9.374   2.167  1.00  0.00     0.086 A 
HETATM    6  C   UNL     1      62.075  10.639   4.207  1.00  0.00     0.015 A 
HETATM    7  C   UNL     1      61.850  10.507   1.378  1.00  0.00     0.038 A 
HETATM    8  C   UNL     1      61.897  11.800   3.439  1.00  0.00     0.001 A 
HETATM    9  C   UNL     1      61.786  11.732   2.047  1.00  0.00     0.003 A 
ENDROOT
BRANCH   1  10
HETATM   10  C   UNL     1      62.483   7.490   5.278  1.00  0.00     0.212 C 
HETATM   11  O   UNL     1      62.915   8.094   6.248  1.00  0.00    -0.644 OA
HETATM   12  O   UNL     1      62.112   6.194   5.402  1.00  0.00    -0.644 OA
ENDBRANCH   1  10
TORSDOF 1
ENDMDL
MODEL 7
REMARK VINA RESULT:      -4.3      1.217      1.612
REMARK  1 active torsions:
REMARK  status: ('A' for Active; 'I' for Inactive)
REMARK    1  A    between atoms: C_1  and  C_4 
ROOT
HETATM    1  C   UNL     1      63.786   7.541   3.930  1.00  0.00     0.076 A 
HETATM    2  C   UNL     1      63.471   7.094   2.661  1.00  0.00     0.162 A 
HETATM    3  C   UNL     1      63.210   8.845   4.031  1.00  0.00     0.017 A 
HETATM    4  O   UNL     1      62.749   8.018   1.979  1.00  0.00    -0.321 OA
HETATM    5  C   UNL     1      62.589   9.084   2.809  1.00  0.00     0.086 A 
HETATM    6  C   UNL     1      63.144   9.850   5.015  1.00  0.00     0.015 A 
HETATM    7  C   UNL     1      61.904  10.253   2.491  1.00  0.00     0.038 A 
HETATM    8  C   UNL     1      62.462  11.042   4.725  1.00  0.00     0.001 A 
HETATM    9  C   UNL     1      61.852  11.238   3.482  1.00  0.00     0.003 A 
ENDROOT
BRANCH   1  10
HETATM   10  C   UNL     1      64.544   6.807   4.913  1.00  0.00     0.212 C 
HETATM   11  O   UNL     1      65.615   7.149   5.391  1.00  0.00    -0.644 OA
HETATM   12  O   UNL     1      63.971   5.645   5.304  1.00  0.00    -0.644 OA
ENDBRANCH   1  10
TORSDOF 1
ENDMDL
MODEL 8
REMARK VINA RESULT:      -4.3      2.116      3.346
REMARK  1 active torsions:
REMARK  status: ('A' for Active; 'I' for Inactive)
REMARK    1  A    between atoms: C_1  and  C_4 
ROOT
HETATM    1  C   UNL     1      65.437   7.307   4.876  1.00  0.00     0.076 A 
HETATM    2  C   UNL     1      65.912   8.138   5.872  1.00  0.00     0.162 A 
HETATM    3  C   UNL     1      64.275   7.956   4.356  1.00  0.00     0.017 A 
HETATM    4  O   UNL     1      65.134   9.243   6.003  1.00  0.00    -0.321 OA
HETATM    5  C   UNL     1      64.139   9.135   5.082  1.00  0.00     0.086 A 
HETATM    6  C   UNL     1      63.323   7.682   3.354  1.00  0.00     0.015 A 
HETATM    7  C   UNL     1      63.121  10.065   4.888  1.00  0.00     0.038 A 
HETATM    8  C   UNL     1      62.284   8.599   3.136  1.00  0.00     0.001 A 
HETATM    9  C   UNL     1      62.187   9.771   3.891  1.00  0.00     0.003 A 
ENDROOT
BRANCH   1  10
HETATM   10  C   UNL     1      66.027   6.052   4.480  1.00  0.00     0.212 C 
HETATM   11  O   UNL     1      65.793   4.963   4.981  1.00  0.00    -0.644 OA
HETATM   12  O   UNL     1      66.910   6.149   3.459  1.00  0.00    -0.644 OA
ENDBRANCH   1  10
TORSDOF 1
ENDMDL
MODEL 9
REMARK VINA RESULT:      -4.3      2.472      5.039
REMARK  1 active torsions:
REMARK  status: ('A' for Active; 'I' for Inactive)
REMARK    1  A    between atoms: C_1  and  C_4 
ROOT
HETATM    1  C   UNL     1      63.985   8.108   4.166  1.00  0.00     0.076 A 
HETATM    2  C   UNL     1      63.957   9.167   5.053  1.00  0.00     0.162 A 
HETATM    3  C   UNL     1      65.220   7.433   4.412  1.00  0.00     0.017 A 
HETATM    4  O   UNL     1      65.075   9.193   5.822  1.00  0.00    -0.321 OA
HETATM    5  C   UNL     1      65.844   8.140   5.435  1.00  0.00     0.086 A 
HETATM    6  C   UNL     1      65.881   6.305   3.887  1.00  0.00     0.015 A 
HETATM    7  C   UNL     1      67.083   7.809   5.976  1.00  0.00     0.038 A 
HETATM    8  C   UNL     1      67.133   5.947   4.411  1.00  0.00     0.001 A 
HETATM    9  C   UNL     1      67.722   6.688   5.439  1.00  0.00     0.003 A 
ENDROOT
BRANCH   1  10
HETATM   10  C   UNL     1      62.955   7.792   3.206  1.00  0.00     0.212 C 
HETATM   11  O   UNL     1      62.737   8.396   2.167  1.00  0.00    -0.644 OA
HETATM   12  O   UNL     1      62.195   6.722   3.537  1.00  0.00    -0.644 OA
ENDBRANCH   1  10
TORSDOF 1
ENDMDL
