MODEL 1
REMARK VINA RESULT:      -5.6      0.000      0.000
REMARK  2 active torsions:
REMARK  status: ('A' for Active; 'I' for Inactive)
REMARK    1  A    between atoms: C_9  and  C_13 
REMARK    2  A    between atoms: O_12  and  C_13 
ROOT
HETATM    1  N   UNL     1      63.195   7.107   2.247  1.00  0.00    -0.359 N 
ATOM      2  HN  UNL     1      63.784   6.296   2.440  1.00  0.00     0.166 HD
HETATM    3  C   UNL     1      63.144   8.137   3.109  1.00  0.00     0.042 A 
HETATM    4  C   UNL     1      62.348   9.276   2.881  1.00  0.00    -0.009 A 
HETATM    5  C   UNL     1      62.325  10.327   3.820  1.00  0.00     0.023 A 
HETATM    6  C   UNL     1      63.898   8.091   4.273  1.00  0.00     0.031 A 
HETATM    7  C   UNL     1      62.450   7.166   1.117  1.00  0.00     0.005 A 
HETATM    8  C   UNL     1      61.594   9.319   1.703  1.00  0.00     0.015 A 
HETATM    9  C   UNL     1      63.088  10.259   4.994  1.00  0.00    -0.034 A 
HETATM   10  C   UNL     1      61.643   8.253   0.809  1.00  0.00     0.025 A 
HETATM   11  C   UNL     1      63.879   9.129   5.211  1.00  0.00     0.011 A 
HETATM   12  C   UNL     1      62.533   5.984   0.201  1.00  0.00     0.068 C 
ENDROOT
BRANCH   9  13
HETATM   13  C   UNL     1      63.034  11.372   6.005  1.00  0.00     0.202 C 
BRANCH  13  14
HETATM   14  O   UNL     1      64.333  11.646   6.509  1.00  0.00    -0.396 OA
HETATM   15  H   UNL     1      64.633  10.900   7.051  1.00  0.00     0.209 HD
ENDBRANCH  13  14
ENDBRANCH   9  13
TORSDOF 2
ENDMDL
MODEL 2
REMARK VINA RESULT:      -5.4      1.125      2.384
REMARK  2 active torsions:
REMARK  status: ('A' for Active; 'I' for Inactive)
REMARK    1  A    between atoms: C_9  and  C_13 
REMARK    2  A    between atoms: O_12  and  C_13 
ROOT
HETATM    1  N   UNL     1      63.006   7.215   2.195  1.00  0.00    -0.359 N 
ATOM      2  HN  UNL     1      62.323   7.254   1.439  1.00  0.00     0.166 HD
HETATM    3  C   UNL     1      63.043   8.173   3.137  1.00  0.00     0.042 A 
HETATM    4  C   UNL     1      63.967   8.158   4.199  1.00  0.00    -0.009 A 
HETATM    5  C   UNL     1      63.967   9.191   5.156  1.00  0.00     0.023 A 
HETATM    6  C   UNL     1      62.141   9.227   3.073  1.00  0.00     0.031 A 
HETATM    7  C   UNL     1      63.896   6.196   2.269  1.00  0.00     0.005 A 
HETATM    8  C   UNL     1      64.871   7.090   4.260  1.00  0.00     0.015 A 
HETATM    9  C   UNL     1      63.053  10.250   5.072  1.00  0.00    -0.034 A 
HETATM   10  C   UNL     1      64.838   6.097   3.286  1.00  0.00     0.025 A 
HETATM   11  C   UNL     1      62.136  10.257   4.019  1.00  0.00     0.011 A 
HETATM   12  C   UNL     1      63.821   5.165   1.186  1.00  0.00     0.068 C 
ENDROOT
BRANCH   9  13
HETATM   13  C   UNL     1      63.081  11.365   6.082  1.00  0.00     0.202 C 
BRANCH  13  14
HETATM   14  O   UNL     1      64.409  11.592   6.532  1.00  0.00    -0.396 OA
HETATM   15  H   UNL     1      64.394  12.196   7.291  1.00  0.00     0.209 HD
ENDBRANCH  13  14
ENDBRANCH   9  13
TORSDOF 2
ENDMDL
MODEL 3
REMARK VINA RESULT:      -5.2      2.460      4.085
REMARK  2 active torsions:
REMARK  status: ('A' for Active; 'I' for Inactive)
REMARK    1  A    between atoms: C_9  and  C_13 
REMARK    2  A    between atoms: O_12  and  C_13 
ROOT
HETATM    1  N   UNL     1      64.140   8.113   6.165  1.00  0.00    -0.359 N 
ATOM      2  HN  UNL     1      64.218   8.548   7.084  1.00  0.00     0.166 HD
HETATM    3  C   UNL     1      63.532   8.754   5.153  1.00  0.00     0.042 A 
HETATM    4  C   UNL     1      63.404   8.193   3.867  1.00  0.00    -0.009 A 
HETATM    5  C   UNL     1      62.751   8.904   2.842  1.00  0.00     0.023 A 
HETATM    6  C   UNL     1      63.001  10.019   5.367  1.00  0.00     0.031 A 
HETATM    7  C   UNL     1      64.649   6.877   5.940  1.00  0.00     0.005 A 
HETATM    8  C   UNL     1      63.945   6.919   3.657  1.00  0.00     0.015 A 
HETATM    9  C   UNL     1      62.215  10.178   3.080  1.00  0.00    -0.034 A 
HETATM   10  C   UNL     1      64.574   6.251   4.702  1.00  0.00     0.025 A 
HETATM   11  C   UNL     1      62.350  10.731   4.355  1.00  0.00     0.011 A 
HETATM   12  C   UNL     1      65.303   6.202   7.107  1.00  0.00     0.068 C 
ENDROOT
BRANCH   9  13
HETATM   13  C   UNL     1      61.492  10.918   1.987  1.00  0.00     0.202 C 
BRANCH  13  14
HETATM   14  O   UNL     1      62.048  12.214   1.816  1.00  0.00    -0.396 OA
HETATM   15  H   UNL     1      61.412  12.779   1.350  1.00  0.00     0.209 HD
ENDBRANCH  13  14
ENDBRANCH   9  13
TORSDOF 2
ENDMDL
MODEL 4
REMARK VINA RESULT:      -4.8      1.777      2.894
REMARK  2 active torsions:
REMARK  status: ('A' for Active; 'I' for Inactive)
REMARK    1  A    between atoms: C_9  and  C_13 
REMARK    2  A    between atoms: O_12  and  C_13 
ROOT
HETATM    1  N   UNL     1      62.764   7.745   2.245  1.00  0.00    -0.359 N 
ATOM      2  HN  UNL     1      62.805   7.012   1.538  1.00  0.00     0.166 HD
HETATM    3  C   UNL     1      63.618   7.746   3.282  1.00  0.00     0.042 A 
HETATM    4  C   UNL     1      63.598   8.738   4.281  1.00  0.00    -0.009 A 
HETATM    5  C   UNL     1      64.513   8.689   5.351  1.00  0.00     0.023 A 
HETATM    6  C   UNL     1      64.563   6.734   3.388  1.00  0.00     0.031 A 
HETATM    7  C   UNL     1      61.845   8.737   2.159  1.00  0.00     0.005 A 
HETATM    8  C   UNL     1      62.647   9.758   4.165  1.00  0.00     0.015 A 
HETATM    9  C   UNL     1      65.456   7.656   5.445  1.00  0.00    -0.034 A 
HETATM   10  C   UNL     1      61.759   9.760   3.095  1.00  0.00     0.025 A 
HETATM   11  C   UNL     1      65.473   6.677   4.449  1.00  0.00     0.011 A 
HETATM   12  C   UNL     1      60.908   8.679   0.992  1.00  0.00     0.068 C 
ENDROOT
BRANCH   9  13
HETATM   13  C   UNL     1      66.408   7.595   6.608  1.00  0.00     0.202 C 
BRANCH  13  14
HETATM   14  O   UNL     1      66.861   8.898   6.945  1.00  0.00    -0.396 OA
HETATM   15  H   UNL     1      67.128   9.366   6.139  1.00  0.00     0.209 HD
ENDBRANCH  13  14
ENDBRANCH   9  13
TORSDOF 2
ENDMDL
MODEL 5
REMARK VINA RESULT:      -4.7      3.144      5.144
REMARK  2 active torsions:
REMARK  status: ('A' for Active; 'I' for Inactive)
REMARK    1  A    between atoms: C_9  and  C_13 
REMARK    2  A    between atoms: O_12  and  C_13 
ROOT
HETATM    1  N   UNL     1      64.914   6.702   7.219  1.00  0.00    -0.359 N 
ATOM      2  HN  UNL     1      64.531   6.047   7.900  1.00  0.00     0.166 HD
HETATM    3  C   UNL     1      64.134   7.229   6.260  1.00  0.00     0.042 A 
HETATM    4  C   UNL     1      64.620   8.138   5.302  1.00  0.00    -0.009 A 
HETATM    5  C   UNL     1      63.761   8.657   4.313  1.00  0.00     0.023 A 
HETATM    6  C   UNL     1      62.794   6.871   6.198  1.00  0.00     0.031 A 
HETATM    7  C   UNL     1      66.221   7.058   7.263  1.00  0.00     0.005 A 
HETATM    8  C   UNL     1      65.971   8.498   5.373  1.00  0.00     0.015 A 
HETATM    9  C   UNL     1      62.412   8.278   4.262  1.00  0.00    -0.034 A 
HETATM   10  C   UNL     1      66.783   7.954   6.362  1.00  0.00     0.025 A 
HETATM   11  C   UNL     1      61.935   7.380   5.219  1.00  0.00     0.011 A 
HETATM   12  C   UNL     1      67.048   6.429   8.342  1.00  0.00     0.068 C 
ENDROOT
BRANCH   9  13
HETATM   13  C   UNL     1      61.509   8.814   3.184  1.00  0.00     0.202 C 
BRANCH  13  14
HETATM   14  O   UNL     1      60.967  10.068   3.571  1.00  0.00    -0.396 OA
HETATM   15  H   UNL     1      61.140  10.723   2.877  1.00  0.00     0.209 HD
ENDBRANCH  13  14
ENDBRANCH   9  13
TORSDOF 2
ENDMDL
MODEL 6
REMARK VINA RESULT:      -4.7      1.584      2.618
REMARK  2 active torsions:
REMARK  status: ('A' for Active; 'I' for Inactive)
REMARK    1  A    between atoms: C_9  and  C_13 
REMARK    2  A    between atoms: O_12  and  C_13 
ROOT
HETATM    1  N   UNL     1      60.920   8.786   2.349  1.00  0.00    -0.359 N 
ATOM      2  HN  UNL     1      60.268   9.530   2.594  1.00  0.00     0.166 HD
HETATM    3  C   UNL     1      62.035   8.586   3.072  1.00  0.00     0.042 A 
HETATM    4  C   UNL     1      62.962   7.569   2.772  1.00  0.00    -0.009 A 
HETATM    5  C   UNL     1      64.119   7.407   3.559  1.00  0.00     0.023 A 
HETATM    6  C   UNL     1      62.299   9.407   4.161  1.00  0.00     0.031 A 
HETATM    7  C   UNL     1      60.680   7.978   1.288  1.00  0.00     0.005 A 
HETATM    8  C   UNL     1      62.688   6.742   1.677  1.00  0.00     0.015 A 
HETATM    9  C   UNL     1      64.371   8.250   4.650  1.00  0.00    -0.034 A 
HETATM   10  C   UNL     1      61.536   6.946   0.925  1.00  0.00     0.025 A 
HETATM   11  C   UNL     1      63.446   9.254   4.945  1.00  0.00     0.011 A 
HETATM   12  C   UNL     1      59.432   8.255   0.508  1.00  0.00     0.068 C 
ENDROOT
BRANCH   9  13
HETATM   13  C   UNL     1      65.625   8.088   5.466  1.00  0.00     0.202 C 
BRANCH  13  14
HETATM   14  O   UNL     1      65.816   9.216   6.309  1.00  0.00    -0.396 OA
HETATM   15  H   UNL     1      66.653   9.122   6.789  1.00  0.00     0.209 HD
ENDBRANCH  13  14
ENDBRANCH   9  13
TORSDOF 2
ENDMDL
MODEL 7
REMARK VINA RESULT:      -4.5      2.265      3.544
REMARK  2 active torsions:
REMARK  status: ('A' for Active; 'I' for Inactive)
REMARK    1  A    between atoms: C_9  and  C_13 
REMARK    2  A    between atoms: O_12  and  C_13 
ROOT
HETATM    1  N   UNL     1      63.226   6.139   3.391  1.00  0.00    -0.359 N 
ATOM      2  HN  UNL     1      63.185   5.566   2.549  1.00  0.00     0.166 HD
HETATM    3  C   UNL     1      62.880   7.437   3.356  1.00  0.00     0.042 A 
HETATM    4  C   UNL     1      62.918   8.263   4.495  1.00  0.00    -0.009 A 
HETATM    5  C   UNL     1      62.551   9.620   4.402  1.00  0.00     0.023 A 
HETATM    6  C   UNL     1      62.468   8.000   2.156  1.00  0.00     0.031 A 
HETATM    7  C   UNL     1      63.630   5.605   4.570  1.00  0.00     0.005 A 
HETATM    8  C   UNL     1      63.330   7.688   5.703  1.00  0.00     0.015 A 
HETATM    9  C   UNL     1      62.144  10.173   3.180  1.00  0.00    -0.034 A 
HETATM   10  C   UNL     1      63.691   6.345   5.744  1.00  0.00     0.025 A 
HETATM   11  C   UNL     1      62.103   9.347   2.055  1.00  0.00     0.011 A 
HETATM   12  C   UNL     1      64.019   4.159   4.549  1.00  0.00     0.068 C 
ENDROOT
BRANCH   9  13
HETATM   13  C   UNL     1      61.783  11.630   3.084  1.00  0.00     0.202 C 
BRANCH  13  14
HETATM   14  O   UNL     1      62.099  12.134   1.794  1.00  0.00    -0.396 OA
HETATM   15  H   UNL     1      63.016  12.449   1.787  1.00  0.00     0.209 HD
ENDBRANCH  13  14
ENDBRANCH   9  13
TORSDOF 2
ENDMDL
MODEL 8
REMARK VINA RESULT:      -4.2      3.013      3.734
REMARK  2 active torsions:
REMARK  status: ('A' for Active; 'I' for Inactive)
REMARK    1  A    between atoms: C_9  and  C_13 
REMARK    2  A    between atoms: O_12  and  C_13 
ROOT
HETATM    1  N   UNL     1      59.614   8.099   3.424  1.00  0.00    -0.359 N 
ATOM      2  HN  UNL     1      59.249   8.843   2.829  1.00  0.00     0.166 HD
HETATM    3  C   UNL     1      60.892   8.117   3.839  1.00  0.00     0.042 A 
HETATM    4  C   UNL     1      61.436   7.113   4.662  1.00  0.00    -0.009 A 
HETATM    5  C   UNL     1      62.785   7.176   5.064  1.00  0.00     0.023 A 
HETATM    6  C   UNL     1      61.721   9.160   3.448  1.00  0.00     0.031 A 
HETATM    7  C   UNL     1      58.819   7.071   3.811  1.00  0.00     0.005 A 
HETATM    8  C   UNL     1      60.594   6.067   5.056  1.00  0.00     0.015 A 
HETATM    9  C   UNL     1      63.609   8.233   4.653  1.00  0.00    -0.034 A 
HETATM   10  C   UNL     1      59.271   6.043   4.627  1.00  0.00     0.025 A 
HETATM   11  C   UNL     1      63.061   9.229   3.841  1.00  0.00     0.011 A 
HETATM   12  C   UNL     1      57.409   7.093   3.307  1.00  0.00     0.068 C 
ENDROOT
BRANCH   9  13
HETATM   13  C   UNL     1      65.056   8.277   5.062  1.00  0.00     0.202 C 
BRANCH  13  14
HETATM   14  O   UNL     1      65.292   9.375   5.932  1.00  0.00    -0.396 OA
HETATM   15  H   UNL     1      65.137  10.205   5.453  1.00  0.00     0.209 HD
ENDBRANCH  13  14
ENDBRANCH   9  13
TORSDOF 2
ENDMDL
MODEL 9
REMARK VINA RESULT:      -4.2     11.366     12.322
REMARK  2 active torsions:
REMARK  status: ('A' for Active; 'I' for Inactive)
REMARK    1  A    between atoms: C_9  and  C_13 
REMARK    2  A    between atoms: O_12  and  C_13 
ROOT
HETATM    1  N   UNL     1      59.187  -0.446  12.047  1.00  0.00    -0.359 N 
ATOM      2  HN  UNL     1      59.464  -1.300  11.563  1.00  0.00     0.166 HD
HETATM    3  C   UNL     1      58.978   0.692  11.364  1.00  0.00     0.042 A 
HETATM    4  C   UNL     1      58.593   1.893  11.990  1.00  0.00    -0.009 A 
HETATM    5  C   UNL     1      58.392   3.060  11.227  1.00  0.00     0.023 A 
HETATM    6  C   UNL     1      59.144   0.700   9.985  1.00  0.00     0.031 A 
HETATM    7  C   UNL     1      59.024  -0.436  13.393  1.00  0.00     0.005 A 
HETATM    8  C   UNL     1      58.422   1.877  13.379  1.00  0.00     0.015 A 
HETATM    9  C   UNL     1      58.572   3.051   9.837  1.00  0.00    -0.034 A 
HETATM   10  C   UNL     1      58.640   0.702  14.091  1.00  0.00     0.025 A 
HETATM   11  C   UNL     1      58.949   1.855   9.221  1.00  0.00     0.011 A 
HETATM   12  C   UNL     1      59.286  -1.727  14.106  1.00  0.00     0.068 C 
ENDROOT
BRANCH   9  13
HETATM   13  C   UNL     1      58.385   4.310   9.035  1.00  0.00     0.202 C 
BRANCH  13  14
HETATM   14  O   UNL     1      58.659   5.451   9.834  1.00  0.00    -0.396 OA
HETATM   15  H   UNL     1      58.910   5.167  10.727  1.00  0.00     0.209 HD
ENDBRANCH  13  14
ENDBRANCH   9  13
TORSDOF 2
ENDMDL
