MODEL 1
REMARK VINA RESULT:      -4.8      0.000      0.000
REMARK  2 active torsions:
REMARK  status: ('A' for Active; 'I' for Inactive)
REMARK    1  A    between atoms: C_6  and  C_9 
REMARK    2  A    between atoms: C_9  and  O_10 
ROOT
HETATM    1  N   UNL     1      64.165   7.026   3.853  1.00  0.00    -0.283 NA
HETATM    2  O   UNL     1      65.200   8.946   5.798  1.00  0.00    -0.341 OA
HETATM    3  C   UNL     1      63.543   8.273   4.099  1.00  0.00     0.044 A 
HETATM    4  C   UNL     1      64.080   9.192   5.033  1.00  0.00     0.090 A 
HETATM    5  C   UNL     1      65.549   7.009   4.354  1.00  0.00     0.130 C 
HETATM    6  C   UNL     1      65.612   7.571   5.774  1.00  0.00     0.166 C 
HETATM    7  C   UNL     1      63.987   6.439   2.526  1.00  0.00     0.116 C 
HETATM    8  C   UNL     1      63.498  10.444   5.248  1.00  0.00     0.039 A 
HETATM    9  C   UNL     1      62.339   8.639   3.474  1.00  0.00     0.026 A 
HETATM   10  C   UNL     1      62.331  10.796   4.574  1.00  0.00     0.003 A 
HETATM   11  C   UNL     1      61.742   9.885   3.704  1.00  0.00     0.002 A 
ENDROOT
BRANCH   6  12
HETATM   12  C   UNL     1      64.827   6.751   6.807  1.00  0.00     0.197 C 
BRANCH  12  13
HETATM   13  O   UNL     1      65.363   6.895   8.120  1.00  0.00    -0.398 OA
HETATM   14  H   UNL     1      65.196   7.795   8.440  1.00  0.00     0.209 HD
ENDBRANCH  12  13
ENDBRANCH   6  12
TORSDOF 2
ENDMDL
MODEL 2
REMARK VINA RESULT:      -4.7      1.455      2.096
REMARK  2 active torsions:
REMARK  status: ('A' for Active; 'I' for Inactive)
REMARK    1  A    between atoms: C_6  and  C_9 
REMARK    2  A    between atoms: C_9  and  O_10 
ROOT
HETATM    1  N   UNL     1      66.407   6.387   4.666  1.00  0.00    -0.283 NA
HETATM    2  O   UNL     1      65.806   8.802   6.199  1.00  0.00    -0.341 OA
HETATM    3  C   UNL     1      65.268   7.188   4.412  1.00  0.00     0.044 A 
HETATM    4  C   UNL     1      65.015   8.364   5.159  1.00  0.00     0.090 A 
HETATM    5  C   UNL     1      67.410   7.117   5.459  1.00  0.00     0.130 C 
HETATM    6  C   UNL     1      66.749   7.816   6.646  1.00  0.00     0.166 C 
HETATM    7  C   UNL     1      66.951   5.623   3.545  1.00  0.00     0.116 C 
HETATM    8  C   UNL     1      63.918   9.186   4.883  1.00  0.00     0.039 A 
HETATM    9  C   UNL     1      64.309   6.832   3.449  1.00  0.00     0.026 A 
HETATM   10  C   UNL     1      63.011   8.829   3.887  1.00  0.00     0.003 A 
HETATM   11  C   UNL     1      63.197   7.643   3.187  1.00  0.00     0.002 A 
ENDROOT
BRANCH   6  12
HETATM   12  C   UNL     1      66.097   6.857   7.653  1.00  0.00     0.197 C 
BRANCH  12  13
HETATM   13  O   UNL     1      66.557   5.518   7.488  1.00  0.00    -0.398 OA
HETATM   14  H   UNL     1      67.489   5.462   7.750  1.00  0.00     0.209 HD
ENDBRANCH  12  13
ENDBRANCH   6  12
TORSDOF 2
ENDMDL
MODEL 3
REMARK VINA RESULT:      -4.6      2.016      2.118
REMARK  2 active torsions:
REMARK  status: ('A' for Active; 'I' for Inactive)
REMARK    1  A    between atoms: C_6  and  C_9 
REMARK    2  A    between atoms: C_9  and  O_10 
ROOT
HETATM    1  N   UNL     1      63.054   7.225   3.450  1.00  0.00    -0.283 NA
HETATM    2  O   UNL     1      63.129   8.886   5.853  1.00  0.00    -0.341 OA
HETATM    3  C   UNL     1      62.659   8.583   3.450  1.00  0.00     0.044 A 
HETATM    4  C   UNL     1      62.726   9.369   4.627  1.00  0.00     0.090 A 
HETATM    5  C   UNL     1      63.864   6.901   4.637  1.00  0.00     0.130 C 
HETATM    6  C   UNL     1      63.206   7.453   5.900  1.00  0.00     0.166 C 
HETATM    7  C   UNL     1      63.564   6.675   2.194  1.00  0.00     0.116 C 
HETATM    8  C   UNL     1      62.382  10.723   4.624  1.00  0.00     0.039 A 
HETATM    9  C   UNL     1      62.132   9.204   2.305  1.00  0.00     0.026 A 
HETATM   10  C   UNL     1      61.909  11.322   3.458  1.00  0.00     0.003 A 
HETATM   11  C   UNL     1      61.766  10.556   2.307  1.00  0.00     0.002 A 
ENDROOT
BRANCH   6  12
HETATM   12  C   UNL     1      61.829   6.846   6.205  1.00  0.00     0.197 C 
BRANCH  12  13
HETATM   13  O   UNL     1      61.564   5.697   5.403  1.00  0.00    -0.398 OA
HETATM   14  H   UNL     1      61.603   5.942   4.466  1.00  0.00     0.209 HD
ENDBRANCH  12  13
ENDBRANCH   6  12
TORSDOF 2
ENDMDL
MODEL 4
REMARK VINA RESULT:      -4.6      2.359      4.991
REMARK  2 active torsions:
REMARK  status: ('A' for Active; 'I' for Inactive)
REMARK    1  A    between atoms: C_6  and  C_9 
REMARK    2  A    between atoms: C_9  and  O_10 
ROOT
HETATM    1  N   UNL     1      65.360   5.281   5.260  1.00  0.00    -0.283 NA
HETATM    2  O   UNL     1      64.625   7.198   7.341  1.00  0.00    -0.341 OA
HETATM    3  C   UNL     1      66.126   5.461   6.437  1.00  0.00     0.044 A 
HETATM    4  C   UNL     1      65.733   6.383   7.437  1.00  0.00     0.090 A 
HETATM    5  C   UNL     1      64.004   5.835   5.413  1.00  0.00     0.130 C 
HETATM    6  C   UNL     1      64.063   7.236   6.021  1.00  0.00     0.166 C 
HETATM    7  C   UNL     1      65.416   3.969   4.618  1.00  0.00     0.116 C 
HETATM    8  C   UNL     1      66.458   6.532   8.623  1.00  0.00     0.039 A 
HETATM    9  C   UNL     1      67.335   4.778   6.648  1.00  0.00     0.026 A 
HETATM   10  C   UNL     1      67.627   5.802   8.822  1.00  0.00     0.003 A 
HETATM   11  C   UNL     1      68.075   4.942   7.826  1.00  0.00     0.002 A 
ENDROOT
BRANCH   6  12
HETATM   12  C   UNL     1      64.795   8.266   5.149  1.00  0.00     0.197 C 
BRANCH  12  13
HETATM   13  O   UNL     1      64.996   9.499   5.836  1.00  0.00    -0.398 OA
HETATM   14  H   UNL     1      64.140   9.927   5.990  1.00  0.00     0.209 HD
ENDBRANCH  12  13
ENDBRANCH   6  12
TORSDOF 2
ENDMDL
MODEL 5
REMARK VINA RESULT:      -4.5      2.427      4.070
REMARK  2 active torsions:
REMARK  status: ('A' for Active; 'I' for Inactive)
REMARK    1  A    between atoms: C_6  and  C_9 
REMARK    2  A    between atoms: C_9  and  O_10 
ROOT
HETATM    1  N   UNL     1      62.235  10.327   2.831  1.00  0.00    -0.283 NA
HETATM    2  O   UNL     1      61.873   7.948   4.490  1.00  0.00    -0.341 OA
HETATM    3  C   UNL     1      61.771   9.096   2.309  1.00  0.00     0.044 A 
HETATM    4  C   UNL     1      61.586   7.967   3.142  1.00  0.00     0.090 A 
HETATM    5  C   UNL     1      62.105  10.371   4.297  1.00  0.00     0.130 C 
HETATM    6  C   UNL     1      62.640   9.082   4.921  1.00  0.00     0.166 C 
HETATM    7  C   UNL     1      61.817  11.547   2.143  1.00  0.00     0.116 C 
HETATM    8  C   UNL     1      61.083   6.762   2.643  1.00  0.00     0.039 A 
HETATM    9  C   UNL     1      61.524   8.917   0.937  1.00  0.00     0.026 A 
HETATM   10  C   UNL     1      60.801   6.632   1.285  1.00  0.00     0.003 A 
HETATM   11  C   UNL     1      61.041   7.703   0.432  1.00  0.00     0.002 A 
ENDROOT
BRANCH   6  12
HETATM   12  C   UNL     1      64.138   8.847   4.682  1.00  0.00     0.197 C 
BRANCH  12  13
HETATM   13  O   UNL     1      64.939   9.435   5.704  1.00  0.00    -0.398 OA
HETATM   14  H   UNL     1      65.410  10.203   5.344  1.00  0.00     0.209 HD
ENDBRANCH  12  13
ENDBRANCH   6  12
TORSDOF 2
ENDMDL
MODEL 6
REMARK VINA RESULT:      -4.4      3.130      4.875
REMARK  2 active torsions:
REMARK  status: ('A' for Active; 'I' for Inactive)
REMARK    1  A    between atoms: C_6  and  C_9 
REMARK    2  A    between atoms: C_9  and  O_10 
ROOT
HETATM    1  N   UNL     1      61.748  10.040   2.153  1.00  0.00    -0.283 NA
HETATM    2  O   UNL     1      62.842   7.341   1.912  1.00  0.00    -0.341 OA
HETATM    3  C   UNL     1      62.507   9.430   3.179  1.00  0.00     0.044 A 
HETATM    4  C   UNL     1      63.042   8.128   3.025  1.00  0.00     0.090 A 
HETATM    5  C   UNL     1      61.937   9.352   0.865  1.00  0.00     0.130 C 
HETATM    6  C   UNL     1      61.813   7.839   1.043  1.00  0.00     0.166 C 
HETATM    7  C   UNL     1      61.775  11.500   2.076  1.00  0.00     0.116 C 
HETATM    8  C   UNL     1      63.832   7.538   4.015  1.00  0.00     0.039 A 
HETATM    9  C   UNL     1      62.724  10.059   4.417  1.00  0.00     0.026 A 
HETATM   10  C   UNL     1      64.069   8.210   5.212  1.00  0.00     0.003 A 
HETATM   11  C   UNL     1      63.497   9.460   5.419  1.00  0.00     0.002 A 
ENDROOT
BRANCH   6  12
HETATM   12  C   UNL     1      60.429   7.376   1.519  1.00  0.00     0.197 C 
BRANCH  12  13
HETATM   13  O   UNL     1      59.444   8.395   1.365  1.00  0.00    -0.398 OA
HETATM   14  H   UNL     1      58.627   8.005   1.019  1.00  0.00     0.209 HD
ENDBRANCH  12  13
ENDBRANCH   6  12
TORSDOF 2
ENDMDL
MODEL 7
REMARK VINA RESULT:      -4.4      1.820      2.341
REMARK  2 active torsions:
REMARK  status: ('A' for Active; 'I' for Inactive)
REMARK    1  A    between atoms: C_6  and  C_9 
REMARK    2  A    between atoms: C_9  and  O_10 
ROOT
HETATM    1  N   UNL     1      64.005   6.427   3.316  1.00  0.00    -0.283 NA
HETATM    2  O   UNL     1      63.505   9.061   4.481  1.00  0.00    -0.341 OA
HETATM    3  C   UNL     1      63.189   7.398   2.687  1.00  0.00     0.044 A 
HETATM    4  C   UNL     1      62.982   8.673   3.267  1.00  0.00     0.090 A 
HETATM    5  C   UNL     1      64.861   7.035   4.348  1.00  0.00     0.130 C 
HETATM    6  C   UNL     1      64.044   7.968   5.241  1.00  0.00     0.166 C 
HETATM    7  C   UNL     1      64.680   5.459   2.453  1.00  0.00     0.116 C 
HETATM    8  C   UNL     1      62.216   9.653   2.629  1.00  0.00     0.039 A 
HETATM    9  C   UNL     1      62.502   7.129   1.491  1.00  0.00     0.026 A 
HETATM   10  C   UNL     1      61.589   9.370   1.418  1.00  0.00     0.003 A 
HETATM   11  C   UNL     1      61.716   8.103   0.862  1.00  0.00     0.002 A 
ENDROOT
BRANCH   6  12
HETATM   12  C   UNL     1      62.936   7.262   6.036  1.00  0.00     0.197 C 
BRANCH  12  13
HETATM   13  O   UNL     1      62.548   8.009   7.187  1.00  0.00    -0.398 OA
HETATM   14  H   UNL     1      62.063   8.802   6.910  1.00  0.00     0.209 HD
ENDBRANCH  12  13
ENDBRANCH   6  12
TORSDOF 2
ENDMDL
MODEL 8
REMARK VINA RESULT:      -4.2      1.321      3.859
REMARK  2 active torsions:
REMARK  status: ('A' for Active; 'I' for Inactive)
REMARK    1  A    between atoms: C_6  and  C_9 
REMARK    2  A    between atoms: C_9  and  O_10 
ROOT
HETATM    1  N   UNL     1      63.977   7.237   3.603  1.00  0.00    -0.283 NA
HETATM    2  O   UNL     1      63.954   7.966   6.433  1.00  0.00    -0.341 OA
HETATM    3  C   UNL     1      65.094   7.043   4.450  1.00  0.00     0.044 A 
HETATM    4  C   UNL     1      65.046   7.387   5.822  1.00  0.00     0.090 A 
HETATM    5  C   UNL     1      62.743   7.437   4.381  1.00  0.00     0.130 C 
HETATM    6  C   UNL     1      62.974   8.449   5.502  1.00  0.00     0.166 C 
HETATM    7  C   UNL     1      63.840   6.337   2.458  1.00  0.00     0.116 C 
HETATM    8  C   UNL     1      66.128   7.155   6.675  1.00  0.00     0.039 A 
HETATM    9  C   UNL     1      66.318   6.552   3.964  1.00  0.00     0.026 A 
HETATM   10  C   UNL     1      67.312   6.621   6.171  1.00  0.00     0.003 A 
HETATM   11  C   UNL     1      67.411   6.339   4.813  1.00  0.00     0.002 A 
ENDROOT
BRANCH   6  12
HETATM   12  C   UNL     1      63.341   9.856   5.008  1.00  0.00     0.197 C 
BRANCH  12  13
HETATM   13  O   UNL     1      64.117  10.571   5.967  1.00  0.00    -0.398 OA
HETATM   14  H   UNL     1      63.916  11.518   5.904  1.00  0.00     0.209 HD
ENDBRANCH  12  13
ENDBRANCH   6  12
TORSDOF 2
ENDMDL
MODEL 9
REMARK VINA RESULT:      -4.2      2.158      2.949
REMARK  2 active torsions:
REMARK  status: ('A' for Active; 'I' for Inactive)
REMARK    1  A    between atoms: C_6  and  C_9 
REMARK    2  A    between atoms: C_9  and  O_10 
ROOT
HETATM    1  N   UNL     1      66.604   7.039   5.513  1.00  0.00    -0.283 NA
HETATM    2  O   UNL     1      64.460   7.024   7.500  1.00  0.00    -0.341 OA
HETATM    3  C   UNL     1      65.237   7.139   5.161  1.00  0.00     0.044 A 
HETATM    4  C   UNL     1      64.222   7.150   6.148  1.00  0.00     0.090 A 
HETATM    5  C   UNL     1      66.814   7.344   6.938  1.00  0.00     0.130 C 
HETATM    6  C   UNL     1      65.797   6.599   7.802  1.00  0.00     0.166 C 
HETATM    7  C   UNL     1      67.575   7.649   4.607  1.00  0.00     0.116 C 
HETATM    8  C   UNL     1      62.873   7.295   5.811  1.00  0.00     0.039 A 
HETATM    9  C   UNL     1      64.815   7.178   3.821  1.00  0.00     0.026 A 
HETATM   10  C   UNL     1      62.493   7.381   4.474  1.00  0.00     0.003 A 
HETATM   11  C   UNL     1      63.462   7.302   3.481  1.00  0.00     0.002 A 
ENDROOT
BRANCH   6  12
HETATM   12  C   UNL     1      65.911   5.069   7.723  1.00  0.00     0.197 C 
BRANCH  12  13
HETATM   13  O   UNL     1      67.161   4.656   7.174  1.00  0.00    -0.398 OA
HETATM   14  H   UNL     1      67.876   5.178   7.569  1.00  0.00     0.209 HD
ENDBRANCH  12  13
ENDBRANCH   6  12
TORSDOF 2
ENDMDL
