MODEL 1
REMARK VINA RESULT:      -3.4      0.000      0.000
REMARK  2 active torsions:
REMARK  status: ('A' for Active; 'I' for Inactive)
REMARK    1  A    between atoms: O_2  and  C_6 
REMARK    2  A    between atoms: C_3  and  C_6 
ROOT
HETATM    1  O   UNL     1      62.148  11.094   4.182  1.00  0.00    -0.391 OA
HETATM    2  C   UNL     1      63.401   8.507   4.590  1.00  0.00     0.013 C 
HETATM    3  C   UNL     1      62.775  10.812   5.433  1.00  0.00     0.168 C 
HETATM    4  C   UNL     1      61.572   9.936   3.579  1.00  0.00     0.168 C 
HETATM    5  C   UNL     1      62.640   8.882   3.310  1.00  0.00     0.033 C 
HETATM    6  C   UNL     1      63.899   9.796   5.262  1.00  0.00     0.033 C 
ENDROOT
BRANCH   2   7
HETATM    7  C   UNL     1      62.542   7.677   5.557  1.00  0.00     0.168 C 
BRANCH   7   8
HETATM    8  O   UNL     1      63.133   7.637   6.847  1.00  0.00    -0.400 OA
HETATM    9  H   UNL     1      63.497   8.511   7.065  1.00  0.00     0.209 HD
ENDBRANCH   7   8
ENDBRANCH   2   7
TORSDOF 2
ENDMDL
MODEL 2
REMARK VINA RESULT:      -3.3      2.822      4.304
REMARK  2 active torsions:
REMARK  status: ('A' for Active; 'I' for Inactive)
REMARK    1  A    between atoms: O_2  and  C_6 
REMARK    2  A    between atoms: C_3  and  C_6 
ROOT
HETATM    1  O   UNL     1      60.463   7.574   2.033  1.00  0.00    -0.391 OA
HETATM    2  C   UNL     1      62.437   9.675   2.381  1.00  0.00     0.013 C 
HETATM    3  C   UNL     1      60.594   8.581   1.030  1.00  0.00     0.168 C 
HETATM    4  C   UNL     1      60.741   8.061   3.345  1.00  0.00     0.168 C 
HETATM    5  C   UNL     1      62.169   8.587   3.432  1.00  0.00     0.033 C 
HETATM    6  C   UNL     1      62.011   9.143   1.003  1.00  0.00     0.033 C 
ENDROOT
BRANCH   2   7
HETATM    7  C   UNL     1      61.718  10.993   2.709  1.00  0.00     0.168 C 
BRANCH   7   8
HETATM    8  O   UNL     1      62.118  12.020   1.814  1.00  0.00    -0.400 OA
HETATM    9  H   UNL     1      62.341  12.820   2.317  1.00  0.00     0.209 HD
ENDBRANCH   7   8
ENDBRANCH   2   7
TORSDOF 2
ENDMDL
MODEL 3
REMARK VINA RESULT:      -3.3      1.548      3.073
REMARK  2 active torsions:
REMARK  status: ('A' for Active; 'I' for Inactive)
REMARK    1  A    between atoms: O_2  and  C_6 
REMARK    2  A    between atoms: C_3  and  C_6 
ROOT
HETATM    1  O   UNL     1      61.843   7.132   4.837  1.00  0.00    -0.391 OA
HETATM    2  C   UNL     1      63.778   9.295   4.750  1.00  0.00     0.013 C 
HETATM    3  C   UNL     1      61.577   8.274   4.022  1.00  0.00     0.168 C 
HETATM    4  C   UNL     1      62.586   7.452   6.012  1.00  0.00     0.168 C 
HETATM    5  C   UNL     1      63.935   8.058   5.647  1.00  0.00     0.033 C 
HETATM    6  C   UNL     1      62.875   8.929   3.561  1.00  0.00     0.033 C 
ENDROOT
BRANCH   2   7
HETATM    7  C   UNL     1      63.218  10.504   5.516  1.00  0.00     0.168 C 
BRANCH   7   8
HETATM    8  O   UNL     1      64.263  11.222   6.155  1.00  0.00    -0.400 OA
HETATM    9  H   UNL     1      63.940  12.099   6.418  1.00  0.00     0.209 HD
ENDBRANCH   7   8
ENDBRANCH   2   7
TORSDOF 2
ENDMDL
MODEL 4
REMARK VINA RESULT:      -3.3      2.274      3.202
REMARK  2 active torsions:
REMARK  status: ('A' for Active; 'I' for Inactive)
REMARK    1  A    between atoms: O_2  and  C_6 
REMARK    2  A    between atoms: C_3  and  C_6 
ROOT
HETATM    1  O   UNL     1      62.305  11.444   3.540  1.00  0.00    -0.391 OA
HETATM    2  C   UNL     1      62.150   8.881   2.185  1.00  0.00     0.013 C 
HETATM    3  C   UNL     1      62.183  10.251   4.315  1.00  0.00     0.168 C 
HETATM    4  C   UNL     1      61.634  11.358   2.284  1.00  0.00     0.168 C 
HETATM    5  C   UNL     1      62.210  10.225   1.443  1.00  0.00     0.033 C 
HETATM    6  C   UNL     1      62.779   9.058   3.576  1.00  0.00     0.033 C 
ENDROOT
BRANCH   2   7
HETATM    7  C   UNL     1      60.716   8.339   2.293  1.00  0.00     0.168 C 
BRANCH   7   8
HETATM    8  O   UNL     1      59.976   8.634   1.118  1.00  0.00    -0.400 OA
HETATM    9  H   UNL     1      60.577   8.963   0.430  1.00  0.00     0.209 HD
ENDBRANCH   7   8
ENDBRANCH   2   7
TORSDOF 2
ENDMDL
MODEL 5
REMARK VINA RESULT:      -3.2      3.165      4.281
REMARK  2 active torsions:
REMARK  status: ('A' for Active; 'I' for Inactive)
REMARK    1  A    between atoms: O_2  and  C_6 
REMARK    2  A    between atoms: C_3  and  C_6 
ROOT
HETATM    1  O   UNL     1      64.193   7.242   7.102  1.00  0.00    -0.391 OA
HETATM    2  C   UNL     1      66.183   7.995   5.127  1.00  0.00     0.013 C 
HETATM    3  C   UNL     1      65.515   6.715   7.209  1.00  0.00     0.168 C 
HETATM    4  C   UNL     1      63.789   7.454   5.751  1.00  0.00     0.168 C 
HETATM    5  C   UNL     1      64.717   8.449   5.063  1.00  0.00     0.033 C 
HETATM    6  C   UNL     1      66.532   7.666   6.587  1.00  0.00     0.033 C 
ENDROOT
BRANCH   2   7
HETATM    7  C   UNL     1      66.462   6.794   4.210  1.00  0.00     0.168 C 
BRANCH   7   8
HETATM    8  O   UNL     1      67.739   6.237   4.485  1.00  0.00    -0.400 OA
HETATM    9  H   UNL     1      68.430   6.835   4.160  1.00  0.00     0.209 HD
ENDBRANCH   7   8
ENDBRANCH   2   7
TORSDOF 2
ENDMDL
MODEL 6
REMARK VINA RESULT:      -3.1      4.738      6.426
REMARK  2 active torsions:
REMARK  status: ('A' for Active; 'I' for Inactive)
REMARK    1  A    between atoms: O_2  and  C_6 
REMARK    2  A    between atoms: C_3  and  C_6 
ROOT
HETATM    1  O   UNL     1      65.909   4.677   8.450  1.00  0.00    -0.391 OA
HETATM    2  C   UNL     1      67.349   6.518   6.726  1.00  0.00     0.013 C 
HETATM    3  C   UNL     1      65.532   4.788   7.077  1.00  0.00     0.168 C 
HETATM    4  C   UNL     1      66.396   5.904   8.991  1.00  0.00     0.168 C 
HETATM    5  C   UNL     1      67.629   6.376   8.230  1.00  0.00     0.033 C 
HETATM    6  C   UNL     1      66.718   5.212   6.218  1.00  0.00     0.033 C 
ENDROOT
BRANCH   2   7
HETATM    7  C   UNL     1      66.449   7.723   6.413  1.00  0.00     0.168 C 
BRANCH   7   8
HETATM    8  O   UNL     1      66.931   8.892   7.057  1.00  0.00    -0.400 OA
HETATM    9  H   UNL     1      67.670   8.659   7.642  1.00  0.00     0.209 HD
ENDBRANCH   7   8
ENDBRANCH   2   7
TORSDOF 2
ENDMDL
MODEL 7
REMARK VINA RESULT:      -3.0      4.107      5.615
REMARK  2 active torsions:
REMARK  status: ('A' for Active; 'I' for Inactive)
REMARK    1  A    between atoms: O_2  and  C_6 
REMARK    2  A    between atoms: C_3  and  C_6 
ROOT
HETATM    1  O   UNL     1      67.534   5.231   5.970  1.00  0.00    -0.391 OA
HETATM    2  C   UNL     1      66.678   7.995   6.205  1.00  0.00     0.013 C 
HETATM    3  C   UNL     1      67.443   6.036   4.794  1.00  0.00     0.168 C 
HETATM    4  C   UNL     1      66.563   5.579   6.955  1.00  0.00     0.168 C 
HETATM    5  C   UNL     1      66.741   7.027   7.396  1.00  0.00     0.033 C 
HETATM    6  C   UNL     1      67.656   7.509   5.124  1.00  0.00     0.033 C 
ENDROOT
BRANCH   2   7
HETATM    7  C   UNL     1      65.255   8.132   5.640  1.00  0.00     0.168 C 
BRANCH   7   8
HETATM    8  O   UNL     1      64.842   9.490   5.641  1.00  0.00    -0.400 OA
HETATM    9  H   UNL     1      64.976   9.869   6.525  1.00  0.00     0.209 HD
ENDBRANCH   7   8
ENDBRANCH   2   7
TORSDOF 2
ENDMDL
MODEL 8
REMARK VINA RESULT:      -3.0      1.231      3.526
REMARK  2 active torsions:
REMARK  status: ('A' for Active; 'I' for Inactive)
REMARK    1  A    between atoms: O_2  and  C_6 
REMARK    2  A    between atoms: C_3  and  C_6 
ROOT
HETATM    1  O   UNL     1      62.425   6.725   5.096  1.00  0.00    -0.391 OA
HETATM    2  C   UNL     1      62.847   9.169   3.587  1.00  0.00     0.013 C 
HETATM    3  C   UNL     1      61.330   7.306   4.389  1.00  0.00     0.168 C 
HETATM    4  C   UNL     1      63.345   7.698   5.587  1.00  0.00     0.168 C 
HETATM    5  C   UNL     1      63.939   8.504   4.438  1.00  0.00     0.033 C 
HETATM    6  C   UNL     1      61.819   8.101   3.183  1.00  0.00     0.033 C 
ENDROOT
BRANCH   2   7
HETATM    7  C   UNL     1      62.168  10.337   4.320  1.00  0.00     0.168 C 
BRANCH   7   8
HETATM    8  O   UNL     1      61.332  11.068   3.435  1.00  0.00    -0.400 OA
HETATM    9  H   UNL     1      61.806  11.235   2.604  1.00  0.00     0.209 HD
ENDBRANCH   7   8
ENDBRANCH   2   7
TORSDOF 2
ENDMDL
MODEL 9
REMARK VINA RESULT:      -3.0     10.759     12.555
REMARK  2 active torsions:
REMARK  status: ('A' for Active; 'I' for Inactive)
REMARK    1  A    between atoms: O_2  and  C_6 
REMARK    2  A    between atoms: C_3  and  C_6 
ROOT
HETATM    1  O   UNL     1      58.556  -0.693  13.743  1.00  0.00    -0.391 OA
HETATM    2  C   UNL     1      59.132   1.985  12.781  1.00  0.00     0.013 C 
HETATM    3  C   UNL     1      58.903  -0.504  12.371  1.00  0.00     0.168 C 
HETATM    4  C   UNL     1      57.842   0.414  14.290  1.00  0.00     0.168 C 
HETATM    5  C   UNL     1      58.681   1.684  14.218  1.00  0.00     0.033 C 
HETATM    6  C   UNL     1      59.789   0.725  12.197  1.00  0.00     0.033 C 
ENDROOT
BRANCH   2   7
HETATM    7  C   UNL     1      57.971   2.462  11.894  1.00  0.00     0.168 C 
BRANCH   7   8
HETATM    8  O   UNL     1      58.354   3.598  11.132  1.00  0.00    -0.400 OA
HETATM    9  H   UNL     1      58.024   3.506  10.224  1.00  0.00     0.209 HD
ENDBRANCH   7   8
ENDBRANCH   2   7
TORSDOF 2
ENDMDL
