MODEL 1
REMARK VINA RESULT:      -5.1      0.000      0.000
REMARK  2 active torsions:
REMARK  status: ('A' for Active; 'I' for Inactive)
REMARK    1  A    between atoms: C_5  and  C_9 
REMARK    2  A    between atoms: O_7  and  C_9 
ROOT
HETATM    1  O   UNL     1      62.388  10.399   3.797  1.00  0.00    -0.340 OA
HETATM    2  N   UNL     1      63.326   7.695   4.391  1.00  0.00    -0.385 N 
HETATM    3  C   UNL     1      62.388   9.391   2.859  1.00  0.00     0.095 A 
HETATM    4  C   UNL     1      62.869   8.093   3.121  1.00  0.00     0.061 A 
HETATM    5  C   UNL     1      63.285  10.117   4.891  1.00  0.00     0.170 C 
HETATM    6  C   UNL     1      63.066   8.698   5.429  1.00  0.00     0.154 C 
HETATM    7  C   UNL     1      61.876   9.721   1.603  1.00  0.00     0.039 A 
HETATM    8  C   UNL     1      62.867   7.156   2.080  1.00  0.00     0.032 A 
HETATM    9  C   UNL     1      61.861   8.770   0.584  1.00  0.00     0.003 A 
HETATM   10  C   UNL     1      62.362   7.490   0.820  1.00  0.00     0.002 A 
HETATM   11  H   UNL     1      63.774   6.835   4.564  1.00  0.00     0.159 HD
ENDROOT
BRANCH   5  12
HETATM   12  C   UNL     1      63.037  11.168   5.979  1.00  0.00     0.198 C 
BRANCH  12  13
HETATM   13  O   UNL     1      64.253  11.686   6.517  1.00  0.00    -0.398 OA
HETATM   14  H   UNL     1      64.315  12.634   6.323  1.00  0.00     0.209 HD
ENDBRANCH  12  13
ENDBRANCH   5  12
TORSDOF 2
ENDMDL
MODEL 2
REMARK VINA RESULT:      -5.1      2.245      3.279
REMARK  2 active torsions:
REMARK  status: ('A' for Active; 'I' for Inactive)
REMARK    1  A    between atoms: C_5  and  C_9 
REMARK    2  A    between atoms: O_7  and  C_9 
ROOT
HETATM    1  O   UNL     1      64.661   9.474   5.402  1.00  0.00    -0.340 OA
HETATM    2  N   UNL     1      62.839   8.261   3.463  1.00  0.00    -0.385 N 
HETATM    3  C   UNL     1      64.947   8.293   4.753  1.00  0.00     0.095 A 
HETATM    4  C   UNL     1      64.064   7.680   3.842  1.00  0.00     0.061 A 
HETATM    5  C   UNL     1      63.250   9.775   5.375  1.00  0.00     0.170 C 
HETATM    6  C   UNL     1      62.684   9.634   3.958  1.00  0.00     0.154 C 
HETATM    7  C   UNL     1      66.184   7.717   5.045  1.00  0.00     0.039 A 
HETATM    8  C   UNL     1      64.434   6.455   3.275  1.00  0.00     0.032 A 
HETATM    9  C   UNL     1      66.546   6.507   4.454  1.00  0.00     0.003 A 
HETATM   10  C   UNL     1      65.670   5.873   3.574  1.00  0.00     0.002 A 
HETATM   11  H   UNL     1      62.159   7.795   2.924  1.00  0.00     0.159 HD
ENDROOT
BRANCH   5  12
HETATM   12  C   UNL     1      63.068  11.202   5.905  1.00  0.00     0.198 C 
BRANCH  12  13
HETATM   13  O   UNL     1      64.254  11.707   6.516  1.00  0.00    -0.398 OA
HETATM   14  H   UNL     1      64.025  12.427   7.124  1.00  0.00     0.209 HD
ENDBRANCH  12  13
ENDBRANCH   5  12
TORSDOF 2
ENDMDL
MODEL 3
REMARK VINA RESULT:      -5.1      2.275      3.372
REMARK  2 active torsions:
REMARK  status: ('A' for Active; 'I' for Inactive)
REMARK    1  A    between atoms: C_5  and  C_9 
REMARK    2  A    between atoms: O_7  and  C_9 
ROOT
HETATM    1  O   UNL     1      64.877   9.121   5.890  1.00  0.00    -0.340 OA
HETATM    2  N   UNL     1      64.088   7.348   3.703  1.00  0.00    -0.385 N 
HETATM    3  C   UNL     1      63.861   9.431   5.013  1.00  0.00     0.095 A 
HETATM    4  C   UNL     1      63.493   8.603   3.936  1.00  0.00     0.061 A 
HETATM    5  C   UNL     1      65.762   8.115   5.354  1.00  0.00     0.170 C 
HETATM    6  C   UNL     1      64.970   6.927   4.797  1.00  0.00     0.154 C 
HETATM    7  C   UNL     1      63.195  10.634   5.248  1.00  0.00     0.039 A 
HETATM    8  C   UNL     1      62.476   9.037   3.076  1.00  0.00     0.032 A 
HETATM    9  C   UNL     1      62.169  11.041   4.396  1.00  0.00     0.003 A 
HETATM   10  C   UNL     1      61.814  10.246   3.306  1.00  0.00     0.002 A 
HETATM   11  H   UNL     1      63.929   6.812   2.892  1.00  0.00     0.159 HD
ENDROOT
BRANCH   5  12
HETATM   12  C   UNL     1      66.704   7.675   6.482  1.00  0.00     0.198 C 
BRANCH  12  13
HETATM   13  O   UNL     1      67.037   8.749   7.358  1.00  0.00    -0.398 OA
HETATM   14  H   UNL     1      67.642   9.359   6.908  1.00  0.00     0.209 HD
ENDBRANCH  12  13
ENDBRANCH   5  12
TORSDOF 2
ENDMDL
MODEL 4
REMARK VINA RESULT:      -4.9      1.563      2.230
REMARK  2 active torsions:
REMARK  status: ('A' for Active; 'I' for Inactive)
REMARK    1  A    between atoms: C_5  and  C_9 
REMARK    2  A    between atoms: O_7  and  C_9 
ROOT
HETATM    1  O   UNL     1      63.112   9.305   4.047  1.00  0.00    -0.340 OA
HETATM    2  N   UNL     1      61.354  10.639   2.129  1.00  0.00    -0.385 N 
HETATM    3  C   UNL     1      62.726   8.719   2.862  1.00  0.00     0.095 A 
HETATM    4  C   UNL     1      61.853   9.336   1.945  1.00  0.00     0.061 A 
HETATM    5  C   UNL     1      62.229  10.381   4.428  1.00  0.00     0.170 C 
HETATM    6  C   UNL     1      61.988  11.337   3.254  1.00  0.00     0.154 C 
HETATM    7  C   UNL     1      63.253   7.454   2.603  1.00  0.00     0.039 A 
HETATM    8  C   UNL     1      61.487   8.631   0.791  1.00  0.00     0.032 A 
HETATM    9  C   UNL     1      62.896   6.774   1.439  1.00  0.00     0.003 A 
HETATM   10  C   UNL     1      62.009   7.359   0.536  1.00  0.00     0.002 A 
HETATM   11  H   UNL     1      60.654  11.040   1.564  1.00  0.00     0.159 HD
ENDROOT
BRANCH   5  12
HETATM   12  C   UNL     1      62.870  11.111   5.614  1.00  0.00     0.198 C 
BRANCH  12  13
HETATM   13  O   UNL     1      64.181  10.629   5.901  1.00  0.00    -0.398 OA
HETATM   14  H   UNL     1      64.453  10.932   6.781  1.00  0.00     0.209 HD
ENDBRANCH  12  13
ENDBRANCH   5  12
TORSDOF 2
ENDMDL
MODEL 5
REMARK VINA RESULT:      -4.4      4.828      6.675
REMARK  2 active torsions:
REMARK  status: ('A' for Active; 'I' for Inactive)
REMARK    1  A    between atoms: C_5  and  C_9 
REMARK    2  A    between atoms: O_7  and  C_9 
ROOT
HETATM    1  O   UNL     1      65.682   7.687   6.993  1.00  0.00    -0.340 OA
HETATM    2  N   UNL     1      67.176   5.866   5.262  1.00  0.00    -0.385 N 
HETATM    3  C   UNL     1      66.502   6.698   7.488  1.00  0.00     0.095 A 
HETATM    4  C   UNL     1      67.201   5.792   6.667  1.00  0.00     0.061 A 
HETATM    5  C   UNL     1      65.298   7.434   5.625  1.00  0.00     0.170 C 
HETATM    6  C   UNL     1      66.519   7.081   4.768  1.00  0.00     0.154 C 
HETATM    7  C   UNL     1      66.613   6.633   8.878  1.00  0.00     0.039 A 
HETATM    8  C   UNL     1      67.970   4.793   7.277  1.00  0.00     0.032 A 
HETATM    9  C   UNL     1      67.401   5.646   9.468  1.00  0.00     0.003 A 
HETATM   10  C   UNL     1      68.075   4.723   8.669  1.00  0.00     0.002 A 
HETATM   11  H   UNL     1      67.558   5.175   4.673  1.00  0.00     0.159 HD
ENDROOT
BRANCH   5  12
HETATM   12  C   UNL     1      64.594   8.690   5.098  1.00  0.00     0.198 C 
BRANCH  12  13
HETATM   13  O   UNL     1      64.867   9.838   5.899  1.00  0.00    -0.398 OA
HETATM   14  H   UNL     1      65.701  10.242   5.614  1.00  0.00     0.209 HD
ENDBRANCH  12  13
ENDBRANCH   5  12
TORSDOF 2
ENDMDL
MODEL 6
REMARK VINA RESULT:      -4.3      2.785      4.185
REMARK  2 active torsions:
REMARK  status: ('A' for Active; 'I' for Inactive)
REMARK    1  A    between atoms: C_5  and  C_9 
REMARK    2  A    between atoms: O_7  and  C_9 
ROOT
HETATM    1  O   UNL     1      63.458   7.569   3.471  1.00  0.00    -0.340 OA
HETATM    2  N   UNL     1      64.619   9.179   5.616  1.00  0.00    -0.385 N 
HETATM    3  C   UNL     1      64.705   7.316   3.996  1.00  0.00     0.095 A 
HETATM    4  C   UNL     1      65.292   8.104   5.005  1.00  0.00     0.061 A 
HETATM    5  C   UNL     1      63.018   8.914   3.750  1.00  0.00     0.170 C 
HETATM    6  C   UNL     1      63.206   9.258   5.232  1.00  0.00     0.154 C 
HETATM    7  C   UNL     1      65.381   6.214   3.469  1.00  0.00     0.039 A 
HETATM    8  C   UNL     1      66.587   7.787   5.434  1.00  0.00     0.032 A 
HETATM    9  C   UNL     1      66.661   5.899   3.923  1.00  0.00     0.003 A 
HETATM   10  C   UNL     1      67.267   6.688   4.900  1.00  0.00     0.002 A 
HETATM   11  H   UNL     1      65.052   9.812   6.235  1.00  0.00     0.159 HD
ENDROOT
BRANCH   5  12
HETATM   12  C   UNL     1      61.545   9.018   3.338  1.00  0.00     0.198 C 
BRANCH  12  13
HETATM   13  O   UNL     1      60.989  10.297   3.640  1.00  0.00    -0.398 OA
HETATM   14  H   UNL     1      60.369  10.554   2.940  1.00  0.00     0.209 HD
ENDBRANCH  12  13
ENDBRANCH   5  12
TORSDOF 2
ENDMDL
MODEL 7
REMARK VINA RESULT:      -4.3      3.101      4.582
REMARK  2 active torsions:
REMARK  status: ('A' for Active; 'I' for Inactive)
REMARK    1  A    between atoms: C_5  and  C_9 
REMARK    2  A    between atoms: O_7  and  C_9 
ROOT
HETATM    1  O   UNL     1      64.819   9.014   4.784  1.00  0.00    -0.340 OA
HETATM    2  N   UNL     1      63.668   7.062   6.631  1.00  0.00    -0.385 N 
HETATM    3  C   UNL     1      65.568   8.022   5.377  1.00  0.00     0.095 A 
HETATM    4  C   UNL     1      65.034   7.097   6.294  1.00  0.00     0.061 A 
HETATM    5  C   UNL     1      63.588   9.258   5.497  1.00  0.00     0.170 C 
HETATM    6  C   UNL     1      62.853   7.946   5.790  1.00  0.00     0.154 C 
HETATM    7  C   UNL     1      66.915   7.973   5.018  1.00  0.00     0.039 A 
HETATM    8  C   UNL     1      65.895   6.158   6.876  1.00  0.00     0.032 A 
HETATM    9  C   UNL     1      67.755   7.018   5.589  1.00  0.00     0.003 A 
HETATM   10  C   UNL     1      67.247   6.114   6.521  1.00  0.00     0.002 A 
HETATM   11  H   UNL     1      63.299   6.505   7.355  1.00  0.00     0.159 HD
ENDROOT
BRANCH   5  12
HETATM   12  C   UNL     1      62.731  10.195   4.637  1.00  0.00     0.198 C 
BRANCH  12  13
HETATM   13  O   UNL     1      62.686  11.521   5.163  1.00  0.00    -0.398 OA
HETATM   14  H   UNL     1      61.879  11.963   4.858  1.00  0.00     0.209 HD
ENDBRANCH  12  13
ENDBRANCH   5  12
TORSDOF 2
ENDMDL
MODEL 8
REMARK VINA RESULT:      -4.2      2.411      3.451
REMARK  2 active torsions:
REMARK  status: ('A' for Active; 'I' for Inactive)
REMARK    1  A    between atoms: C_5  and  C_9 
REMARK    2  A    between atoms: O_7  and  C_9 
ROOT
HETATM    1  O   UNL     1      63.355   7.353   3.361  1.00  0.00    -0.340 OA
HETATM    2  N   UNL     1      63.181   9.245   5.583  1.00  0.00    -0.385 N 
HETATM    3  C   UNL     1      62.833   8.619   3.218  1.00  0.00     0.095 A 
HETATM    4  C   UNL     1      62.712   9.529   4.287  1.00  0.00     0.061 A 
HETATM    5  C   UNL     1      63.366   6.928   4.740  1.00  0.00     0.170 C 
HETATM    6  C   UNL     1      63.968   8.008   5.645  1.00  0.00     0.154 C 
HETATM    7  C   UNL     1      62.420   8.970   1.933  1.00  0.00     0.039 A 
HETATM    8  C   UNL     1      62.122  10.775   4.041  1.00  0.00     0.032 A 
HETATM    9  C   UNL     1      61.855  10.223   1.700  1.00  0.00     0.003 A 
HETATM   10  C   UNL     1      61.700  11.123   2.754  1.00  0.00     0.002 A 
HETATM   11  H   UNL     1      63.000   9.816   6.365  1.00  0.00     0.159 HD
ENDROOT
BRANCH   5  12
HETATM   12  C   UNL     1      64.172   5.625   4.820  1.00  0.00     0.198 C 
BRANCH  12  13
HETATM   13  O   UNL     1      65.544   5.817   4.483  1.00  0.00    -0.398 OA
HETATM   14  H   UNL     1      65.612   6.149   3.574  1.00  0.00     0.209 HD
ENDBRANCH  12  13
ENDBRANCH   5  12
TORSDOF 2
ENDMDL
MODEL 9
REMARK VINA RESULT:      -4.2      2.125      4.438
REMARK  2 active torsions:
REMARK  status: ('A' for Active; 'I' for Inactive)
REMARK    1  A    between atoms: C_5  and  C_9 
REMARK    2  A    between atoms: O_7  and  C_9 
ROOT
HETATM    1  O   UNL     1      61.103   9.189   2.319  1.00  0.00    -0.340 OA
HETATM    2  N   UNL     1      63.149   7.102   2.335  1.00  0.00    -0.385 N 
HETATM    3  C   UNL     1      62.124   9.158   3.243  1.00  0.00     0.095 A 
HETATM    4  C   UNL     1      63.096   8.140   3.283  1.00  0.00     0.061 A 
HETATM    5  C   UNL     1      60.897   7.902   1.701  1.00  0.00     0.170 C 
HETATM    6  C   UNL     1      62.223   7.307   1.215  1.00  0.00     0.154 C 
HETATM    7  C   UNL     1      62.152  10.209   4.161  1.00  0.00     0.039 A 
HETATM    8  C   UNL     1      64.063   8.179   4.295  1.00  0.00     0.032 A 
HETATM    9  C   UNL     1      63.136  10.245   5.148  1.00  0.00     0.003 A 
HETATM   10  C   UNL     1      64.087   9.228   5.220  1.00  0.00     0.002 A 
HETATM   11  H   UNL     1      63.744   6.321   2.415  1.00  0.00     0.159 HD
ENDROOT
BRANCH   5  12
HETATM   12  C   UNL     1      59.917   8.096   0.537  1.00  0.00     0.198 C 
BRANCH  12  13
HETATM   13  O   UNL     1      58.645   8.571   0.975  1.00  0.00    -0.398 OA
HETATM   14  H   UNL     1      58.731   8.956   1.861  1.00  0.00     0.209 HD
ENDBRANCH  12  13
ENDBRANCH   5  12
TORSDOF 2
ENDMDL
