MODEL 1
REMARK VINA RESULT:      -5.2      0.000      0.000
REMARK  3 active torsions:
REMARK  status: ('A' for Active; 'I' for Inactive)
REMARK    1  A    between atoms: C_3  and  C_7 
REMARK    2  A    between atoms: C_5  and  C_8 
REMARK    3  A    between atoms: C_8  and  O_10 
ROOT
HETATM    1  N   UNL     1      62.035   7.251   5.103  1.00  0.00    -0.353 N 
ATOM      2  HN  UNL     1      61.058   7.154   4.824  1.00  0.00     0.166 HD
HETATM    3  C   UNL     1      62.831   8.226   4.710  1.00  0.00     0.085 A 
HETATM    4  S   UNL     1      64.439   8.115   5.316  1.00  0.00    -0.072 SA
HETATM    5  C   UNL     1      64.035   6.684   6.165  1.00  0.00     0.030 A 
HETATM    6  C   UNL     1      62.704   6.374   5.946  1.00  0.00     0.021 A 
HETATM    7  C   UNL     1      61.937   5.226   6.498  1.00  0.00     0.069 C 
ENDROOT
BRANCH   3   8
HETATM    8  C   UNL     1      62.444   9.296   3.775  1.00  0.00    -0.002 A 
HETATM    9  C   UNL     1      62.200  10.615   4.190  1.00  0.00     0.014 A 
HETATM   10  C   UNL     1      61.870  11.610   3.264  1.00  0.00     0.001 A 
HETATM   11  C   UNL     1      61.772  11.298   1.910  1.00  0.00     0.000 A 
HETATM   12  C   UNL     1      61.987   9.990   1.482  1.00  0.00     0.001 A 
HETATM   13  C   UNL     1      62.314   8.996   2.409  1.00  0.00     0.014 A 
ENDBRANCH   3   8
BRANCH   5  14
HETATM   14  C   UNL     1      65.063   5.972   6.970  1.00  0.00     0.212 C 
BRANCH  14  15
HETATM   15  O   UNL     1      65.397   6.797   8.078  1.00  0.00    -0.396 OA
HETATM   16  H   UNL     1      64.673   6.779   8.724  1.00  0.00     0.209 HD
ENDBRANCH  14  15
ENDBRANCH   5  14
TORSDOF 3
ENDMDL
MODEL 2
REMARK VINA RESULT:      -5.1      1.855      2.510
REMARK  3 active torsions:
REMARK  status: ('A' for Active; 'I' for Inactive)
REMARK    1  A    between atoms: C_3  and  C_7 
REMARK    2  A    between atoms: C_5  and  C_8 
REMARK    3  A    between atoms: C_8  and  O_10 
ROOT
HETATM    1  N   UNL     1      65.703   7.992   5.204  1.00  0.00    -0.353 N 
ATOM      2  HN  UNL     1      66.247   8.703   4.715  1.00  0.00     0.166 HD
HETATM    3  C   UNL     1      64.386   7.959   5.252  1.00  0.00     0.085 A 
HETATM    4  S   UNL     1      63.743   6.657   6.178  1.00  0.00    -0.072 SA
HETATM    5  C   UNL     1      65.326   6.099   6.518  1.00  0.00     0.030 A 
HETATM    6  C   UNL     1      66.252   6.928   5.908  1.00  0.00     0.021 A 
HETATM    7  C   UNL     1      67.733   6.805   5.931  1.00  0.00     0.069 C 
ENDROOT
BRANCH   3   8
HETATM    8  C   UNL     1      63.502   8.970   4.647  1.00  0.00    -0.002 A 
HETATM    9  C   UNL     1      63.191  10.184   5.280  1.00  0.00     0.014 A 
HETATM   10  C   UNL     1      62.376  11.132   4.655  1.00  0.00     0.001 A 
HETATM   11  C   UNL     1      61.853  10.877   3.389  1.00  0.00     0.000 A 
HETATM   12  C   UNL     1      62.130   9.668   2.755  1.00  0.00     0.001 A 
HETATM   13  C   UNL     1      62.943   8.720   3.382  1.00  0.00     0.014 A 
ENDBRANCH   3   8
BRANCH   5  14
HETATM   14  C   UNL     1      65.532   4.898   7.371  1.00  0.00     0.212 C 
BRANCH  14  15
HETATM   15  O   UNL     1      65.976   5.342   8.646  1.00  0.00    -0.396 OA
HETATM   16  H   UNL     1      66.942   5.276   8.694  1.00  0.00     0.209 HD
ENDBRANCH  14  15
ENDBRANCH   5  14
TORSDOF 3
ENDMDL
MODEL 3
REMARK VINA RESULT:      -4.9      1.611      2.366
REMARK  3 active torsions:
REMARK  status: ('A' for Active; 'I' for Inactive)
REMARK    1  A    between atoms: C_3  and  C_7 
REMARK    2  A    between atoms: C_5  and  C_8 
REMARK    3  A    between atoms: C_8  and  O_10 
ROOT
HETATM    1  N   UNL     1      63.997   6.503   5.811  1.00  0.00    -0.353 N 
ATOM      2  HN  UNL     1      63.081   6.098   5.619  1.00  0.00     0.166 HD
HETATM    3  C   UNL     1      64.375   7.710   5.437  1.00  0.00     0.085 A 
HETATM    4  S   UNL     1      65.991   8.114   5.873  1.00  0.00    -0.072 SA
HETATM    5  C   UNL     1      66.186   6.585   6.620  1.00  0.00     0.030 A 
HETATM    6  C   UNL     1      65.015   5.857   6.500  1.00  0.00     0.021 A 
HETATM    7  C   UNL     1      64.740   4.489   7.014  1.00  0.00     0.069 C 
ENDROOT
BRANCH   3   8
HETATM    8  C   UNL     1      63.547   8.637   4.647  1.00  0.00    -0.002 A 
HETATM    9  C   UNL     1      63.088   8.333   3.355  1.00  0.00     0.014 A 
HETATM   10  C   UNL     1      62.274   9.228   2.653  1.00  0.00     0.001 A 
HETATM   11  C   UNL     1      61.913  10.444   3.230  1.00  0.00     0.000 A 
HETATM   12  C   UNL     1      62.380  10.774   4.500  1.00  0.00     0.001 A 
HETATM   13  C   UNL     1      63.195   9.880   5.200  1.00  0.00     0.014 A 
ENDBRANCH   3   8
BRANCH   5  14
HETATM   14  C   UNL     1      67.481   6.217   7.252  1.00  0.00     0.212 C 
BRANCH  14  15
HETATM   15  O   UNL     1      67.621   6.990   8.437  1.00  0.00    -0.396 OA
HETATM   16  H   UNL     1      67.665   7.931   8.205  1.00  0.00     0.209 HD
ENDBRANCH  14  15
ENDBRANCH   5  14
TORSDOF 3
ENDMDL
MODEL 4
REMARK VINA RESULT:      -4.8      2.765      5.811
REMARK  3 active torsions:
REMARK  status: ('A' for Active; 'I' for Inactive)
REMARK    1  A    between atoms: C_3  and  C_7 
REMARK    2  A    between atoms: C_5  and  C_8 
REMARK    3  A    between atoms: C_8  and  O_10 
ROOT
HETATM    1  N   UNL     1      64.061   9.547   5.474  1.00  0.00    -0.353 N 
ATOM      2  HN  UNL     1      64.468  10.079   6.244  1.00  0.00     0.166 HD
HETATM    3  C   UNL     1      64.462   8.349   5.099  1.00  0.00     0.085 A 
HETATM    4  S   UNL     1      63.609   7.707   3.747  1.00  0.00    -0.072 SA
HETATM    5  C   UNL     1      62.637   9.115   3.675  1.00  0.00     0.030 A 
HETATM    6  C   UNL     1      63.010   9.989   4.681  1.00  0.00     0.021 A 
HETATM    7  C   UNL     1      62.423  11.320   4.991  1.00  0.00     0.069 C 
ENDROOT
BRANCH   3   8
HETATM    8  C   UNL     1      65.587   7.616   5.704  1.00  0.00    -0.002 A 
HETATM    9  C   UNL     1      65.460   6.872   6.888  1.00  0.00     0.014 A 
HETATM   10  C   UNL     1      66.545   6.161   7.409  1.00  0.00     0.001 A 
HETATM   11  C   UNL     1      67.776   6.190   6.758  1.00  0.00     0.000 A 
HETATM   12  C   UNL     1      67.929   6.942   5.596  1.00  0.00     0.001 A 
HETATM   13  C   UNL     1      66.844   7.655   5.077  1.00  0.00     0.014 A 
ENDBRANCH   3   8
BRANCH   5  14
HETATM   14  C   UNL     1      61.593   9.255   2.625  1.00  0.00     0.212 C 
BRANCH  14  15
HETATM   15  O   UNL     1      60.384   8.714   3.140  1.00  0.00    -0.396 OA
HETATM   16  H   UNL     1      59.782   8.511   2.407  1.00  0.00     0.209 HD
ENDBRANCH  14  15
ENDBRANCH   5  14
TORSDOF 3
ENDMDL
MODEL 5
REMARK VINA RESULT:      -4.6      2.503      5.664
REMARK  3 active torsions:
REMARK  status: ('A' for Active; 'I' for Inactive)
REMARK    1  A    between atoms: C_3  and  C_7 
REMARK    2  A    between atoms: C_5  and  C_8 
REMARK    3  A    between atoms: C_8  and  O_10 
ROOT
HETATM    1  N   UNL     1      63.635   7.822   3.526  1.00  0.00    -0.353 N 
ATOM      2  HN  UNL     1      63.849   6.903   3.138  1.00  0.00     0.166 HD
HETATM    3  C   UNL     1      64.148   8.299   4.643  1.00  0.00     0.085 A 
HETATM    4  S   UNL     1      63.581   9.868   5.070  1.00  0.00    -0.072 SA
HETATM    5  C   UNL     1      62.604   9.912   3.664  1.00  0.00     0.030 A 
HETATM    6  C   UNL     1      62.766   8.737   2.949  1.00  0.00     0.021 A 
HETATM    7  C   UNL     1      62.119   8.361   1.664  1.00  0.00     0.069 C 
ENDROOT
BRANCH   3   8
HETATM    8  C   UNL     1      65.070   7.560   5.522  1.00  0.00    -0.002 A 
HETATM    9  C   UNL     1      64.624   6.699   6.538  1.00  0.00     0.014 A 
HETATM   10  C   UNL     1      65.534   5.988   7.328  1.00  0.00     0.001 A 
HETATM   11  C   UNL     1      66.903   6.134   7.117  1.00  0.00     0.000 A 
HETATM   12  C   UNL     1      67.365   7.002   6.131  1.00  0.00     0.001 A 
HETATM   13  C   UNL     1      66.455   7.713   5.344  1.00  0.00     0.014 A 
ENDBRANCH   3   8
BRANCH   5  14
HETATM   14  C   UNL     1      61.744  11.092   3.383  1.00  0.00     0.212 C 
BRANCH  14  15
HETATM   15  O   UNL     1      62.072  12.103   4.326  1.00  0.00    -0.396 OA
HETATM   16  H   UNL     1      62.876  12.564   4.040  1.00  0.00     0.209 HD
ENDBRANCH  14  15
ENDBRANCH   5  14
TORSDOF 3
ENDMDL
MODEL 6
REMARK VINA RESULT:      -4.4      2.031      2.709
REMARK  3 active torsions:
REMARK  status: ('A' for Active; 'I' for Inactive)
REMARK    1  A    between atoms: C_3  and  C_7 
REMARK    2  A    between atoms: C_5  and  C_8 
REMARK    3  A    between atoms: C_8  and  O_10 
ROOT
HETATM    1  N   UNL     1      64.493   6.055   4.093  1.00  0.00    -0.353 N 
ATOM      2  HN  UNL     1      64.255   5.307   3.441  1.00  0.00     0.166 HD
HETATM    3  C   UNL     1      64.063   7.297   3.995  1.00  0.00     0.085 A 
HETATM    4  S   UNL     1      64.653   8.351   5.222  1.00  0.00    -0.072 SA
HETATM    5  C   UNL     1      65.523   7.058   5.933  1.00  0.00     0.030 A 
HETATM    6  C   UNL     1      65.313   5.900   5.203  1.00  0.00     0.021 A 
HETATM    7  C   UNL     1      65.864   4.546   5.472  1.00  0.00     0.069 C 
ENDROOT
BRANCH   3   8
HETATM    8  C   UNL     1      63.212   7.804   2.904  1.00  0.00    -0.002 A 
HETATM    9  C   UNL     1      62.941   7.060   1.744  1.00  0.00     0.014 A 
HETATM   10  C   UNL     1      62.099   7.564   0.749  1.00  0.00     0.001 A 
HETATM   11  C   UNL     1      61.520   8.822   0.895  1.00  0.00     0.000 A 
HETATM   12  C   UNL     1      61.796   9.585   2.027  1.00  0.00     0.001 A 
HETATM   13  C   UNL     1      62.641   9.082   3.020  1.00  0.00     0.014 A 
ENDBRANCH   3   8
BRANCH   5  14
HETATM   14  C   UNL     1      66.354   7.287   7.145  1.00  0.00     0.212 C 
BRANCH  14  15
HETATM   15  O   UNL     1      67.180   8.416   6.897  1.00  0.00    -0.396 OA
HETATM   16  H   UNL     1      66.627   9.173   6.647  1.00  0.00     0.209 HD
ENDBRANCH  14  15
ENDBRANCH   5  14
TORSDOF 3
ENDMDL
MODEL 7
REMARK VINA RESULT:      -4.3      2.455      3.480
REMARK  3 active torsions:
REMARK  status: ('A' for Active; 'I' for Inactive)
REMARK    1  A    between atoms: C_3  and  C_7 
REMARK    2  A    between atoms: C_5  and  C_8 
REMARK    3  A    between atoms: C_8  and  O_10 
ROOT
HETATM    1  N   UNL     1      65.939   5.341   4.982  1.00  0.00    -0.353 N 
ATOM      2  HN  UNL     1      65.660   4.858   4.128  1.00  0.00     0.166 HD
HETATM    3  C   UNL     1      65.456   6.503   5.376  1.00  0.00     0.085 A 
HETATM    4  S   UNL     1      66.137   7.093   6.844  1.00  0.00    -0.072 SA
HETATM    5  C   UNL     1      67.124   5.699   6.962  1.00  0.00     0.030 A 
HETATM    6  C   UNL     1      66.879   4.864   5.885  1.00  0.00     0.021 A 
HETATM    7  C   UNL     1      67.505   3.545   5.599  1.00  0.00     0.069 C 
ENDROOT
BRANCH   3   8
HETATM    8  C   UNL     1      64.475   7.300   4.620  1.00  0.00    -0.002 A 
HETATM    9  C   UNL     1      63.976   8.528   5.083  1.00  0.00     0.014 A 
HETATM   10  C   UNL     1      63.072   9.271   4.317  1.00  0.00     0.001 A 
HETATM   11  C   UNL     1      62.648   8.793   3.079  1.00  0.00     0.000 A 
HETATM   12  C   UNL     1      63.113   7.565   2.614  1.00  0.00     0.001 A 
HETATM   13  C   UNL     1      64.014   6.822   3.381  1.00  0.00     0.014 A 
ENDBRANCH   3   8
BRANCH   5  14
HETATM   14  C   UNL     1      68.072   5.543   8.097  1.00  0.00     0.212 C 
BRANCH  14  15
HETATM   15  O   UNL     1      68.009   6.727   8.881  1.00  0.00    -0.396 OA
HETATM   16  H   UNL     1      68.177   7.498   8.317  1.00  0.00     0.209 HD
ENDBRANCH  14  15
ENDBRANCH   5  14
TORSDOF 3
ENDMDL
MODEL 8
REMARK VINA RESULT:      -4.1      4.448      5.209
REMARK  3 active torsions:
REMARK  status: ('A' for Active; 'I' for Inactive)
REMARK    1  A    between atoms: C_3  and  C_7 
REMARK    2  A    between atoms: C_5  and  C_8 
REMARK    3  A    between atoms: C_8  and  O_10 
ROOT
HETATM    1  N   UNL     1      60.028   8.384   3.325  1.00  0.00    -0.353 N 
ATOM      2  HN  UNL     1      59.600   9.051   2.683  1.00  0.00     0.166 HD
HETATM    3  C   UNL     1      59.427   7.310   3.798  1.00  0.00     0.085 A 
HETATM    4  S   UNL     1      60.385   6.384   4.889  1.00  0.00    -0.072 SA
HETATM    5  C   UNL     1      61.685   7.483   4.702  1.00  0.00     0.030 A 
HETATM    6  C   UNL     1      61.322   8.486   3.820  1.00  0.00     0.021 A 
HETATM    7  C   UNL     1      62.147   9.635   3.362  1.00  0.00     0.069 C 
ENDROOT
BRANCH   3   8
HETATM    8  C   UNL     1      58.033   6.935   3.505  1.00  0.00    -0.002 A 
HETATM    9  C   UNL     1      57.137   6.510   4.499  1.00  0.00     0.014 A 
HETATM   10  C   UNL     1      55.811   6.197   4.185  1.00  0.00     0.001 A 
HETATM   11  C   UNL     1      55.363   6.298   2.869  1.00  0.00     0.000 A 
HETATM   12  C   UNL     1      56.244   6.695   1.866  1.00  0.00     0.001 A 
HETATM   13  C   UNL     1      57.569   7.004   2.181  1.00  0.00     0.014 A 
ENDBRANCH   3   8
BRANCH   5  14
HETATM   14  C   UNL     1      62.955   7.279   5.448  1.00  0.00     0.212 C 
BRANCH  14  15
HETATM   15  O   UNL     1      62.755   7.736   6.779  1.00  0.00    -0.396 OA
HETATM   16  H   UNL     1      62.075   8.427   6.785  1.00  0.00     0.209 HD
ENDBRANCH  14  15
ENDBRANCH   5  14
TORSDOF 3
ENDMDL
MODEL 9
REMARK VINA RESULT:      -4.1      2.471      2.756
REMARK  3 active torsions:
REMARK  status: ('A' for Active; 'I' for Inactive)
REMARK    1  A    between atoms: C_3  and  C_7 
REMARK    2  A    between atoms: C_5  and  C_8 
REMARK    3  A    between atoms: C_8  and  O_10 
ROOT
HETATM    1  N   UNL     1      64.095   7.150   3.287  1.00  0.00    -0.353 N 
ATOM      2  HN  UNL     1      64.833   7.647   2.787  1.00  0.00     0.166 HD
HETATM    3  C   UNL     1      62.915   7.660   3.576  1.00  0.00     0.085 A 
HETATM    4  S   UNL     1      61.881   6.598   4.455  1.00  0.00    -0.072 SA
HETATM    5  C   UNL     1      63.086   5.382   4.429  1.00  0.00     0.030 A 
HETATM    6  C   UNL     1      64.201   5.847   3.753  1.00  0.00     0.021 A 
HETATM    7  C   UNL     1      65.468   5.117   3.484  1.00  0.00     0.069 C 
ENDROOT
BRANCH   3   8
HETATM    8  C   UNL     1      62.499   9.038   3.264  1.00  0.00    -0.002 A 
HETATM    9  C   UNL     1      62.370  10.033   4.245  1.00  0.00     0.014 A 
HETATM   10  C   UNL     1      62.007  11.339   3.901  1.00  0.00     0.001 A 
HETATM   11  C   UNL     1      61.761  11.667   2.569  1.00  0.00     0.000 A 
HETATM   12  C   UNL     1      61.859  10.687   1.584  1.00  0.00     0.001 A 
HETATM   13  C   UNL     1      62.219   9.382   1.930  1.00  0.00     0.014 A 
ENDBRANCH   3   8
BRANCH   5  14
HETATM   14  C   UNL     1      62.844   4.071   5.088  1.00  0.00     0.212 C 
BRANCH  14  15
HETATM   15  O   UNL     1      62.279   3.196   4.121  1.00  0.00    -0.396 OA
HETATM   16  H   UNL     1      61.885   3.718   3.405  1.00  0.00     0.209 HD
ENDBRANCH  14  15
ENDBRANCH   5  14
TORSDOF 3
ENDMDL
