MODEL 1
REMARK VINA RESULT:      -4.2      0.000      0.000
REMARK  1 active torsions:
REMARK  status: ('A' for Active; 'I' for Inactive)
REMARK    1  A    between atoms: C_1  and  C_4 
ROOT
HETATM    1  O   UNL     1      63.205   7.413   2.181  1.00  0.00    -0.391 OA
HETATM    2  C   UNL     1      61.856   9.811   3.015  1.00  0.00     0.091 C 
HETATM    3  C   UNL     1      62.958   7.620   3.571  1.00  0.00     0.168 C 
HETATM    4  C   UNL     1      62.168   7.951   1.362  1.00  0.00     0.168 C 
HETATM    5  C   UNL     1      62.901   9.107   3.890  1.00  0.00     0.041 C 
HETATM    6  C   UNL     1      62.073   9.458   1.542  1.00  0.00     0.041 C 
ENDROOT
BRANCH   2   7
HETATM    7  C   UNL     1      61.897  11.305   3.219  1.00  0.00     0.177 C 
HETATM    8  O   UNL     1      61.831  11.907   4.276  1.00  0.00    -0.648 OA
HETATM    9  O   UNL     1      61.958  11.986   2.056  1.00  0.00    -0.648 OA
ENDBRANCH   2   7
TORSDOF 1
ENDMDL
MODEL 2
REMARK VINA RESULT:      -4.1      1.134      1.438
REMARK  1 active torsions:
REMARK  status: ('A' for Active; 'I' for Inactive)
REMARK    1  A    between atoms: C_1  and  C_4 
ROOT
HETATM    1  O   UNL     1      62.749   8.216   1.523  1.00  0.00    -0.391 OA
HETATM    2  C   UNL     1      62.094   9.837   3.805  1.00  0.00     0.091 C 
HETATM    3  C   UNL     1      62.835   7.643   2.827  1.00  0.00     0.168 C 
HETATM    4  C   UNL     1      61.694   9.170   1.421  1.00  0.00     0.168 C 
HETATM    5  C   UNL     1      63.136   8.714   3.865  1.00  0.00     0.041 C 
HETATM    6  C   UNL     1      61.934  10.336   2.367  1.00  0.00     0.041 C 
ENDROOT
BRANCH   2   7
HETATM    7  C   UNL     1      62.467  10.972   4.726  1.00  0.00     0.177 C 
HETATM    8  O   UNL     1      63.089  10.899   5.772  1.00  0.00    -0.648 OA
HETATM    9  O   UNL     1      61.978  12.159   4.313  1.00  0.00    -0.648 OA
ENDBRANCH   2   7
TORSDOF 1
ENDMDL
MODEL 3
REMARK VINA RESULT:      -3.9      2.039      3.282
REMARK  1 active torsions:
REMARK  status: ('A' for Active; 'I' for Inactive)
REMARK    1  A    between atoms: C_1  and  C_4 
ROOT
HETATM    1  O   UNL     1      62.207  10.680   1.628  1.00  0.00    -0.391 OA
HETATM    2  C   UNL     1      62.315   9.442   4.220  1.00  0.00     0.091 C 
HETATM    3  C   UNL     1      62.048   9.265   1.726  1.00  0.00     0.168 C 
HETATM    4  C   UNL     1      61.656  11.364   2.751  1.00  0.00     0.168 C 
HETATM    5  C   UNL     1      62.782   8.727   2.947  1.00  0.00     0.041 C 
HETATM    6  C   UNL     1      62.374  10.959   4.029  1.00  0.00     0.041 C 
ENDROOT
BRANCH   2   7
HETATM    7  C   UNL     1      63.140   9.021   5.411  1.00  0.00     0.177 C 
HETATM    8  O   UNL     1      62.831   8.219   6.276  1.00  0.00    -0.648 OA
HETATM    9  O   UNL     1      64.311   9.684   5.492  1.00  0.00    -0.648 OA
ENDBRANCH   2   7
TORSDOF 1
ENDMDL
MODEL 4
REMARK VINA RESULT:      -3.7      1.663      2.289
REMARK  1 active torsions:
REMARK  status: ('A' for Active; 'I' for Inactive)
REMARK    1  A    between atoms: C_1  and  C_4 
ROOT
HETATM    1  O   UNL     1      61.909   7.317   5.178  1.00  0.00    -0.391 OA
HETATM    2  C   UNL     1      62.365   9.648   3.558  1.00  0.00     0.091 C 
HETATM    3  C   UNL     1      61.457   7.319   3.825  1.00  0.00     0.168 C 
HETATM    4  C   UNL     1      63.117   8.057   5.344  1.00  0.00     0.168 C 
HETATM    5  C   UNL     1      61.148   8.736   3.364  1.00  0.00     0.041 C 
HETATM    6  C   UNL     1      62.903   9.519   4.985  1.00  0.00     0.041 C 
ENDROOT
BRANCH   2   7
HETATM    7  C   UNL     1      62.022  11.083   3.243  1.00  0.00     0.177 C 
HETATM    8  O   UNL     1      61.904  12.004   4.033  1.00  0.00    -0.648 OA
HETATM    9  O   UNL     1      61.781  11.283   1.932  1.00  0.00    -0.648 OA
ENDBRANCH   2   7
TORSDOF 1
ENDMDL
MODEL 5
REMARK VINA RESULT:      -3.6      5.984      7.258
REMARK  1 active torsions:
REMARK  status: ('A' for Active; 'I' for Inactive)
REMARK    1  A    between atoms: C_1  and  C_4 
ROOT
HETATM    1  O   UNL     1      66.377   4.511   8.399  1.00  0.00    -0.391 OA
HETATM    2  C   UNL     1      67.244   6.750   6.819  1.00  0.00     0.091 C 
HETATM    3  C   UNL     1      66.725   4.299   7.032  1.00  0.00     0.168 C 
HETATM    4  C   UNL     1      67.170   5.529   9.007  1.00  0.00     0.168 C 
HETATM    5  C   UNL     1      66.485   5.561   6.216  1.00  0.00     0.041 C 
HETATM    6  C   UNL     1      66.948   6.865   8.316  1.00  0.00     0.041 C 
ENDROOT
BRANCH   2   7
HETATM    7  C   UNL     1      66.895   8.033   6.105  1.00  0.00     0.177 C 
HETATM    8  O   UNL     1      66.058   8.856   6.433  1.00  0.00    -0.648 OA
HETATM    9  O   UNL     1      67.586   8.193   4.958  1.00  0.00    -0.648 OA
ENDBRANCH   2   7
TORSDOF 1
ENDMDL
MODEL 6
REMARK VINA RESULT:      -3.4      2.447      3.410
REMARK  1 active torsions:
REMARK  status: ('A' for Active; 'I' for Inactive)
REMARK    1  A    between atoms: C_1  and  C_4 
ROOT
HETATM    1  O   UNL     1      61.768   7.713   2.494  1.00  0.00    -0.391 OA
HETATM    2  C   UNL     1      63.596   8.165   4.666  1.00  0.00     0.091 C 
HETATM    3  C   UNL     1      62.631   6.654   2.903  1.00  0.00     0.168 C 
HETATM    4  C   UNL     1      61.363   8.533   3.588  1.00  0.00     0.168 C 
HETATM    5  C   UNL     1      63.912   7.209   3.510  1.00  0.00     0.041 C 
HETATM    6  C   UNL     1      62.566   9.208   4.226  1.00  0.00     0.041 C 
ENDROOT
BRANCH   2   7
HETATM    7  C   UNL     1      64.850   8.832   5.175  1.00  0.00     0.177 C 
HETATM    8  O   UNL     1      65.996   8.431   5.065  1.00  0.00    -0.648 OA
HETATM    9  O   UNL     1      64.593   9.963   5.864  1.00  0.00    -0.648 OA
ENDBRANCH   2   7
TORSDOF 1
ENDMDL
MODEL 7
REMARK VINA RESULT:      -3.1      3.362      4.245
REMARK  1 active torsions:
REMARK  status: ('A' for Active; 'I' for Inactive)
REMARK    1  A    between atoms: C_1  and  C_4 
ROOT
HETATM    1  O   UNL     1      67.023   5.897   3.635  1.00  0.00    -0.391 OA
HETATM    2  C   UNL     1      65.081   7.572   4.935  1.00  0.00     0.091 C 
HETATM    3  C   UNL     1      67.343   6.474   4.900  1.00  0.00     0.168 C 
HETATM    4  C   UNL     1      65.638   5.576   3.522  1.00  0.00     0.168 C 
HETATM    5  C   UNL     1      66.591   7.783   5.099  1.00  0.00     0.041 C 
HETATM    6  C   UNL     1      64.787   6.832   3.628  1.00  0.00     0.041 C 
ENDROOT
BRANCH   2   7
HETATM    7  C   UNL     1      64.343   8.887   4.983  1.00  0.00     0.177 C 
HETATM    8  O   UNL     1      64.528   9.809   5.759  1.00  0.00    -0.648 OA
HETATM    9  O   UNL     1      63.347   8.956   4.076  1.00  0.00    -0.648 OA
ENDBRANCH   2   7
TORSDOF 1
ENDMDL
MODEL 8
REMARK VINA RESULT:      -3.1      5.365      7.032
REMARK  1 active torsions:
REMARK  status: ('A' for Active; 'I' for Inactive)
REMARK    1  A    between atoms: C_1  and  C_4 
ROOT
HETATM    1  O   UNL     1      65.020   7.241   4.806  1.00  0.00    -0.391 OA
HETATM    2  C   UNL     1      65.582   6.629   7.558  1.00  0.00     0.091 C 
HETATM    3  C   UNL     1      64.083   6.460   5.546  1.00  0.00     0.168 C 
HETATM    4  C   UNL     1      65.672   8.215   5.619  1.00  0.00     0.168 C 
HETATM    5  C   UNL     1      64.786   5.683   6.650  1.00  0.00     0.041 C 
HETATM    6  C   UNL     1      66.478   7.542   6.719  1.00  0.00     0.041 C 
ENDROOT
BRANCH   2   7
HETATM    7  C   UNL     1      66.399   5.854   8.563  1.00  0.00     0.177 C 
HETATM    8  O   UNL     1      66.364   4.654   8.774  1.00  0.00    -0.648 OA
HETATM    9  O   UNL     1      67.192   6.649   9.310  1.00  0.00    -0.648 OA
ENDBRANCH   2   7
TORSDOF 1
ENDMDL
MODEL 9
REMARK VINA RESULT:      -3.1      4.859      6.776
REMARK  1 active torsions:
REMARK  status: ('A' for Active; 'I' for Inactive)
REMARK    1  A    between atoms: C_1  and  C_4 
ROOT
HETATM    1  O   UNL     1      65.631   8.892   6.069  1.00  0.00    -0.391 OA
HETATM    2  C   UNL     1      65.775   6.031   6.313  1.00  0.00     0.091 C 
HETATM    3  C   UNL     1      66.827   8.300   6.573  1.00  0.00     0.168 C 
HETATM    4  C   UNL     1      64.996   8.075   5.088  1.00  0.00     0.168 C 
HETATM    5  C   UNL     1      66.523   6.977   7.261  1.00  0.00     0.041 C 
HETATM    6  C   UNL     1      64.573   6.745   5.691  1.00  0.00     0.041 C 
ENDROOT
BRANCH   2   7
HETATM    7  C   UNL     1      65.340   4.777   7.031  1.00  0.00     0.177 C 
HETATM    8  O   UNL     1      65.598   4.457   8.179  1.00  0.00    -0.648 OA
HETATM    9  O   UNL     1      64.639   3.942   6.239  1.00  0.00    -0.648 OA
ENDBRANCH   2   7
TORSDOF 1
ENDMDL
