MODEL 1
REMARK VINA RESULT:      -5.3      0.000      0.000
REMARK  3 active torsions:
REMARK  status: ('A' for Active; 'I' for Inactive)
REMARK    1  A    between atoms: C_3  and  C_7 
REMARK    2  A    between atoms: C_5  and  C_8 
REMARK    3  A    between atoms: C_8  and  N_9 
ROOT
HETATM    1  N   UNL     1      65.720   7.899   5.064  1.00  0.00    -0.353 N 
ATOM      2  HN  UNL     1      66.265   8.580   4.536  1.00  0.00     0.166 HD
HETATM    3  C   UNL     1      64.405   7.901   5.153  1.00  0.00     0.085 A 
HETATM    4  S   UNL     1      63.754   6.628   6.113  1.00  0.00    -0.072 SA
HETATM    5  C   UNL     1      65.336   6.056   6.446  1.00  0.00     0.032 A 
HETATM    6  C   UNL     1      66.263   6.845   5.786  1.00  0.00     0.021 A 
HETATM    7  C   UNL     1      67.744   6.705   5.796  1.00  0.00     0.069 C 
ENDROOT
BRANCH   3   8
HETATM    8  C   UNL     1      63.531   8.925   4.557  1.00  0.00    -0.002 A 
HETATM    9  C   UNL     1      62.915   8.764   3.305  1.00  0.00     0.014 A 
HETATM   10  C   UNL     1      62.075   9.752   2.787  1.00  0.00     0.001 A 
HETATM   11  C   UNL     1      61.841  10.920   3.509  1.00  0.00     0.000 A 
HETATM   12  C   UNL     1      62.452  11.104   4.745  1.00  0.00     0.001 A 
HETATM   13  C   UNL     1      63.296  10.116   5.262  1.00  0.00     0.014 A 
ENDBRANCH   3   8
BRANCH   5  14
HETATM   14  C   UNL     1      65.532   4.875   7.345  1.00  0.00     0.279 C 
BRANCH  14  15
HETATM   15  N   UNL     1      66.180   5.223   8.615  1.00  0.00    -0.075 N 
HETATM   16  C   UNL     1      67.451   4.530   8.801  1.00  0.00     0.267 C 
HETATM   17  H   UNL     1      65.555   4.971   9.381  1.00  0.00     0.277 HD
HETATM   18  H   UNL     1      66.371   6.225   8.602  1.00  0.00     0.277 HD
ENDBRANCH  14  15
ENDBRANCH   5  14
TORSDOF 3
ENDMDL
MODEL 2
REMARK VINA RESULT:      -5.2      1.388      2.203
REMARK  3 active torsions:
REMARK  status: ('A' for Active; 'I' for Inactive)
REMARK    1  A    between atoms: C_3  and  C_7 
REMARK    2  A    between atoms: C_5  and  C_8 
REMARK    3  A    between atoms: C_8  and  N_9 
ROOT
HETATM    1  N   UNL     1      63.478   6.833   5.575  1.00  0.00    -0.353 N 
ATOM      2  HN  UNL     1      62.511   6.544   5.428  1.00  0.00     0.166 HD
HETATM    3  C   UNL     1      63.973   8.000   5.215  1.00  0.00     0.085 A 
HETATM    4  S   UNL     1      65.640   8.215   5.593  1.00  0.00    -0.072 SA
HETATM    5  C   UNL     1      65.702   6.636   6.260  1.00  0.00     0.032 A 
HETATM    6  C   UNL     1      64.449   6.050   6.185  1.00  0.00     0.021 A 
HETATM    7  C   UNL     1      64.054   4.693   6.645  1.00  0.00     0.069 C 
ENDROOT
BRANCH   3   8
HETATM    8  C   UNL     1      63.221   9.034   4.486  1.00  0.00    -0.002 A 
HETATM    9  C   UNL     1      62.894  10.277   5.051  1.00  0.00     0.014 A 
HETATM   10  C   UNL     1      62.198  11.240   4.315  1.00  0.00     0.001 A 
HETATM   11  C   UNL     1      61.813  10.973   3.004  1.00  0.00     0.000 A 
HETATM   12  C   UNL     1      62.115   9.742   2.430  1.00  0.00     0.001 A 
HETATM   13  C   UNL     1      62.809   8.778   3.168  1.00  0.00     0.014 A 
ENDBRANCH   3   8
BRANCH   5  14
HETATM   14  C   UNL     1      66.993   6.100   6.796  1.00  0.00     0.279 C 
BRANCH  14  15
HETATM   15  N   UNL     1      67.453   6.807   7.997  1.00  0.00    -0.075 N 
HETATM   16  C   UNL     1      66.685   6.448   9.185  1.00  0.00     0.267 C 
HETATM   17  H   UNL     1      67.364   7.811   7.840  1.00  0.00     0.277 HD
HETATM   18  H   UNL     1      68.424   6.539   8.161  1.00  0.00     0.277 HD
ENDBRANCH  14  15
ENDBRANCH   5  14
TORSDOF 3
ENDMDL
MODEL 3
REMARK VINA RESULT:      -4.7      1.050      1.839
REMARK  3 active torsions:
REMARK  status: ('A' for Active; 'I' for Inactive)
REMARK    1  A    between atoms: C_3  and  C_7 
REMARK    2  A    between atoms: C_5  and  C_8 
REMARK    3  A    between atoms: C_8  and  N_9 
ROOT
HETATM    1  N   UNL     1      65.527   8.166   5.584  1.00  0.00    -0.353 N 
ATOM      2  HN  UNL     1      66.090   8.976   5.322  1.00  0.00     0.166 HD
HETATM    3  C   UNL     1      64.242   8.035   5.326  1.00  0.00     0.085 A 
HETATM    4  S   UNL     1      63.550   6.560   5.886  1.00  0.00    -0.072 SA
HETATM    5  C   UNL     1      65.065   6.082   6.531  1.00  0.00     0.032 A 
HETATM    6  C   UNL     1      66.013   7.055   6.259  1.00  0.00     0.021 A 
HETATM    7  C   UNL     1      67.452   7.048   6.633  1.00  0.00     0.069 C 
ENDROOT
BRANCH   3   8
HETATM    8  C   UNL     1      63.412   9.066   4.681  1.00  0.00    -0.002 A 
HETATM    9  C   UNL     1      63.113  10.294   5.292  1.00  0.00     0.014 A 
HETATM   10  C   UNL     1      62.339  11.254   4.634  1.00  0.00     0.001 A 
HETATM   11  C   UNL     1      61.848  10.998   3.357  1.00  0.00     0.000 A 
HETATM   12  C   UNL     1      62.121   9.782   2.739  1.00  0.00     0.001 A 
HETATM   13  C   UNL     1      62.892   8.820   3.399  1.00  0.00     0.014 A 
ENDBRANCH   3   8
BRANCH   5  14
HETATM   14  C   UNL     1      65.190   4.784   7.266  1.00  0.00     0.279 C 
BRANCH  14  15
HETATM   15  N   UNL     1      65.880   3.749   6.488  1.00  0.00    -0.075 N 
HETATM   16  C   UNL     1      64.972   3.007   5.619  1.00  0.00     0.267 C 
HETATM   17  H   UNL     1      66.323   3.095   7.134  1.00  0.00     0.277 HD
HETATM   18  H   UNL     1      66.568   4.213   5.895  1.00  0.00     0.277 HD
ENDBRANCH  14  15
ENDBRANCH   5  14
TORSDOF 3
ENDMDL
MODEL 4
REMARK VINA RESULT:      -4.3      4.474      6.434
REMARK  3 active torsions:
REMARK  status: ('A' for Active; 'I' for Inactive)
REMARK    1  A    between atoms: C_3  and  C_7 
REMARK    2  A    between atoms: C_5  and  C_8 
REMARK    3  A    between atoms: C_8  and  N_9 
ROOT
HETATM    1  N   UNL     1      60.091   8.495   2.233  1.00  0.00    -0.353 N 
ATOM      2  HN  UNL     1      59.511   8.833   1.465  1.00  0.00     0.166 HD
HETATM    3  C   UNL     1      59.676   7.677   3.179  1.00  0.00     0.085 A 
HETATM    4  S   UNL     1      60.874   7.273   4.348  1.00  0.00    -0.072 SA
HETATM    5  C   UNL     1      62.010   8.276   3.546  1.00  0.00     0.032 A 
HETATM    6  C   UNL     1      61.424   8.835   2.422  1.00  0.00     0.021 A 
HETATM    7  C   UNL     1      62.046   9.762   1.441  1.00  0.00     0.069 C 
ENDROOT
BRANCH   3   8
HETATM    8  C   UNL     1      58.296   7.181   3.305  1.00  0.00    -0.002 A 
HETATM    9  C   UNL     1      57.713   6.858   4.541  1.00  0.00     0.014 A 
HETATM   10  C   UNL     1      56.391   6.412   4.617  1.00  0.00     0.001 A 
HETATM   11  C   UNL     1      55.632   6.275   3.458  1.00  0.00     0.000 A 
HETATM   12  C   UNL     1      56.195   6.577   2.222  1.00  0.00     0.001 A 
HETATM   13  C   UNL     1      57.519   7.021   2.145  1.00  0.00     0.014 A 
ENDBRANCH   3   8
BRANCH   5  14
HETATM   14  C   UNL     1      63.391   8.438   4.101  1.00  0.00     0.279 C 
BRANCH  14  15
HETATM   15  N   UNL     1      63.410   9.117   5.401  1.00  0.00    -0.075 N 
HETATM   16  C   UNL     1      62.929  10.492   5.319  1.00  0.00     0.267 C 
HETATM   17  H   UNL     1      64.368   9.126   5.752  1.00  0.00     0.277 HD
HETATM   18  H   UNL     1      62.787   8.606   6.027  1.00  0.00     0.277 HD
ENDBRANCH  14  15
ENDBRANCH   5  14
TORSDOF 3
ENDMDL
MODEL 5
REMARK VINA RESULT:      -4.2      2.146      6.327
REMARK  3 active torsions:
REMARK  status: ('A' for Active; 'I' for Inactive)
REMARK    1  A    between atoms: C_3  and  C_7 
REMARK    2  A    between atoms: C_5  and  C_8 
REMARK    3  A    between atoms: C_8  and  N_9 
ROOT
HETATM    1  N   UNL     1      63.501   6.626   3.976  1.00  0.00    -0.353 N 
ATOM      2  HN  UNL     1      63.646   5.633   3.792  1.00  0.00     0.166 HD
HETATM    3  C   UNL     1      64.276   7.365   4.745  1.00  0.00     0.085 A 
HETATM    4  S   UNL     1      63.790   9.012   4.873  1.00  0.00    -0.072 SA
HETATM    5  C   UNL     1      62.446   8.706   3.853  1.00  0.00     0.032 A 
HETATM    6  C   UNL     1      62.461   7.381   3.451  1.00  0.00     0.021 A 
HETATM    7  C   UNL     1      61.486   6.691   2.565  1.00  0.00     0.069 C 
ENDROOT
BRANCH   3   8
HETATM    8  C   UNL     1      65.428   6.852   5.504  1.00  0.00    -0.002 A 
HETATM    9  C   UNL     1      66.645   6.504   4.896  1.00  0.00     0.014 A 
HETATM   10  C   UNL     1      67.722   6.043   5.658  1.00  0.00     0.001 A 
HETATM   11  C   UNL     1      67.597   5.916   7.039  1.00  0.00     0.000 A 
HETATM   12  C   UNL     1      66.395   6.243   7.659  1.00  0.00     0.001 A 
HETATM   13  C   UNL     1      65.317   6.702   6.896  1.00  0.00     0.014 A 
ENDBRANCH   3   8
BRANCH   5  14
HETATM   14  C   UNL     1      61.476   9.803   3.541  1.00  0.00     0.279 C 
BRANCH  14  15
HETATM   15  N   UNL     1      61.607  10.312   2.171  1.00  0.00    -0.075 N 
HETATM   16  C   UNL     1      61.799  11.758   2.130  1.00  0.00     0.267 C 
HETATM   17  H   UNL     1      60.759  10.079   1.654  1.00  0.00     0.277 HD
HETATM   18  H   UNL     1      62.431   9.877   1.756  1.00  0.00     0.277 HD
ENDBRANCH  14  15
ENDBRANCH   5  14
TORSDOF 3
ENDMDL
MODEL 6
REMARK VINA RESULT:      -4.1      2.260      2.741
REMARK  3 active torsions:
REMARK  status: ('A' for Active; 'I' for Inactive)
REMARK    1  A    between atoms: C_3  and  C_7 
REMARK    2  A    between atoms: C_5  and  C_8 
REMARK    3  A    between atoms: C_8  and  N_9 
ROOT
HETATM    1  N   UNL     1      64.855   7.287   3.994  1.00  0.00    -0.353 N 
ATOM      2  HN  UNL     1      65.558   7.995   3.779  1.00  0.00     0.166 HD
HETATM    3  C   UNL     1      63.555   7.462   3.867  1.00  0.00     0.085 A 
HETATM    4  S   UNL     1      62.606   6.092   4.303  1.00  0.00    -0.072 SA
HETATM    5  C   UNL     1      64.028   5.223   4.707  1.00  0.00     0.032 A 
HETATM    6  C   UNL     1      65.140   6.011   4.459  1.00  0.00     0.021 A 
HETATM    7  C   UNL     1      66.569   5.654   4.666  1.00  0.00     0.069 C 
ENDROOT
BRANCH   3   8
HETATM    8  C   UNL     1      62.920   8.726   3.459  1.00  0.00    -0.002 A 
HETATM    9  C   UNL     1      62.700   9.789   4.349  1.00  0.00     0.014 A 
HETATM   10  C   UNL     1      62.114  10.980   3.914  1.00  0.00     0.001 A 
HETATM   11  C   UNL     1      61.734  11.126   2.583  1.00  0.00     0.000 A 
HETATM   12  C   UNL     1      61.932  10.080   1.687  1.00  0.00     0.001 A 
HETATM   13  C   UNL     1      62.515   8.886   2.123  1.00  0.00     0.014 A 
ENDBRANCH   3   8
BRANCH   5  14
HETATM   14  C   UNL     1      63.927   3.831   5.247  1.00  0.00     0.279 C 
BRANCH  14  15
HETATM   15  N   UNL     1      62.590   3.510   5.760  1.00  0.00    -0.075 N 
HETATM   16  C   UNL     1      62.596   3.218   7.190  1.00  0.00     0.267 C 
HETATM   17  H   UNL     1      62.235   2.694   5.261  1.00  0.00     0.277 HD
HETATM   18  H   UNL     1      61.997   4.327   5.613  1.00  0.00     0.277 HD
ENDBRANCH  14  15
ENDBRANCH   5  14
TORSDOF 3
ENDMDL
MODEL 7
REMARK VINA RESULT:      -4.1      9.396     10.838
REMARK  3 active torsions:
REMARK  status: ('A' for Active; 'I' for Inactive)
REMARK    1  A    between atoms: C_3  and  C_7 
REMARK    2  A    between atoms: C_5  and  C_8 
REMARK    3  A    between atoms: C_8  and  N_9 
ROOT
HETATM    1  N   UNL     1      58.808   2.310  12.155  1.00  0.00    -0.353 N 
ATOM      2  HN  UNL     1      59.825   2.335  12.230  1.00  0.00     0.166 HD
HETATM    3  C   UNL     1      58.133   2.581  11.057  1.00  0.00     0.085 A 
HETATM    4  S   UNL     1      56.423   2.457  11.223  1.00  0.00    -0.072 SA
HETATM    5  C   UNL     1      56.603   2.038  12.876  1.00  0.00     0.032 A 
HETATM    6  C   UNL     1      57.950   1.987  13.197  1.00  0.00     0.021 A 
HETATM    7  C   UNL     1      58.555   1.663  14.516  1.00  0.00     0.069 C 
ENDROOT
BRANCH   3   8
HETATM    8  C   UNL     1      58.742   3.022   9.791  1.00  0.00    -0.002 A 
HETATM    9  C   UNL     1      59.345   2.134   8.887  1.00  0.00     0.014 A 
HETATM   10  C   UNL     1      59.892   2.593   7.686  1.00  0.00     0.001 A 
HETATM   11  C   UNL     1      59.850   3.949   7.373  1.00  0.00     0.000 A 
HETATM   12  C   UNL     1      59.269   4.848   8.262  1.00  0.00     0.001 A 
HETATM   13  C   UNL     1      58.724   4.388   9.465  1.00  0.00     0.014 A 
ENDBRANCH   3   8
BRANCH   5  14
HETATM   14  C   UNL     1      55.394   1.804  13.726  1.00  0.00     0.279 C 
BRANCH  14  15
HETATM   15  N   UNL     1      55.130   2.901  14.664  1.00  0.00    -0.075 N 
HETATM   16  C   UNL     1      54.501   4.048  14.017  1.00  0.00     0.267 C 
HETATM   17  H   UNL     1      56.015   3.201  15.074  1.00  0.00     0.277 HD
HETATM   18  H   UNL     1      54.487   2.553  15.375  1.00  0.00     0.277 HD
ENDBRANCH  14  15
ENDBRANCH   5  14
TORSDOF 3
ENDMDL
MODEL 8
REMARK VINA RESULT:      -4.1      4.065      4.908
REMARK  3 active torsions:
REMARK  status: ('A' for Active; 'I' for Inactive)
REMARK    1  A    between atoms: C_3  and  C_7 
REMARK    2  A    between atoms: C_5  and  C_8 
REMARK    3  A    between atoms: C_8  and  N_9 
ROOT
HETATM    1  N   UNL     1      62.021   6.645   4.867  1.00  0.00    -0.353 N 
ATOM      2  HN  UNL     1      63.019   6.855   4.892  1.00  0.00     0.166 HD
HETATM    3  C   UNL     1      61.137   7.296   4.138  1.00  0.00     0.085 A 
HETATM    4  S   UNL     1      59.522   6.720   4.295  1.00  0.00    -0.072 SA
HETATM    5  C   UNL     1      60.040   5.542   5.427  1.00  0.00     0.032 A 
HETATM    6  C   UNL     1      61.412   5.634   5.598  1.00  0.00     0.021 A 
HETATM    7  C   UNL     1      62.273   4.806   6.483  1.00  0.00     0.069 C 
ENDROOT
BRANCH   3   8
HETATM    8  C   UNL     1      61.448   8.466   3.301  1.00  0.00    -0.002 A 
HETATM    9  C   UNL     1      61.595   9.760   3.826  1.00  0.00     0.014 A 
HETATM   10  C   UNL     1      61.912  10.839   2.998  1.00  0.00     0.001 A 
HETATM   11  C   UNL     1      62.082  10.644   1.630  1.00  0.00     0.000 A 
HETATM   12  C   UNL     1      61.928   9.372   1.087  1.00  0.00     0.001 A 
HETATM   13  C   UNL     1      61.607   8.292   1.916  1.00  0.00     0.014 A 
ENDBRANCH   3   8
BRANCH   5  14
HETATM   14  C   UNL     1      59.043   4.626   6.065  1.00  0.00     0.279 C 
BRANCH  14  15
HETATM   15  N   UNL     1      58.385   5.219   7.235  1.00  0.00    -0.075 N 
HETATM   16  C   UNL     1      59.115   4.966   8.473  1.00  0.00     0.267 C 
HETATM   17  H   UNL     1      57.449   4.823   7.320  1.00  0.00     0.277 HD
HETATM   18  H   UNL     1      58.353   6.229   7.093  1.00  0.00     0.277 HD
ENDBRANCH  14  15
ENDBRANCH   5  14
TORSDOF 3
ENDMDL
MODEL 9
REMARK VINA RESULT:      -4.0      5.104      6.225
REMARK  3 active torsions:
REMARK  status: ('A' for Active; 'I' for Inactive)
REMARK    1  A    between atoms: C_3  and  C_7 
REMARK    2  A    between atoms: C_5  and  C_8 
REMARK    3  A    between atoms: C_8  and  N_9 
ROOT
HETATM    1  N   UNL     1      60.734   6.491   5.136  1.00  0.00    -0.353 N 
ATOM      2  HN  UNL     1      61.748   6.471   5.247  1.00  0.00     0.166 HD
HETATM    3  C   UNL     1      60.100   7.132   4.175  1.00  0.00     0.085 A 
HETATM    4  S   UNL     1      58.384   6.990   4.235  1.00  0.00    -0.072 SA
HETATM    5  C   UNL     1      58.503   6.029   5.650  1.00  0.00     0.032 A 
HETATM    6  C   UNL     1      59.837   5.847   5.977  1.00  0.00     0.021 A 
HETATM    7  C   UNL     1      60.393   5.082   7.124  1.00  0.00     0.069 C 
ENDROOT
BRANCH   3   8
HETATM    8  C   UNL     1      60.757   7.968   3.157  1.00  0.00    -0.002 A 
HETATM    9  C   UNL     1      60.740   7.654   1.788  1.00  0.00     0.014 A 
HETATM   10  C   UNL     1      61.357   8.488   0.853  1.00  0.00     0.001 A 
HETATM   11  C   UNL     1      62.007   9.646   1.271  1.00  0.00     0.000 A 
HETATM   12  C   UNL     1      62.047   9.969   2.624  1.00  0.00     0.001 A 
HETATM   13  C   UNL     1      61.431   9.132   3.560  1.00  0.00     0.014 A 
ENDBRANCH   3   8
BRANCH   5  14
HETATM   14  C   UNL     1      57.263   5.541   6.331  1.00  0.00     0.279 C 
BRANCH  14  15
HETATM   15  N   UNL     1      56.874   6.368   7.479  1.00  0.00    -0.075 N 
HETATM   16  C   UNL     1      55.428   6.535   7.583  1.00  0.00     0.267 C 
HETATM   17  H   UNL     1      57.304   7.288   7.380  1.00  0.00     0.277 HD
HETATM   18  H   UNL     1      57.194   5.894   8.324  1.00  0.00     0.277 HD
ENDBRANCH  14  15
ENDBRANCH   5  14
TORSDOF 3
ENDMDL
