MODEL 1
REMARK VINA RESULT:      -5.6      0.000      0.000
REMARK  3 active torsions:
REMARK  status: ('A' for Active; 'I' for Inactive)
REMARK    1  A    between atoms: C_1  and  C_7 
REMARK    2  A    between atoms: C_6  and  C_9 
REMARK    3  A    between atoms: N_8  and  C_9 
ROOT
HETATM    1  C   UNL     1      65.066   8.295   5.578  1.00  0.00     0.111 A 
HETATM    2  N   UNL     1      66.810   8.512   6.983  1.00  0.00    -0.263 N 
ATOM      3  HN  UNL     1      67.525   8.918   7.586  1.00  0.00     0.194 HD
HETATM    4  C   UNL     1      65.533   7.029   5.831  1.00  0.00     0.069 A 
HETATM    5  O   UNL     1      65.841   9.188   6.259  1.00  0.00    -0.237 OA
HETATM    6  C   UNL     1      66.612   7.213   6.724  1.00  0.00     0.060 A 
ENDROOT
BRANCH   1   7
HETATM    7  C   UNL     1      63.971   8.834   4.783  1.00  0.00    -0.000 A 
HETATM    8  C   UNL     1      63.361  10.041   5.164  1.00  0.00     0.014 A 
HETATM    9  C   UNL     1      62.305  10.576   4.424  1.00  0.00     0.001 A 
HETATM   10  C   UNL     1      61.844   9.912   3.293  1.00  0.00     0.000 A 
HETATM   11  C   UNL     1      62.441   8.718   2.896  1.00  0.00     0.001 A 
HETATM   12  C   UNL     1      63.500   8.182   3.635  1.00  0.00     0.014 A 
ENDBRANCH   1   7
BRANCH   6  13
HETATM   13  C   UNL     1      67.462   6.166   7.354  1.00  0.00     0.288 C 
BRANCH  13  14
HETATM   14  N   UNL     1      67.855   6.596   8.698  1.00  0.00    -0.074 N 
HETATM   15  H   UNL     1      68.494   5.912   9.102  1.00  0.00     0.274 HD
HETATM   16  H   UNL     1      67.025   6.674   9.286  1.00  0.00     0.274 HD
HETATM   17  H   UNL     1      68.319   7.503   8.643  1.00  0.00     0.274 HD
ENDBRANCH  13  14
ENDBRANCH   6  13
TORSDOF 3
ENDMDL
MODEL 2
REMARK VINA RESULT:      -5.6      0.046      1.338
REMARK  3 active torsions:
REMARK  status: ('A' for Active; 'I' for Inactive)
REMARK    1  A    between atoms: C_1  and  C_7 
REMARK    2  A    between atoms: C_6  and  C_9 
REMARK    3  A    between atoms: N_8  and  C_9 
ROOT
HETATM    1  C   UNL     1      65.063   8.308   5.573  1.00  0.00     0.111 A 
HETATM    2  N   UNL     1      66.808   8.509   6.979  1.00  0.00    -0.263 N 
ATOM      3  HN  UNL     1      67.519   8.908   7.590  1.00  0.00     0.194 HD
HETATM    4  C   UNL     1      65.542   7.041   5.796  1.00  0.00     0.069 A 
HETATM    5  O   UNL     1      65.831   9.193   6.272  1.00  0.00    -0.237 OA
HETATM    6  C   UNL     1      66.621   7.215   6.691  1.00  0.00     0.060 A 
ENDROOT
BRANCH   1   7
HETATM    7  C   UNL     1      63.961   8.855   4.791  1.00  0.00    -0.000 A 
HETATM    8  C   UNL     1      63.517   8.176   3.645  1.00  0.00     0.014 A 
HETATM    9  C   UNL     1      62.468   8.680   2.873  1.00  0.00     0.001 A 
HETATM   10  C   UNL     1      61.848   9.869   3.239  1.00  0.00     0.000 A 
HETATM   11  C   UNL     1      62.270  10.553   4.378  1.00  0.00     0.001 A 
HETATM   12  C   UNL     1      63.319  10.047   5.151  1.00  0.00     0.014 A 
ENDBRANCH   1   7
BRANCH   6  13
HETATM   13  C   UNL     1      67.481   6.162   7.295  1.00  0.00     0.288 C 
BRANCH  13  14
HETATM   14  N   UNL     1      67.899   6.579   8.637  1.00  0.00    -0.074 N 
HETATM   15  H   UNL     1      67.501   7.494   8.848  1.00  0.00     0.274 HD
HETATM   16  H   UNL     1      68.917   6.635   8.673  1.00  0.00     0.274 HD
HETATM   17  H   UNL     1      67.570   5.899   9.322  1.00  0.00     0.274 HD
ENDBRANCH  13  14
ENDBRANCH   6  13
TORSDOF 3
ENDMDL
MODEL 3
REMARK VINA RESULT:      -5.1      2.156      2.528
REMARK  3 active torsions:
REMARK  status: ('A' for Active; 'I' for Inactive)
REMARK    1  A    between atoms: C_1  and  C_7 
REMARK    2  A    between atoms: C_6  and  C_9 
REMARK    3  A    between atoms: N_8  and  C_9 
ROOT
HETATM    1  C   UNL     1      63.051   8.291   4.771  1.00  0.00     0.111 A 
HETATM    2  N   UNL     1      62.693   6.597   6.207  1.00  0.00    -0.263 N 
ATOM      3  HN  UNL     1      62.230   5.882   6.767  1.00  0.00     0.194 HD
HETATM    4  C   UNL     1      64.276   7.933   5.276  1.00  0.00     0.069 A 
HETATM    5  O   UNL     1      62.097   7.498   5.339  1.00  0.00    -0.237 OA
HETATM    6  C   UNL     1      64.005   6.861   6.157  1.00  0.00     0.060 A 
ENDROOT
BRANCH   1   7
HETATM    7  C   UNL     1      62.602   9.284   3.803  1.00  0.00    -0.000 A 
HETATM    8  C   UNL     1      62.311  10.590   4.228  1.00  0.00     0.014 A 
HETATM    9  C   UNL     1      61.873  11.559   3.324  1.00  0.00     0.001 A 
HETATM   10  C   UNL     1      61.721  11.235   1.981  1.00  0.00     0.000 A 
HETATM   11  C   UNL     1      62.012   9.946   1.539  1.00  0.00     0.001 A 
HETATM   12  C   UNL     1      62.452   8.976   2.444  1.00  0.00     0.014 A 
ENDBRANCH   1   7
BRANCH   6  13
HETATM   13  C   UNL     1      64.980   6.067   6.952  1.00  0.00     0.288 C 
BRANCH  13  14
HETATM   14  N   UNL     1      65.779   6.966   7.788  1.00  0.00    -0.074 N 
HETATM   15  H   UNL     1      65.495   7.931   7.619  1.00  0.00     0.274 HD
HETATM   16  H   UNL     1      66.767   6.857   7.556  1.00  0.00     0.274 HD
HETATM   17  H   UNL     1      65.633   6.736   8.771  1.00  0.00     0.274 HD
ENDBRANCH  13  14
ENDBRANCH   6  13
TORSDOF 3
ENDMDL
MODEL 4
REMARK VINA RESULT:      -5.0      2.560      5.485
REMARK  3 active torsions:
REMARK  status: ('A' for Active; 'I' for Inactive)
REMARK    1  A    between atoms: C_1  and  C_7 
REMARK    2  A    between atoms: C_6  and  C_9 
REMARK    3  A    between atoms: N_8  and  C_9 
ROOT
HETATM    1  C   UNL     1      64.563   8.810   5.088  1.00  0.00     0.111 A 
HETATM    2  N   UNL     1      63.604  10.787   5.574  1.00  0.00    -0.263 N 
ATOM      3  HN  UNL     1      63.415  11.694   5.998  1.00  0.00     0.194 HD
HETATM    4  C   UNL     1      63.456   8.925   4.282  1.00  0.00     0.069 A 
HETATM    5  O   UNL     1      64.645   9.922   5.874  1.00  0.00    -0.237 OA
HETATM    6  C   UNL     1      62.899  10.181   4.611  1.00  0.00     0.060 A 
ENDROOT
BRANCH   1   7
HETATM    7  C   UNL     1      65.602   7.801   5.249  1.00  0.00    -0.000 A 
HETATM    8  C   UNL     1      65.939   6.970   4.168  1.00  0.00     0.014 A 
HETATM    9  C   UNL     1      66.925   5.991   4.295  1.00  0.00     0.001 A 
HETATM   10  C   UNL     1      67.589   5.829   5.506  1.00  0.00     0.000 A 
HETATM   11  C   UNL     1      67.273   6.650   6.588  1.00  0.00     0.001 A 
HETATM   12  C   UNL     1      66.287   7.632   6.459  1.00  0.00     0.014 A 
ENDBRANCH   1   7
BRANCH   6  13
HETATM   13  C   UNL     1      61.702  10.830   4.011  1.00  0.00     0.288 C 
BRANCH  13  14
HETATM   14  N   UNL     1      61.797  10.781   2.550  1.00  0.00    -0.074 N 
HETATM   15  H   UNL     1      61.348  11.606   2.152  1.00  0.00     0.274 HD
HETATM   16  H   UNL     1      61.330   9.942   2.207  1.00  0.00     0.274 HD
HETATM   17  H   UNL     1      62.779  10.762   2.274  1.00  0.00     0.274 HD
ENDBRANCH  13  14
ENDBRANCH   6  13
TORSDOF 3
ENDMDL
MODEL 5
REMARK VINA RESULT:      -4.5      1.781      2.556
REMARK  3 active torsions:
REMARK  status: ('A' for Active; 'I' for Inactive)
REMARK    1  A    between atoms: C_1  and  C_7 
REMARK    2  A    between atoms: C_6  and  C_9 
REMARK    3  A    between atoms: N_8  and  C_9 
ROOT
HETATM    1  C   UNL     1      63.893   8.136   3.936  1.00  0.00     0.111 A 
HETATM    2  N   UNL     1      64.645   9.077   5.836  1.00  0.00    -0.263 N 
ATOM      3  HN  UNL     1      64.769   9.722   6.615  1.00  0.00     0.194 HD
HETATM    4  C   UNL     1      64.867   7.305   4.432  1.00  0.00     0.069 A 
HETATM    5  O   UNL     1      63.767   9.207   4.771  1.00  0.00    -0.237 OA
HETATM    6  C   UNL     1      65.297   7.926   5.627  1.00  0.00     0.060 A 
ENDROOT
BRANCH   1   7
HETATM    7  C   UNL     1      63.018   8.092   2.771  1.00  0.00    -0.000 A 
HETATM    8  C   UNL     1      62.228   9.209   2.452  1.00  0.00     0.014 A 
HETATM    9  C   UNL     1      61.376   9.193   1.346  1.00  0.00     0.001 A 
HETATM   10  C   UNL     1      61.303   8.060   0.544  1.00  0.00     0.000 A 
HETATM   11  C   UNL     1      62.085   6.945   0.841  1.00  0.00     0.001 A 
HETATM   12  C   UNL     1      62.940   6.962   1.947  1.00  0.00     0.014 A 
ENDBRANCH   1   7
BRANCH   6  13
HETATM   13  C   UNL     1      66.319   7.436   6.591  1.00  0.00     0.288 C 
BRANCH  13  14
HETATM   14  N   UNL     1      67.629   7.992   6.242  1.00  0.00    -0.074 N 
HETATM   15  H   UNL     1      68.312   7.724   6.950  1.00  0.00     0.274 HD
HETATM   16  H   UNL     1      67.566   9.009   6.199  1.00  0.00     0.274 HD
HETATM   17  H   UNL     1      67.921   7.630   5.334  1.00  0.00     0.274 HD
ENDBRANCH  13  14
ENDBRANCH   6  13
TORSDOF 3
ENDMDL
MODEL 6
REMARK VINA RESULT:      -4.2      3.721      4.396
REMARK  3 active torsions:
REMARK  status: ('A' for Active; 'I' for Inactive)
REMARK    1  A    between atoms: C_1  and  C_7 
REMARK    2  A    between atoms: C_6  and  C_9 
REMARK    3  A    between atoms: N_8  and  C_9 
ROOT
HETATM    1  C   UNL     1      61.786   7.645   4.513  1.00  0.00     0.111 A 
HETATM    2  N   UNL     1      62.551   6.443   6.254  1.00  0.00    -0.263 N 
ATOM      3  HN  UNL     1      63.121   6.128   7.038  1.00  0.00     0.194 HD
HETATM    4  C   UNL     1      60.925   6.587   4.675  1.00  0.00     0.069 A 
HETATM    5  O   UNL     1      62.771   7.553   5.452  1.00  0.00    -0.237 OA
HETATM    6  C   UNL     1      61.435   5.874   5.783  1.00  0.00     0.060 A 
ENDROOT
BRANCH   1   7
HETATM    7  C   UNL     1      61.842   8.777   3.596  1.00  0.00    -0.000 A 
HETATM    8  C   UNL     1      61.876  10.085   4.107  1.00  0.00     0.014 A 
HETATM    9  C   UNL     1      61.923  11.188   3.253  1.00  0.00     0.001 A 
HETATM   10  C   UNL     1      61.937  10.998   1.876  1.00  0.00     0.000 A 
HETATM   11  C   UNL     1      61.911   9.707   1.351  1.00  0.00     0.001 A 
HETATM   12  C   UNL     1      61.866   8.603   2.206  1.00  0.00     0.014 A 
ENDBRANCH   1   7
BRANCH   6  13
HETATM   13  C   UNL     1      60.869   4.653   6.419  1.00  0.00     0.288 C 
BRANCH  13  14
HETATM   14  N   UNL     1      59.428   4.590   6.164  1.00  0.00    -0.074 N 
HETATM   15  H   UNL     1      58.972   5.398   6.587  1.00  0.00     0.274 HD
HETATM   16  H   UNL     1      59.048   3.735   6.569  1.00  0.00     0.274 HD
HETATM   17  H   UNL     1      59.260   4.594   5.157  1.00  0.00     0.274 HD
ENDBRANCH  13  14
ENDBRANCH   6  13
TORSDOF 3
ENDMDL
MODEL 7
REMARK VINA RESULT:      -4.1      2.055      2.372
REMARK  3 active torsions:
REMARK  status: ('A' for Active; 'I' for Inactive)
REMARK    1  A    between atoms: C_1  and  C_7 
REMARK    2  A    between atoms: C_6  and  C_9 
REMARK    3  A    between atoms: N_8  and  C_9 
ROOT
HETATM    1  C   UNL     1      63.903   7.358   5.492  1.00  0.00     0.111 A 
HETATM    2  N   UNL     1      65.207   7.088   7.306  1.00  0.00    -0.263 N 
ATOM      3  HN  UNL     1      65.513   6.974   8.271  1.00  0.00     0.194 HD
HETATM    4  C   UNL     1      65.200   7.306   5.045  1.00  0.00     0.069 A 
HETATM    5  O   UNL     1      63.906   7.241   6.851  1.00  0.00    -0.237 OA
HETATM    6  C   UNL     1      65.977   7.121   6.211  1.00  0.00     0.060 A 
ENDROOT
BRANCH   1   7
HETATM    7  C   UNL     1      62.608   7.497   4.838  1.00  0.00    -0.000 A 
HETATM    8  C   UNL     1      62.402   8.534   3.914  1.00  0.00     0.014 A 
HETATM    9  C   UNL     1      61.170   8.696   3.278  1.00  0.00     0.001 A 
HETATM   10  C   UNL     1      60.127   7.820   3.557  1.00  0.00     0.000 A 
HETATM   11  C   UNL     1      60.314   6.780   4.465  1.00  0.00     0.001 A 
HETATM   12  C   UNL     1      61.549   6.618   5.101  1.00  0.00     0.014 A 
ENDBRANCH   1   7
BRANCH   6  13
HETATM   13  C   UNL     1      67.453   6.962   6.305  1.00  0.00     0.288 C 
BRANCH  13  14
HETATM   14  N   UNL     1      68.072   7.365   5.040  1.00  0.00    -0.074 N 
HETATM   15  H   UNL     1      68.131   6.558   4.418  1.00  0.00     0.274 HD
HETATM   16  H   UNL     1      69.009   7.725   5.219  1.00  0.00     0.274 HD
HETATM   17  H   UNL     1      67.506   8.091   4.601  1.00  0.00     0.274 HD
ENDBRANCH  13  14
ENDBRANCH   6  13
TORSDOF 3
ENDMDL
MODEL 8
REMARK VINA RESULT:      -4.1      2.193      5.846
REMARK  3 active torsions:
REMARK  status: ('A' for Active; 'I' for Inactive)
REMARK    1  A    between atoms: C_1  and  C_7 
REMARK    2  A    between atoms: C_6  and  C_9 
REMARK    3  A    between atoms: N_8  and  C_9 
ROOT
HETATM    1  C   UNL     1      65.338   7.197   6.068  1.00  0.00     0.111 A 
HETATM    2  N   UNL     1      64.430   9.123   5.342  1.00  0.00    -0.263 N 
ATOM      3  HN  UNL     1      64.228  10.115   5.223  1.00  0.00     0.194 HD
HETATM    4  C   UNL     1      64.387   6.862   5.135  1.00  0.00     0.069 A 
HETATM    5  O   UNL     1      65.356   8.554   6.203  1.00  0.00    -0.237 OA
HETATM    6  C   UNL     1      63.859   8.098   4.699  1.00  0.00     0.060 A 
ENDROOT
BRANCH   1   7
HETATM    7  C   UNL     1      66.275   6.433   6.882  1.00  0.00    -0.000 A 
HETATM    8  C   UNL     1      66.775   5.210   6.405  1.00  0.00     0.014 A 
HETATM    9  C   UNL     1      67.669   4.454   7.166  1.00  0.00     0.001 A 
HETATM   10  C   UNL     1      68.075   4.912   8.415  1.00  0.00     0.000 A 
HETATM   11  C   UNL     1      67.596   6.127   8.901  1.00  0.00     0.001 A 
HETATM   12  C   UNL     1      66.702   6.885   8.137  1.00  0.00     0.014 A 
ENDBRANCH   1   7
BRANCH   6  13
HETATM   13  C   UNL     1      62.816   8.326   3.662  1.00  0.00     0.288 C 
BRANCH  13  14
HETATM   14  N   UNL     1      61.643   7.498   3.954  1.00  0.00    -0.074 N 
HETATM   15  H   UNL     1      61.909   6.514   3.937  1.00  0.00     0.274 HD
HETATM   16  H   UNL     1      60.924   7.669   3.251  1.00  0.00     0.274 HD
HETATM   17  H   UNL     1      61.281   7.737   4.878  1.00  0.00     0.274 HD
ENDBRANCH  13  14
ENDBRANCH   6  13
TORSDOF 3
ENDMDL
MODEL 9
REMARK VINA RESULT:      -3.9     13.607     14.427
REMARK  3 active torsions:
REMARK  status: ('A' for Active; 'I' for Inactive)
REMARK    1  A    between atoms: C_1  and  C_7 
REMARK    2  A    between atoms: C_6  and  C_9 
REMARK    3  A    between atoms: N_8  and  C_9 
ROOT
HETATM    1  C   UNL     1      55.602   2.460  13.687  1.00  0.00     0.111 A 
HETATM    2  N   UNL     1      53.548   2.383  14.600  1.00  0.00    -0.263 N 
ATOM      3  HN  UNL     1      52.730   2.070  15.122  1.00  0.00     0.194 HD
HETATM    4  C   UNL     1      54.956   3.611  13.310  1.00  0.00     0.069 A 
HETATM    5  O   UNL     1      54.753   1.714  14.451  1.00  0.00    -0.237 OA
HETATM    6  C   UNL     1      53.683   3.525  13.916  1.00  0.00     0.060 A 
ENDROOT
BRANCH   1   7
HETATM    7  C   UNL     1      56.935   1.919  13.451  1.00  0.00    -0.000 A 
HETATM    8  C   UNL     1      57.425   0.890  14.273  1.00  0.00     0.014 A 
HETATM    9  C   UNL     1      58.700   0.359  14.075  1.00  0.00     0.001 A 
HETATM   10  C   UNL     1      59.503   0.849  13.051  1.00  0.00     0.000 A 
HETATM   11  C   UNL     1      59.032   1.864  12.221  1.00  0.00     0.001 A 
HETATM   12  C   UNL     1      57.754   2.395  12.419  1.00  0.00     0.014 A 
ENDBRANCH   1   7
BRANCH   6  13
HETATM   13  C   UNL     1      52.582   4.526  13.867  1.00  0.00     0.288 C 
BRANCH  13  14
HETATM   14  N   UNL     1      52.853   5.601  14.825  1.00  0.00    -0.074 N 
HETATM   15  H   UNL     1      52.923   5.210  15.765  1.00  0.00     0.274 HD
HETATM   16  H   UNL     1      52.094   6.281  14.796  1.00  0.00     0.274 HD
HETATM   17  H   UNL     1      53.731   6.060  14.582  1.00  0.00     0.274 HD
ENDBRANCH  13  14
ENDBRANCH   6  13
TORSDOF 3
ENDMDL
