MODEL 1
REMARK VINA RESULT:      -4.4      0.000      0.000
REMARK  1 active torsions:
REMARK  status: ('A' for Active; 'I' for Inactive)
REMARK    1  A    between atoms: C_1  and  C_4 
REMARK       I    between atoms: C_4  and  N_8 
ROOT
HETATM    1  C   UNL     1      62.530  10.050   3.909  1.00  0.00     0.072 A 
HETATM    2  S   UNL     1      63.125   8.522   4.402  1.00  0.00    -0.096 SA
HETATM    3  C   UNL     1      62.108  10.013   2.592  1.00  0.00     0.031 A 
HETATM    4  C   UNL     1      62.816   7.829   2.869  1.00  0.00     0.057 A 
HETATM    5  C   UNL     1      62.268   8.729   1.977  1.00  0.00    -0.054 A 
HETATM    6  C   UNL     1      61.889   8.426   0.567  1.00  0.00     0.048 C 
ENDROOT
BRANCH   1   7
HETATM    7  C   UNL     1      62.494  11.202   4.791  1.00  0.00     0.256 C 
HETATM    8  O   UNL     1      61.842  12.220   4.568  1.00  0.00    -0.267 OA
HETATM    9  N   UNL     1      63.236  11.134   5.938  1.00  0.00    -0.366 N 
HETATM   10  H   UNL     1      63.765  10.328   6.135  1.00  0.00     0.159 HD
HETATM   11  H   UNL     1      63.241  11.892   6.567  1.00  0.00     0.159 HD
ENDBRANCH   1   7
TORSDOF 1
ENDMDL
MODEL 2
REMARK VINA RESULT:      -4.1      1.514      2.271
REMARK  1 active torsions:
REMARK  status: ('A' for Active; 'I' for Inactive)
REMARK    1  A    between atoms: C_1  and  C_4 
REMARK       I    between atoms: C_4  and  N_8 
ROOT
HETATM    1  C   UNL     1      62.924   9.731   4.521  1.00  0.00     0.072 A 
HETATM    2  S   UNL     1      61.783   9.021   3.458  1.00  0.00    -0.096 SA
HETATM    3  C   UNL     1      64.002   8.887   4.720  1.00  0.00     0.031 A 
HETATM    4  C   UNL     1      62.728   7.607   3.276  1.00  0.00     0.057 A 
HETATM    5  C   UNL     1      63.901   7.652   4.003  1.00  0.00    -0.054 A 
HETATM    6  C   UNL     1      64.930   6.574   4.050  1.00  0.00     0.048 C 
ENDROOT
BRANCH   1   7
HETATM    7  C   UNL     1      62.740  11.046   5.107  1.00  0.00     0.256 C 
HETATM    8  O   UNL     1      61.972  11.897   4.662  1.00  0.00    -0.267 OA
HETATM    9  N   UNL     1      63.471  11.340   6.224  1.00  0.00    -0.366 N 
HETATM   10  H   UNL     1      64.091  10.673   6.596  1.00  0.00     0.159 HD
HETATM   11  H   UNL     1      63.378  12.220   6.656  1.00  0.00     0.159 HD
ENDBRANCH   1   7
TORSDOF 1
ENDMDL
MODEL 3
REMARK VINA RESULT:      -4.1      2.076      2.362
REMARK  1 active torsions:
REMARK  status: ('A' for Active; 'I' for Inactive)
REMARK    1  A    between atoms: C_1  and  C_4 
REMARK       I    between atoms: C_4  and  N_8 
ROOT
HETATM    1  C   UNL     1      62.959   9.203   3.967  1.00  0.00     0.072 A 
HETATM    2  S   UNL     1      62.056  10.619   3.631  1.00  0.00    -0.096 SA
HETATM    3  C   UNL     1      62.990   8.366   2.866  1.00  0.00     0.031 A 
HETATM    4  C   UNL     1      61.718  10.108   2.034  1.00  0.00     0.057 A 
HETATM    5  C   UNL     1      62.274   8.880   1.737  1.00  0.00    -0.054 A 
HETATM    6  C   UNL     1      62.157   8.171   0.431  1.00  0.00     0.048 C 
ENDROOT
BRANCH   1   7
HETATM    7  C   UNL     1      63.589   8.959   5.252  1.00  0.00     0.256 C 
HETATM    8  O   UNL     1      64.675   9.428   5.585  1.00  0.00    -0.267 OA
HETATM    9  N   UNL     1      62.919   8.158   6.135  1.00  0.00    -0.366 N 
HETATM   10  H   UNL     1      62.048   7.773   5.887  1.00  0.00     0.159 HD
HETATM   11  H   UNL     1      63.309   7.966   7.018  1.00  0.00     0.159 HD
ENDBRANCH   1   7
TORSDOF 1
ENDMDL
MODEL 4
REMARK VINA RESULT:      -3.9      2.237      2.919
REMARK  1 active torsions:
REMARK  status: ('A' for Active; 'I' for Inactive)
REMARK    1  A    between atoms: C_1  and  C_4 
REMARK       I    between atoms: C_4  and  N_8 
ROOT
HETATM    1  C   UNL     1      62.218   9.764   3.950  1.00  0.00     0.072 A 
HETATM    2  S   UNL     1      61.331   8.425   3.357  1.00  0.00    -0.096 SA
HETATM    3  C   UNL     1      63.234   9.348   4.792  1.00  0.00     0.031 A 
HETATM    4  C   UNL     1      62.300   7.311   4.221  1.00  0.00     0.057 A 
HETATM    5  C   UNL     1      63.292   7.927   4.958  1.00  0.00    -0.054 A 
HETATM    6  C   UNL     1      64.294   7.227   5.813  1.00  0.00     0.048 C 
ENDROOT
BRANCH   1   7
HETATM    7  C   UNL     1      61.908  11.135   3.588  1.00  0.00     0.256 C 
HETATM    8  O   UNL     1      61.899  12.072   4.383  1.00  0.00    -0.267 OA
HETATM    9  N   UNL     1      61.611  11.383   2.276  1.00  0.00    -0.366 N 
HETATM   10  H   UNL     1      61.612  10.647   1.624  1.00  0.00     0.159 HD
HETATM   11  H   UNL     1      61.395  12.298   1.985  1.00  0.00     0.159 HD
ENDBRANCH   1   7
TORSDOF 1
ENDMDL
MODEL 5
REMARK VINA RESULT:      -3.9      2.435      2.865
REMARK  1 active torsions:
REMARK  status: ('A' for Active; 'I' for Inactive)
REMARK    1  A    between atoms: C_1  and  C_4 
REMARK       I    between atoms: C_4  and  N_8 
ROOT
HETATM    1  C   UNL     1      62.854   8.584   4.567  1.00  0.00     0.072 A 
HETATM    2  S   UNL     1      62.598   7.568   3.212  1.00  0.00    -0.096 SA
HETATM    3  C   UNL     1      62.562   9.900   4.257  1.00  0.00     0.031 A 
HETATM    4  C   UNL     1      62.105   8.879   2.233  1.00  0.00     0.057 A 
HETATM    5  C   UNL     1      62.126  10.085   2.905  1.00  0.00    -0.054 A 
HETATM    6  C   UNL     1      61.751  11.406   2.324  1.00  0.00     0.048 C 
ENDROOT
BRANCH   1   7
HETATM    7  C   UNL     1      63.316   8.083   5.849  1.00  0.00     0.256 C 
HETATM    8  O   UNL     1      62.570   7.776   6.777  1.00  0.00    -0.267 OA
HETATM    9  N   UNL     1      64.666   7.950   6.018  1.00  0.00    -0.366 N 
HETATM   10  H   UNL     1      65.280   8.191   5.288  1.00  0.00     0.159 HD
HETATM   11  H   UNL     1      65.024   7.614   6.872  1.00  0.00     0.159 HD
ENDBRANCH   1   7
TORSDOF 1
ENDMDL
MODEL 6
REMARK VINA RESULT:      -3.8      2.074      2.405
REMARK  1 active torsions:
REMARK  status: ('A' for Active; 'I' for Inactive)
REMARK    1  A    between atoms: C_1  and  C_4 
REMARK       I    between atoms: C_4  and  N_8 
ROOT
HETATM    1  C   UNL     1      62.020   9.771   3.859  1.00  0.00     0.072 A 
HETATM    2  S   UNL     1      63.244   9.271   4.947  1.00  0.00    -0.096 SA
HETATM    3  C   UNL     1      61.226   8.702   3.487  1.00  0.00     0.031 A 
HETATM    4  C   UNL     1      62.711   7.647   4.912  1.00  0.00     0.057 A 
HETATM    5  C   UNL     1      61.616   7.463   4.091  1.00  0.00    -0.054 A 
HETATM    6  C   UNL     1      60.924   6.164   3.852  1.00  0.00     0.048 C 
ENDROOT
BRANCH   1   7
HETATM    7  C   UNL     1      61.875  11.146   3.417  1.00  0.00     0.256 C 
HETATM    8  O   UNL     1      61.995  12.122   4.155  1.00  0.00    -0.267 OA
HETATM    9  N   UNL     1      61.588  11.351   2.097  1.00  0.00    -0.366 N 
HETATM   10  H   UNL     1      61.487  10.583   1.490  1.00  0.00     0.159 HD
HETATM   11  H   UNL     1      61.481  12.267   1.752  1.00  0.00     0.159 HD
ENDBRANCH   1   7
TORSDOF 1
ENDMDL
MODEL 7
REMARK VINA RESULT:      -3.5      3.053      3.939
REMARK  1 active torsions:
REMARK  status: ('A' for Active; 'I' for Inactive)
REMARK    1  A    between atoms: C_1  and  C_4 
REMARK       I    between atoms: C_4  and  N_8 
ROOT
HETATM    1  C   UNL     1      62.362   9.151   2.821  1.00  0.00     0.072 A 
HETATM    2  S   UNL     1      62.022  10.449   3.886  1.00  0.00    -0.096 SA
HETATM    3  C   UNL     1      63.287   8.287   3.378  1.00  0.00     0.031 A 
HETATM    4  C   UNL     1      63.102   9.852   5.070  1.00  0.00     0.057 A 
HETATM    5  C   UNL     1      63.725   8.682   4.683  1.00  0.00    -0.054 A 
HETATM    6  C   UNL     1      64.717   7.922   5.495  1.00  0.00     0.048 C 
ENDROOT
BRANCH   1   7
HETATM    7  C   UNL     1      61.736   9.019   1.518  1.00  0.00     0.256 C 
HETATM    8  O   UNL     1      62.351   9.038   0.454  1.00  0.00    -0.267 OA
HETATM    9  N   UNL     1      60.378   8.864   1.490  1.00  0.00    -0.366 N 
HETATM   10  H   UNL     1      59.867   8.847   2.330  1.00  0.00     0.159 HD
HETATM   11  H   UNL     1      59.910   8.770   0.628  1.00  0.00     0.159 HD
ENDBRANCH   1   7
TORSDOF 1
ENDMDL
MODEL 8
REMARK VINA RESULT:      -3.4      4.292      4.736
REMARK  1 active torsions:
REMARK  status: ('A' for Active; 'I' for Inactive)
REMARK    1  A    between atoms: C_1  and  C_4 
REMARK       I    between atoms: C_4  and  N_8 
ROOT
HETATM    1  C   UNL     1      65.619   7.752   5.724  1.00  0.00     0.072 A 
HETATM    2  S   UNL     1      64.635   6.673   6.619  1.00  0.00    -0.096 SA
HETATM    3  C   UNL     1      64.846   8.597   4.950  1.00  0.00     0.031 A 
HETATM    4  C   UNL     1      63.198   7.337   5.972  1.00  0.00     0.057 A 
HETATM    5  C   UNL     1      63.439   8.368   5.085  1.00  0.00    -0.054 A 
HETATM    6  C   UNL     1      62.393   9.144   4.358  1.00  0.00     0.048 C 
ENDROOT
BRANCH   1   7
HETATM    7  C   UNL     1      67.069   7.741   5.802  1.00  0.00     0.256 C 
HETATM    8  O   UNL     1      67.806   8.266   4.971  1.00  0.00    -0.267 OA
HETATM    9  N   UNL     1      67.633   7.105   6.873  1.00  0.00    -0.366 N 
HETATM   10  H   UNL     1      67.060   6.679   7.550  1.00  0.00     0.159 HD
HETATM   11  H   UNL     1      68.613   7.074   6.967  1.00  0.00     0.159 HD
ENDBRANCH   1   7
TORSDOF 1
ENDMDL
MODEL 9
REMARK VINA RESULT:      -3.3     13.476     14.008
REMARK  1 active torsions:
REMARK  status: ('A' for Active; 'I' for Inactive)
REMARK    1  A    between atoms: C_1  and  C_4 
REMARK       I    between atoms: C_4  and  N_8 
ROOT
HETATM    1  C   UNL     1      56.680   2.148  13.208  1.00  0.00     0.072 A 
HETATM    2  S   UNL     1      57.732   2.521  11.910  1.00  0.00    -0.096 SA
HETATM    3  C   UNL     1      57.122   1.031  13.895  1.00  0.00     0.031 A 
HETATM    4  C   UNL     1      58.759   1.202  12.270  1.00  0.00     0.057 A 
HETATM    5  C   UNL     1      58.327   0.473  13.361  1.00  0.00    -0.054 A 
HETATM    6  C   UNL     1      59.008  -0.731  13.919  1.00  0.00     0.048 C 
ENDROOT
BRANCH   1   7
HETATM    7  C   UNL     1      55.494   2.930  13.509  1.00  0.00     0.256 C 
HETATM    8  O   UNL     1      54.932   3.666  12.701  1.00  0.00    -0.267 OA
HETATM    9  N   UNL     1      54.984   2.829  14.773  1.00  0.00    -0.366 N 
HETATM   10  H   UNL     1      55.419   2.246  15.435  1.00  0.00     0.159 HD
HETATM   11  H   UNL     1      54.180   3.342  15.022  1.00  0.00     0.159 HD
ENDBRANCH   1   7
TORSDOF 1
ENDMDL
