MODEL 1
REMARK VINA RESULT:      -5.2      0.000      0.000
REMARK  2 active torsions:
REMARK  status: ('A' for Active; 'I' for Inactive)
REMARK    1  A    between atoms: CA_5  and  C_11 
REMARK    2  A    between atoms: C_11  and  O_12 
ROOT
HETATM    1  N   UNL     1      62.156  10.991   3.910  1.00  0.00    -0.343 N 
ATOM      2  HN  UNL     1      61.704  11.901   3.821  1.00  0.00     0.167 HD
HETATM    3  N   UNL     1      62.878   8.915   3.489  1.00  0.00    -0.317 N 
HETATM    4  C   UNL     1      62.185  10.023   3.016  1.00  0.00     0.111 A 
HETATM    5  CA  UNL     1      62.869  10.512   4.993  1.00  0.00     0.050 A 
HETATM    6  C   UNL     1      63.310   9.229   4.753  1.00  0.00     0.125 A 
HETATM    7  C   UNL     1      63.057   7.745   2.756  1.00  0.00     0.098 A 
HETATM    8  C   UNL     1      61.643   9.932   1.701  1.00  0.00     0.049 A 
HETATM    9  C   UNL     1      62.543   7.664   1.517  1.00  0.00     0.018 A 
HETATM   10  C   UNL     1      61.815   8.805   0.982  1.00  0.00     0.005 A 
ENDROOT
BRANCH   5  11
HETATM   11  C   UNL     1      63.038  11.356   6.206  1.00  0.00     0.222 C 
BRANCH  11  12
HETATM   12  O   UNL     1      64.418  11.582   6.491  1.00  0.00    -0.395 OA
HETATM   13  H   UNL     1      64.700  10.994   7.210  1.00  0.00     0.209 HD
ENDBRANCH  11  12
ENDBRANCH   5  11
TORSDOF 2
ENDMDL
MODEL 2
REMARK VINA RESULT:      -4.7      1.196      2.220
REMARK  2 active torsions:
REMARK  status: ('A' for Active; 'I' for Inactive)
REMARK    1  A    between atoms: CA_5  and  C_11 
REMARK    2  A    between atoms: C_11  and  O_12 
ROOT
HETATM    1  N   UNL     1      64.013   9.131   5.280  1.00  0.00    -0.343 N 
ATOM      2  HN  UNL     1      64.687   9.015   6.037  1.00  0.00     0.167 HD
HETATM    3  N   UNL     1      62.821   8.808   3.414  1.00  0.00    -0.317 N 
HETATM    4  C   UNL     1      63.808   8.319   4.263  1.00  0.00     0.111 A 
HETATM    5  CA  UNL     1      63.122  10.172   5.105  1.00  0.00     0.050 A 
HETATM    6  C   UNL     1      62.388   9.993   3.952  1.00  0.00     0.125 A 
HETATM    7  C   UNL     1      62.407   8.157   2.255  1.00  0.00     0.098 A 
HETATM    8  C   UNL     1      64.407   7.076   3.908  1.00  0.00     0.049 A 
HETATM    9  C   UNL     1      62.977   6.985   1.924  1.00  0.00     0.018 A 
HETATM   10  C   UNL     1      64.010   6.436   2.790  1.00  0.00     0.005 A 
ENDROOT
BRANCH   5  11
HETATM   11  C   UNL     1      63.080  11.292   6.084  1.00  0.00     0.222 C 
BRANCH  11  12
HETATM   12  O   UNL     1      64.392  11.655   6.511  1.00  0.00    -0.395 OA
HETATM   13  H   UNL     1      64.372  11.886   7.454  1.00  0.00     0.209 HD
ENDBRANCH  11  12
ENDBRANCH   5  11
TORSDOF 2
ENDMDL
MODEL 3
REMARK VINA RESULT:      -4.6      1.921      2.931
REMARK  2 active torsions:
REMARK  status: ('A' for Active; 'I' for Inactive)
REMARK    1  A    between atoms: CA_5  and  C_11 
REMARK    2  A    between atoms: C_11  and  O_12 
ROOT
HETATM    1  N   UNL     1      63.433   9.031   5.460  1.00  0.00    -0.343 N 
ATOM      2  HN  UNL     1      63.530   9.403   6.405  1.00  0.00     0.167 HD
HETATM    3  N   UNL     1      62.910   8.810   3.296  1.00  0.00    -0.317 N 
HETATM    4  C   UNL     1      62.884   9.626   4.421  1.00  0.00     0.111 A 
HETATM    5  CA  UNL     1      63.850   7.797   4.999  1.00  0.00     0.050 A 
HETATM    6  C   UNL     1      63.525   7.641   3.669  1.00  0.00     0.125 A 
HETATM    7  C   UNL     1      62.391   9.182   2.058  1.00  0.00     0.098 A 
HETATM    8  C   UNL     1      62.293  10.913   4.270  1.00  0.00     0.049 A 
HETATM    9  C   UNL     1      61.833  10.398   1.922  1.00  0.00     0.018 A 
HETATM   10  C   UNL     1      61.791  11.285   3.075  1.00  0.00     0.005 A 
ENDROOT
BRANCH   5  11
HETATM   11  C   UNL     1      64.522   6.843   5.923  1.00  0.00     0.222 C 
BRANCH  11  12
HETATM   12  O   UNL     1      64.341   7.227   7.285  1.00  0.00    -0.395 OA
HETATM   13  H   UNL     1      64.460   8.187   7.369  1.00  0.00     0.209 HD
ENDBRANCH  11  12
ENDBRANCH   5  11
TORSDOF 2
ENDMDL
MODEL 4
REMARK VINA RESULT:      -4.3      1.820      2.902
REMARK  2 active torsions:
REMARK  status: ('A' for Active; 'I' for Inactive)
REMARK    1  A    between atoms: CA_5  and  C_11 
REMARK    2  A    between atoms: C_11  and  O_12 
ROOT
HETATM    1  N   UNL     1      63.282   7.562   3.771  1.00  0.00    -0.343 N 
ATOM      2  HN  UNL     1      63.527   6.682   3.316  1.00  0.00     0.167 HD
HETATM    3  N   UNL     1      62.598   9.661   4.133  1.00  0.00    -0.317 N 
HETATM    4  C   UNL     1      62.789   8.644   3.204  1.00  0.00     0.111 A 
HETATM    5  CA  UNL     1      63.399   7.870   5.113  1.00  0.00     0.050 A 
HETATM    6  C   UNL     1      62.991   9.165   5.350  1.00  0.00     0.125 A 
HETATM    7  C   UNL     1      62.095  10.919   3.809  1.00  0.00     0.098 A 
HETATM    8  C   UNL     1      62.437   8.929   1.854  1.00  0.00     0.049 A 
HETATM    9  C   UNL     1      61.765  11.183   2.533  1.00  0.00     0.018 A 
HETATM   10  C   UNL     1      61.946  10.142   1.531  1.00  0.00     0.005 A 
ENDROOT
BRANCH   5  11
HETATM   11  C   UNL     1      63.934   6.861   6.067  1.00  0.00     0.222 C 
BRANCH  11  12
HETATM   12  O   UNL     1      64.879   7.445   6.962  1.00  0.00    -0.395 OA
HETATM   13  H   UNL     1      65.433   8.078   6.479  1.00  0.00     0.209 HD
ENDBRANCH  11  12
ENDBRANCH   5  11
TORSDOF 2
ENDMDL
MODEL 5
REMARK VINA RESULT:      -4.0      2.766      3.961
REMARK  2 active torsions:
REMARK  status: ('A' for Active; 'I' for Inactive)
REMARK    1  A    between atoms: CA_5  and  C_11 
REMARK    2  A    between atoms: C_11  and  O_12 
ROOT
HETATM    1  N   UNL     1      64.114   9.506   5.425  1.00  0.00    -0.343 N 
ATOM      2  HN  UNL     1      64.242  10.201   6.160  1.00  0.00     0.167 HD
HETATM    3  N   UNL     1      64.377   7.713   4.113  1.00  0.00    -0.317 N 
HETATM    4  C   UNL     1      64.826   8.415   5.226  1.00  0.00     0.111 A 
HETATM    5  CA  UNL     1      63.160   9.510   4.426  1.00  0.00     0.050 A 
HETATM    6  C   UNL     1      63.316   8.415   3.602  1.00  0.00     0.125 A 
HETATM    7  C   UNL     1      64.952   6.525   3.667  1.00  0.00     0.098 A 
HETATM    8  C   UNL     1      65.930   7.863   5.936  1.00  0.00     0.049 A 
HETATM    9  C   UNL     1      65.995   6.009   4.339  1.00  0.00     0.018 A 
HETATM   10  C   UNL     1      66.490   6.712   5.514  1.00  0.00     0.005 A 
ENDROOT
BRANCH   5  11
HETATM   11  C   UNL     1      62.171  10.618   4.343  1.00  0.00     0.222 C 
BRANCH  11  12
HETATM   12  O   UNL     1      60.988  10.207   3.659  1.00  0.00    -0.395 OA
HETATM   13  H   UNL     1      60.209  10.493   4.161  1.00  0.00     0.209 HD
ENDBRANCH  11  12
ENDBRANCH   5  11
TORSDOF 2
ENDMDL
MODEL 6
REMARK VINA RESULT:      -4.0     11.741     12.645
REMARK  2 active torsions:
REMARK  status: ('A' for Active; 'I' for Inactive)
REMARK    1  A    between atoms: CA_5  and  C_11 
REMARK    2  A    between atoms: C_11  and  O_12 
ROOT
HETATM    1  N   UNL     1      58.583   3.151  11.878  1.00  0.00    -0.343 N 
ATOM      2  HN  UNL     1      58.679   4.102  12.233  1.00  0.00     0.167 HD
HETATM    3  N   UNL     1      58.422   0.923  11.758  1.00  0.00    -0.317 N 
HETATM    4  C   UNL     1      58.539   2.037  12.581  1.00  0.00     0.111 A 
HETATM    5  CA  UNL     1      58.471   2.757  10.558  1.00  0.00     0.050 A 
HETATM    6  C   UNL     1      58.383   1.385  10.467  1.00  0.00     0.125 A 
HETATM    7  C   UNL     1      58.361  -0.385  12.234  1.00  0.00     0.098 A 
HETATM    8  C   UNL     1      58.589   1.802  13.984  1.00  0.00     0.049 A 
HETATM    9  C   UNL     1      58.411  -0.602  13.560  1.00  0.00     0.018 A 
HETATM   10  C   UNL     1      58.527   0.540  14.455  1.00  0.00     0.005 A 
ENDROOT
BRANCH   5  11
HETATM   11  C   UNL     1      58.487   3.774   9.472  1.00  0.00     0.222 C 
BRANCH  11  12
HETATM   12  O   UNL     1      58.682   5.087   9.994  1.00  0.00    -0.395 OA
HETATM   13  H   UNL     1      59.484   5.474   9.607  1.00  0.00     0.209 HD
ENDBRANCH  11  12
ENDBRANCH   5  11
TORSDOF 2
ENDMDL
MODEL 7
REMARK VINA RESULT:      -3.9      2.804      4.381
REMARK  2 active torsions:
REMARK  status: ('A' for Active; 'I' for Inactive)
REMARK    1  A    between atoms: CA_5  and  C_11 
REMARK    2  A    between atoms: C_11  and  O_12 
ROOT
HETATM    1  N   UNL     1      61.293   9.817   1.898  1.00  0.00    -0.343 N 
ATOM      2  HN  UNL     1      60.666  10.465   1.423  1.00  0.00     0.167 HD
HETATM    3  N   UNL     1      62.721   8.917   3.367  1.00  0.00    -0.317 N 
HETATM    4  C   UNL     1      61.937  10.015   3.031  1.00  0.00     0.111 A 
HETATM    5  CA  UNL     1      61.649   8.545   1.491  1.00  0.00     0.050 A 
HETATM    6  C   UNL     1      62.538   7.982   2.381  1.00  0.00     0.125 A 
HETATM    7  C   UNL     1      63.515   8.856   4.510  1.00  0.00     0.098 A 
HETATM    8  C   UNL     1      61.960  11.122   3.926  1.00  0.00     0.049 A 
HETATM    9  C   UNL     1      63.533   9.904   5.351  1.00  0.00     0.018 A 
HETATM   10  C   UNL     1      62.721  11.071   5.037  1.00  0.00     0.005 A 
ENDROOT
BRANCH   5  11
HETATM   11  C   UNL     1      61.099   7.986   0.226  1.00  0.00     0.222 C 
BRANCH  11  12
HETATM   12  O   UNL     1      59.675   8.060   0.202  1.00  0.00    -0.395 OA
HETATM   13  H   UNL     1      59.333   7.479  -0.495  1.00  0.00     0.209 HD
ENDBRANCH  11  12
ENDBRANCH   5  11
TORSDOF 2
ENDMDL
MODEL 8
REMARK VINA RESULT:      -3.7      2.731      4.183
REMARK  2 active torsions:
REMARK  status: ('A' for Active; 'I' for Inactive)
REMARK    1  A    between atoms: CA_5  and  C_11 
REMARK    2  A    between atoms: C_11  and  O_12 
ROOT
HETATM    1  N   UNL     1      63.373   7.592   3.211  1.00  0.00    -0.343 N 
ATOM      2  HN  UNL     1      62.985   7.066   2.428  1.00  0.00     0.167 HD
HETATM    3  N   UNL     1      64.708   8.275   4.872  1.00  0.00    -0.317 N 
HETATM    4  C   UNL     1      64.512   7.369   3.836  1.00  0.00     0.111 A 
HETATM    5  CA  UNL     1      62.816   8.688   3.842  1.00  0.00     0.050 A 
HETATM    6  C   UNL     1      63.622   9.114   4.876  1.00  0.00     0.125 A 
HETATM    7  C   UNL     1      65.824   8.267   5.704  1.00  0.00     0.098 A 
HETATM    8  C   UNL     1      65.528   6.393   3.632  1.00  0.00     0.049 A 
HETATM    9  C   UNL     1      66.781   7.343   5.508  1.00  0.00     0.018 A 
HETATM   10  C   UNL     1      66.615   6.379   4.429  1.00  0.00     0.005 A 
ENDROOT
BRANCH   5  11
HETATM   11  C   UNL     1      61.503   9.222   3.389  1.00  0.00     0.222 C 
BRANCH  11  12
HETATM   12  O   UNL     1      61.312  10.566   3.827  1.00  0.00    -0.395 OA
HETATM   13  H   UNL     1      60.960  11.098   3.096  1.00  0.00     0.209 HD
ENDBRANCH  11  12
ENDBRANCH   5  11
TORSDOF 2
ENDMDL
MODEL 9
REMARK VINA RESULT:      -3.7      4.106      4.937
REMARK  2 active torsions:
REMARK  status: ('A' for Active; 'I' for Inactive)
REMARK    1  A    between atoms: CA_5  and  C_11 
REMARK    2  A    between atoms: C_11  and  O_12 
ROOT
HETATM    1  N   UNL     1      65.850   7.645   7.023  1.00  0.00    -0.343 N 
ATOM      2  HN  UNL     1      66.339   8.488   7.324  1.00  0.00     0.167 HD
HETATM    3  N   UNL     1      64.560   6.218   5.880  1.00  0.00    -0.317 N 
HETATM    4  C   UNL     1      65.076   7.506   5.965  1.00  0.00     0.111 A 
HETATM    5  CA  UNL     1      65.858   6.408   7.637  1.00  0.00     0.050 A 
HETATM    6  C   UNL     1      65.057   5.520   6.950  1.00  0.00     0.125 A 
HETATM    7  C   UNL     1      63.705   5.795   4.865  1.00  0.00     0.098 A 
HETATM    8  C   UNL     1      64.700   8.422   4.940  1.00  0.00     0.049 A 
HETATM    9  C   UNL     1      63.352   6.663   3.901  1.00  0.00     0.018 A 
HETATM   10  C   UNL     1      63.877   8.020   3.952  1.00  0.00     0.005 A 
ENDROOT
BRANCH   5  11
HETATM   11  C   UNL     1      66.641   6.199   8.885  1.00  0.00     0.222 C 
BRANCH  11  12
HETATM   12  O   UNL     1      67.965   6.716   8.758  1.00  0.00    -0.395 OA
HETATM   13  H   UNL     1      68.298   6.969   9.634  1.00  0.00     0.209 HD
ENDBRANCH  11  12
ENDBRANCH   5  11
TORSDOF 2
ENDMDL
