MODEL 1
REMARK VINA RESULT:      -4.8      0.000      0.000
REMARK  2 active torsions:
REMARK  status: ('A' for Active; 'I' for Inactive)
REMARK    1  A    between atoms: C_6  and  C_10 
REMARK    2  A    between atoms: N_8  and  C_10 
ROOT
HETATM    1  C   UNL     1      65.104   8.069   5.014  1.00  0.00    -0.024 A 
HETATM    2  C   UNL     1      64.928   7.022   4.107  1.00  0.00     0.075 A 
HETATM    3  O   UNL     1      65.760   5.935   4.035  1.00  0.00    -0.351 OA
HETATM    4  C   UNL     1      64.179   9.124   5.030  1.00  0.00     0.018 A 
HETATM    5  C   UNL     1      63.883   7.058   3.186  1.00  0.00     0.038 A 
HETATM    6  C   UNL     1      63.116   9.168   4.111  1.00  0.00    -0.032 A 
HETATM    7  C   UNL     1      62.983   8.125   3.184  1.00  0.00     0.011 A 
HETATM    8  C   UNL     1      66.256   8.072   5.977  1.00  0.00     0.043 C 
HETATM    9  C   UNL     1      66.602   5.761   5.177  1.00  0.00     0.176 C 
HETATM   10  C   UNL     1      67.304   7.052   5.560  1.00  0.00     0.031 C 
ENDROOT
BRANCH   6  11
HETATM   11  C   UNL     1      62.125  10.311   4.133  1.00  0.00     0.270 C 
BRANCH  11  12
HETATM   12  N   UNL     1      61.391  10.414   2.870  1.00  0.00    -0.075 N 
HETATM   13  C   UNL     1      61.784  11.604   2.131  1.00  0.00     0.267 C 
HETATM   14  H   UNL     1      60.391  10.460   3.069  1.00  0.00     0.277 HD
HETATM   15  H   UNL     1      61.606   9.595   2.303  1.00  0.00     0.277 HD
ENDBRANCH  11  12
ENDBRANCH   6  11
TORSDOF 2
ENDMDL
MODEL 2
REMARK VINA RESULT:      -4.7      2.057      2.830
REMARK  2 active torsions:
REMARK  status: ('A' for Active; 'I' for Inactive)
REMARK    1  A    between atoms: C_6  and  C_10 
REMARK    2  A    between atoms: N_8  and  C_10 
ROOT
HETATM    1  C   UNL     1      63.988   7.933   3.921  1.00  0.00    -0.024 A 
HETATM    2  C   UNL     1      63.982   8.985   4.841  1.00  0.00     0.075 A 
HETATM    3  O   UNL     1      64.833   9.057   5.913  1.00  0.00    -0.351 OA
HETATM    4  C   UNL     1      63.096   7.965   2.838  1.00  0.00     0.018 A 
HETATM    5  C   UNL     1      63.058  10.020   4.719  1.00  0.00     0.038 A 
HETATM    6  C   UNL     1      62.163   9.008   2.700  1.00  0.00    -0.032 A 
HETATM    7  C   UNL     1      62.150  10.032   3.657  1.00  0.00     0.011 A 
HETATM    8  C   UNL     1      64.942   6.783   4.069  1.00  0.00     0.043 C 
HETATM    9  C   UNL     1      65.962   8.182   5.830  1.00  0.00     0.176 C 
HETATM   10  C   UNL     1      65.550   6.767   5.463  1.00  0.00     0.031 C 
ENDROOT
BRANCH   6  11
HETATM   11  C   UNL     1      61.203   9.034   1.531  1.00  0.00     0.270 C 
BRANCH  11  12
HETATM   12  N   UNL     1      59.921   8.414   1.871  1.00  0.00    -0.075 N 
HETATM   13  C   UNL     1      59.272   7.871   0.688  1.00  0.00     0.267 C 
HETATM   14  H   UNL     1      59.313   9.118   2.292  1.00  0.00     0.277 HD
HETATM   15  H   UNL     1      60.094   7.652   2.525  1.00  0.00     0.277 HD
ENDBRANCH  11  12
ENDBRANCH   6  11
TORSDOF 2
ENDMDL
MODEL 3
REMARK VINA RESULT:      -4.4      2.682      5.065
REMARK  2 active torsions:
REMARK  status: ('A' for Active; 'I' for Inactive)
REMARK    1  A    between atoms: C_6  and  C_10 
REMARK    2  A    between atoms: N_8  and  C_10 
ROOT
HETATM    1  C   UNL     1      63.130   8.897   3.944  1.00  0.00    -0.024 A 
HETATM    2  C   UNL     1      64.120   9.150   4.897  1.00  0.00     0.075 A 
HETATM    3  O   UNL     1      64.133  10.264   5.697  1.00  0.00    -0.351 OA
HETATM    4  C   UNL     1      63.189   7.713   3.194  1.00  0.00     0.018 A 
HETATM    5  C   UNL     1      65.187   8.268   5.053  1.00  0.00     0.038 A 
HETATM    6  C   UNL     1      64.256   6.811   3.348  1.00  0.00    -0.032 A 
HETATM    7  C   UNL     1      65.259   7.106   4.282  1.00  0.00     0.011 A 
HETATM    8  C   UNL     1      62.002   9.864   3.726  1.00  0.00     0.043 C 
HETATM    9  C   UNL     1      62.887  10.964   5.752  1.00  0.00     0.176 C 
HETATM   10  C   UNL     1      62.317  11.207   4.365  1.00  0.00     0.031 C 
ENDROOT
BRANCH   6  11
HETATM   11  C   UNL     1      64.314   5.538   2.533  1.00  0.00     0.270 C 
BRANCH  11  12
HETATM   12  N   UNL     1      65.455   4.703   2.914  1.00  0.00    -0.075 N 
HETATM   13  C   UNL     1      65.021   3.378   3.328  1.00  0.00     0.267 C 
HETATM   14  H   UNL     1      65.950   5.149   3.687  1.00  0.00     0.277 HD
HETATM   15  H   UNL     1      66.068   4.605   2.105  1.00  0.00     0.277 HD
ENDBRANCH  11  12
ENDBRANCH   6  11
TORSDOF 2
ENDMDL
MODEL 4
REMARK VINA RESULT:      -4.3      2.679      5.077
REMARK  2 active torsions:
REMARK  status: ('A' for Active; 'I' for Inactive)
REMARK    1  A    between atoms: C_6  and  C_10 
REMARK    2  A    between atoms: N_8  and  C_10 
ROOT
HETATM    1  C   UNL     1      63.657   8.723   4.268  1.00  0.00    -0.024 A 
HETATM    2  C   UNL     1      63.714   7.669   3.352  1.00  0.00     0.075 A 
HETATM    3  O   UNL     1      62.815   7.506   2.329  1.00  0.00    -0.351 OA
HETATM    4  C   UNL     1      64.642   8.819   5.263  1.00  0.00     0.018 A 
HETATM    5  C   UNL     1      64.698   6.691   3.467  1.00  0.00     0.038 A 
HETATM    6  C   UNL     1      65.646   7.842   5.384  1.00  0.00    -0.032 A 
HETATM    7  C   UNL     1      65.658   6.772   4.478  1.00  0.00     0.011 A 
HETATM    8  C   UNL     1      62.571   9.756   4.191  1.00  0.00     0.043 C 
HETATM    9  C   UNL     1      62.038   8.671   2.036  1.00  0.00     0.176 C 
HETATM   10  C   UNL     1      61.439   9.277   3.294  1.00  0.00     0.031 C 
ENDROOT
BRANCH   6  11
HETATM   11  C   UNL     1      66.702   7.951   6.461  1.00  0.00     0.270 C 
BRANCH  11  12
HETATM   12  N   UNL     1      67.836   7.062   6.198  1.00  0.00    -0.075 N 
HETATM   13  C   UNL     1      67.929   6.020   7.209  1.00  0.00     0.267 C 
HETATM   14  H   UNL     1      68.697   7.610   6.204  1.00  0.00     0.277 HD
HETATM   15  H   UNL     1      67.697   6.621   5.290  1.00  0.00     0.277 HD
ENDBRANCH  11  12
ENDBRANCH   6  11
TORSDOF 2
ENDMDL
MODEL 5
REMARK VINA RESULT:      -4.2      3.204      5.868
REMARK  2 active torsions:
REMARK  status: ('A' for Active; 'I' for Inactive)
REMARK    1  A    between atoms: C_6  and  C_10 
REMARK    2  A    between atoms: N_8  and  C_10 
ROOT
HETATM    1  C   UNL     1      64.859   7.217   4.715  1.00  0.00    -0.024 A 
HETATM    2  C   UNL     1      65.335   8.270   5.501  1.00  0.00     0.075 A 
HETATM    3  O   UNL     1      64.704   9.483   5.603  1.00  0.00    -0.351 OA
HETATM    4  C   UNL     1      65.562   6.002   4.700  1.00  0.00     0.018 A 
HETATM    5  C   UNL     1      66.527   8.135   6.209  1.00  0.00     0.038 A 
HETATM    6  C   UNL     1      66.762   5.851   5.417  1.00  0.00    -0.032 A 
HETATM    7  C   UNL     1      67.240   6.935   6.166  1.00  0.00     0.011 A 
HETATM    8  C   UNL     1      63.605   7.364   3.904  1.00  0.00     0.043 C 
HETATM    9  C   UNL     1      63.348   9.482   5.148  1.00  0.00     0.176 C 
HETATM   10  C   UNL     1      63.214   8.828   3.783  1.00  0.00     0.031 C 
ENDROOT
BRANCH   6  11
HETATM   11  C   UNL     1      67.514   4.540   5.393  1.00  0.00     0.270 C 
BRANCH  11  12
HETATM   12  N   UNL     1      68.023   4.184   6.720  1.00  0.00    -0.075 N 
HETATM   13  C   UNL     1      67.022   3.459   7.487  1.00  0.00     0.267 C 
HETATM   14  H   UNL     1      68.273   5.037   7.220  1.00  0.00     0.277 HD
HETATM   15  H   UNL     1      68.839   3.584   6.603  1.00  0.00     0.277 HD
ENDBRANCH  11  12
ENDBRANCH   6  11
TORSDOF 2
ENDMDL
MODEL 6
REMARK VINA RESULT:      -4.1      1.975      2.894
REMARK  2 active torsions:
REMARK  status: ('A' for Active; 'I' for Inactive)
REMARK    1  A    between atoms: C_6  and  C_10 
REMARK    2  A    between atoms: N_8  and  C_10 
ROOT
HETATM    1  C   UNL     1      65.373   7.055   4.109  1.00  0.00    -0.024 A 
HETATM    2  C   UNL     1      65.412   8.151   4.974  1.00  0.00     0.075 A 
HETATM    3  O   UNL     1      66.495   8.459   5.756  1.00  0.00    -0.351 OA
HETATM    4  C   UNL     1      64.227   6.841   3.328  1.00  0.00     0.018 A 
HETATM    5  C   UNL     1      64.303   8.983   5.106  1.00  0.00     0.038 A 
HETATM    6  C   UNL     1      63.104   7.678   3.445  1.00  0.00    -0.032 A 
HETATM    7  C   UNL     1      63.153   8.748   4.349  1.00  0.00     0.011 A 
HETATM    8  C   UNL     1      66.540   6.118   3.995  1.00  0.00     0.043 C 
HETATM    9  C   UNL     1      67.708   7.808   5.367  1.00  0.00     0.176 C 
HETATM   10  C   UNL     1      67.502   6.318   5.157  1.00  0.00     0.031 C 
ENDROOT
BRANCH   6  11
HETATM   11  C   UNL     1      61.872   7.438   2.601  1.00  0.00     0.270 C 
BRANCH  11  12
HETATM   12  N   UNL     1      61.172   6.216   3.000  1.00  0.00    -0.075 N 
HETATM   13  C   UNL     1      60.184   6.491   4.032  1.00  0.00     0.267 C 
HETATM   14  H   UNL     1      61.852   5.545   3.359  1.00  0.00     0.277 HD
HETATM   15  H   UNL     1      60.691   5.838   2.184  1.00  0.00     0.277 HD
ENDBRANCH  11  12
ENDBRANCH   6  11
TORSDOF 2
ENDMDL
MODEL 7
REMARK VINA RESULT:      -4.1      2.311      3.039
REMARK  2 active torsions:
REMARK  status: ('A' for Active; 'I' for Inactive)
REMARK    1  A    between atoms: C_6  and  C_10 
REMARK    2  A    between atoms: N_8  and  C_10 
ROOT
HETATM    1  C   UNL     1      65.835   6.642   7.244  1.00  0.00    -0.024 A 
HETATM    2  C   UNL     1      66.872   6.499   6.319  1.00  0.00     0.075 A 
HETATM    3  O   UNL     1      68.075   5.913   6.616  1.00  0.00    -0.351 OA
HETATM    4  C   UNL     1      64.628   7.230   6.835  1.00  0.00     0.018 A 
HETATM    5  C   UNL     1      66.732   6.995   5.025  1.00  0.00     0.038 A 
HETATM    6  C   UNL     1      64.472   7.727   5.530  1.00  0.00    -0.032 A 
HETATM    7  C   UNL     1      65.541   7.608   4.631  1.00  0.00     0.011 A 
HETATM    8  C   UNL     1      65.989   6.161   8.658  1.00  0.00     0.043 C 
HETATM    9  C   UNL     1      68.072   5.134   7.815  1.00  0.00     0.176 C 
HETATM   10  C   UNL     1      67.452   5.894   8.976  1.00  0.00     0.031 C 
ENDROOT
BRANCH   6  11
HETATM   11  C   UNL     1      63.169   8.362   5.098  1.00  0.00     0.270 C 
BRANCH  11  12
HETATM   12  N   UNL     1      63.002   9.698   5.673  1.00  0.00    -0.075 N 
HETATM   13  C   UNL     1      62.542  10.647   4.670  1.00  0.00     0.267 C 
HETATM   14  H   UNL     1      63.897  10.014   6.046  1.00  0.00     0.277 HD
HETATM   15  H   UNL     1      62.303   9.646   6.413  1.00  0.00     0.277 HD
ENDBRANCH  11  12
ENDBRANCH   6  11
TORSDOF 2
ENDMDL
MODEL 8
REMARK VINA RESULT:      -4.0      3.118      5.366
REMARK  2 active torsions:
REMARK  status: ('A' for Active; 'I' for Inactive)
REMARK    1  A    between atoms: C_6  and  C_10 
REMARK    2  A    between atoms: N_8  and  C_10 
ROOT
HETATM    1  C   UNL     1      61.671   8.211   2.415  1.00  0.00    -0.024 A 
HETATM    2  C   UNL     1      60.882   7.268   3.079  1.00  0.00     0.075 A 
HETATM    3  O   UNL     1      59.776   6.681   2.522  1.00  0.00    -0.351 OA
HETATM    4  C   UNL     1      62.803   8.732   3.060  1.00  0.00     0.018 A 
HETATM    5  C   UNL     1      61.180   6.899   4.389  1.00  0.00     0.038 A 
HETATM    6  C   UNL     1      63.119   8.363   4.379  1.00  0.00    -0.032 A 
HETATM    7  C   UNL     1      62.290   7.445   5.039  1.00  0.00     0.011 A 
HETATM    8  C   UNL     1      61.333   8.658   1.022  1.00  0.00     0.043 C 
HETATM    9  C   UNL     1      59.687   6.818   1.102  1.00  0.00     0.176 C 
HETATM   10  C   UNL     1      59.912   8.254   0.661  1.00  0.00     0.031 C 
ENDROOT
BRANCH   6  11
HETATM   11  C   UNL     1      64.339   8.932   5.068  1.00  0.00     0.270 C 
BRANCH  11  12
HETATM   12  N   UNL     1      64.827   8.043   6.125  1.00  0.00    -0.075 N 
HETATM   13  C   UNL     1      66.281   8.022   6.162  1.00  0.00     0.267 C 
HETATM   14  H   UNL     1      64.483   7.099   5.951  1.00  0.00     0.277 HD
HETATM   15  H   UNL     1      64.485   8.390   7.022  1.00  0.00     0.277 HD
ENDBRANCH  11  12
ENDBRANCH   6  11
TORSDOF 2
ENDMDL
MODEL 9
REMARK VINA RESULT:      -4.0      3.312      5.373
REMARK  2 active torsions:
REMARK  status: ('A' for Active; 'I' for Inactive)
REMARK    1  A    between atoms: C_6  and  C_10 
REMARK    2  A    between atoms: N_8  and  C_10 
ROOT
HETATM    1  C   UNL     1      62.107   8.861   3.181  1.00  0.00    -0.024 A 
HETATM    2  C   UNL     1      62.491   9.812   4.131  1.00  0.00     0.075 A 
HETATM    3  O   UNL     1      62.493  11.162   3.892  1.00  0.00    -0.351 OA
HETATM    4  C   UNL     1      62.111   7.503   3.532  1.00  0.00     0.018 A 
HETATM    5  C   UNL     1      62.935   9.409   5.388  1.00  0.00     0.038 A 
HETATM    6  C   UNL     1      62.549   7.084   4.800  1.00  0.00    -0.032 A 
HETATM    7  C   UNL     1      62.968   8.053   5.722  1.00  0.00     0.011 A 
HETATM    8  C   UNL     1      61.677   9.276   1.804  1.00  0.00     0.043 C 
HETATM    9  C   UNL     1      61.737  11.559   2.745  1.00  0.00     0.176 C 
HETATM   10  C   UNL     1      62.079  10.716   1.528  1.00  0.00     0.031 C 
ENDROOT
BRANCH   6  11
HETATM   11  C   UNL     1      62.553   5.617   5.169  1.00  0.00     0.270 C 
BRANCH  11  12
HETATM   12  N   UNL     1      61.838   5.373   6.423  1.00  0.00    -0.075 N 
HETATM   13  C   UNL     1      60.398   5.405   6.220  1.00  0.00     0.267 C 
HETATM   14  H   UNL     1      62.096   6.093   7.099  1.00  0.00     0.277 HD
HETATM   15  H   UNL     1      62.096   4.449   6.768  1.00  0.00     0.277 HD
ENDBRANCH  11  12
ENDBRANCH   6  11
TORSDOF 2
ENDMDL
