MODEL 1
REMARK VINA RESULT:      -5.0      0.000      0.000
REMARK  2 active torsions:
REMARK  status: ('A' for Active; 'I' for Inactive)
REMARK    1  A    between atoms: C_6  and  C_10 
REMARK    2  A    between atoms: N_8  and  C_10 
ROOT
HETATM    1  C   UNL     1      62.566   8.677   2.830  1.00  0.00    -0.024 A 
HETATM    2  C   UNL     1      62.073   9.437   1.763  1.00  0.00     0.075 A 
HETATM    3  O   UNL     1      61.865   8.930   0.506  1.00  0.00    -0.351 OA
HETATM    4  C   UNL     1      62.711   9.281   4.086  1.00  0.00     0.018 A 
HETATM    5  C   UNL     1      61.793  10.791   1.934  1.00  0.00     0.038 A 
HETATM    6  C   UNL     1      62.406  10.639   4.277  1.00  0.00    -0.032 A 
HETATM    7  C   UNL     1      61.959  11.392   3.184  1.00  0.00     0.011 A 
HETATM    8  C   UNL     1      62.913   7.228   2.650  1.00  0.00     0.043 C 
HETATM    9  C   UNL     1      61.825   7.501   0.450  1.00  0.00     0.176 C 
HETATM   10  C   UNL     1      63.010   6.883   1.170  1.00  0.00     0.031 C 
ENDROOT
BRANCH   6  11
HETATM   11  C   UNL     1      62.570  11.272   5.636  1.00  0.00     0.268 C 
BRANCH  11  12
HETATM   12  N   UNL     1      63.951  11.193   6.096  1.00  0.00    -0.075 N 
HETATM   13  H   UNL     1      64.523  10.742   5.380  1.00  0.00     0.274 HD
HETATM   14  H   UNL     1      63.992  10.646   6.956  1.00  0.00     0.274 HD
HETATM   15  H   UNL     1      64.306  12.132   6.274  1.00  0.00     0.274 HD
ENDBRANCH  11  12
ENDBRANCH   6  11
TORSDOF 2
ENDMDL
MODEL 2
REMARK VINA RESULT:      -4.9      1.190      2.128
REMARK  2 active torsions:
REMARK  status: ('A' for Active; 'I' for Inactive)
REMARK    1  A    between atoms: C_6  and  C_10 
REMARK    2  A    between atoms: N_8  and  C_10 
ROOT
HETATM    1  C   UNL     1      62.165   9.002   2.365  1.00  0.00    -0.024 A 
HETATM    2  C   UNL     1      62.990   7.929   2.719  1.00  0.00     0.075 A 
HETATM    3  O   UNL     1      63.177   6.825   1.928  1.00  0.00    -0.351 OA
HETATM    4  C   UNL     1      62.067  10.101   3.230  1.00  0.00     0.018 A 
HETATM    5  C   UNL     1      63.652   7.925   3.945  1.00  0.00     0.038 A 
HETATM    6  C   UNL     1      62.753  10.121   4.455  1.00  0.00    -0.032 A 
HETATM    7  C   UNL     1      63.535   9.015   4.811  1.00  0.00     0.011 A 
HETATM    8  C   UNL     1      61.411   9.000   1.067  1.00  0.00     0.043 C 
HETATM    9  C   UNL     1      62.779   7.007   0.565  1.00  0.00     0.176 C 
HETATM   10  C   UNL     1      61.386   7.601   0.467  1.00  0.00     0.031 C 
ENDROOT
BRANCH   6  11
HETATM   11  C   UNL     1      62.634  11.311   5.374  1.00  0.00     0.268 C 
BRANCH  11  12
HETATM   12  N   UNL     1      63.781  11.407   6.270  1.00  0.00    -0.075 N 
HETATM   13  H   UNL     1      64.325  10.544   6.220  1.00  0.00     0.274 HD
HETATM   14  H   UNL     1      63.453  11.547   7.226  1.00  0.00     0.274 HD
HETATM   15  H   UNL     1      64.366  12.194   5.993  1.00  0.00     0.274 HD
ENDBRANCH  11  12
ENDBRANCH   6  11
TORSDOF 2
ENDMDL
MODEL 3
REMARK VINA RESULT:      -4.5      3.187      4.229
REMARK  2 active torsions:
REMARK  status: ('A' for Active; 'I' for Inactive)
REMARK    1  A    between atoms: C_6  and  C_10 
REMARK    2  A    between atoms: N_8  and  C_10 
ROOT
HETATM    1  C   UNL     1      63.870   7.943   3.809  1.00  0.00    -0.024 A 
HETATM    2  C   UNL     1      63.850   9.010   4.714  1.00  0.00     0.075 A 
HETATM    3  O   UNL     1      64.699   9.109   5.786  1.00  0.00    -0.351 OA
HETATM    4  C   UNL     1      62.981   7.953   2.725  1.00  0.00     0.018 A 
HETATM    5  C   UNL     1      62.914  10.034   4.575  1.00  0.00     0.038 A 
HETATM    6  C   UNL     1      62.053   8.994   2.558  1.00  0.00    -0.032 A 
HETATM    7  C   UNL     1      62.019  10.027   3.503  1.00  0.00     0.011 A 
HETATM    8  C   UNL     1      64.843   6.811   3.971  1.00  0.00     0.043 C 
HETATM    9  C   UNL     1      65.844   8.254   5.707  1.00  0.00     0.176 C 
HETATM   10  C   UNL     1      65.451   6.828   5.367  1.00  0.00     0.031 C 
ENDROOT
BRANCH   6  11
HETATM   11  C   UNL     1      61.104   8.987   1.386  1.00  0.00     0.268 C 
BRANCH  11  12
HETATM   12  N   UNL     1      59.849   8.326   1.723  1.00  0.00    -0.075 N 
HETATM   13  H   UNL     1      59.166   8.494   0.983  1.00  0.00     0.274 HD
HETATM   14  H   UNL     1      59.494   8.699   2.603  1.00  0.00     0.274 HD
HETATM   15  H   UNL     1      60.006   7.323   1.818  1.00  0.00     0.274 HD
ENDBRANCH  11  12
ENDBRANCH   6  11
TORSDOF 2
ENDMDL
MODEL 4
REMARK VINA RESULT:      -4.5      3.113      5.076
REMARK  2 active torsions:
REMARK  status: ('A' for Active; 'I' for Inactive)
REMARK    1  A    between atoms: C_6  and  C_10 
REMARK    2  A    between atoms: N_8  and  C_10 
ROOT
HETATM    1  C   UNL     1      63.126   8.912   3.974  1.00  0.00    -0.024 A 
HETATM    2  C   UNL     1      64.124   9.169   4.921  1.00  0.00     0.075 A 
HETATM    3  O   UNL     1      64.145  10.288   5.714  1.00  0.00    -0.351 OA
HETATM    4  C   UNL     1      63.179   7.721   3.237  1.00  0.00     0.018 A 
HETATM    5  C   UNL     1      65.190   8.285   5.079  1.00  0.00     0.038 A 
HETATM    6  C   UNL     1      64.232   6.809   3.407  1.00  0.00    -0.032 A 
HETATM    7  C   UNL     1      65.246   7.110   4.326  1.00  0.00     0.011 A 
HETATM    8  C   UNL     1      61.996   9.876   3.762  1.00  0.00     0.043 C 
HETATM    9  C   UNL     1      62.894  10.981   5.780  1.00  0.00     0.176 C 
HETATM   10  C   UNL     1      62.319  11.223   4.396  1.00  0.00     0.031 C 
ENDROOT
BRANCH   6  11
HETATM   11  C   UNL     1      64.273   5.534   2.603  1.00  0.00     0.268 C 
BRANCH  11  12
HETATM   12  N   UNL     1      63.218   4.613   3.013  1.00  0.00    -0.075 N 
HETATM   13  H   UNL     1      63.086   3.904   2.290  1.00  0.00     0.274 HD
HETATM   14  H   UNL     1      62.349   5.129   3.146  1.00  0.00     0.274 HD
HETATM   15  H   UNL     1      63.482   4.160   3.888  1.00  0.00     0.274 HD
ENDBRANCH  11  12
ENDBRANCH   6  11
TORSDOF 2
ENDMDL
MODEL 5
REMARK VINA RESULT:      -4.4      2.610      3.942
REMARK  2 active torsions:
REMARK  status: ('A' for Active; 'I' for Inactive)
REMARK    1  A    between atoms: C_6  and  C_10 
REMARK    2  A    between atoms: N_8  and  C_10 
ROOT
HETATM    1  C   UNL     1      63.689   8.747   4.350  1.00  0.00    -0.024 A 
HETATM    2  C   UNL     1      63.540   7.807   3.325  1.00  0.00     0.075 A 
HETATM    3  O   UNL     1      62.554   7.874   2.374  1.00  0.00    -0.351 OA
HETATM    4  C   UNL     1      64.752   8.607   5.253  1.00  0.00     0.018 A 
HETATM    5  C   UNL     1      64.396   6.710   3.245  1.00  0.00     0.038 A 
HETATM    6  C   UNL     1      65.639   7.522   5.166  1.00  0.00    -0.032 A 
HETATM    7  C   UNL     1      65.441   6.566   4.161  1.00  0.00     0.011 A 
HETATM    8  C   UNL     1      62.748   9.910   4.474  1.00  0.00     0.043 C 
HETATM    9  C   UNL     1      61.927   9.156   2.271  1.00  0.00     0.176 C 
HETATM   10  C   UNL     1      61.501   9.678   3.631  1.00  0.00     0.031 C 
ENDROOT
BRANCH   6  11
HETATM   11  C   UNL     1      66.775   7.387   6.148  1.00  0.00     0.268 C 
BRANCH  11  12
HETATM   12  N   UNL     1      66.862   8.549   7.024  1.00  0.00    -0.075 N 
HETATM   13  H   UNL     1      67.839   8.833   7.116  1.00  0.00     0.274 HD
HETATM   14  H   UNL     1      66.490   8.310   7.943  1.00  0.00     0.274 HD
HETATM   15  H   UNL     1      66.321   9.317   6.627  1.00  0.00     0.274 HD
ENDBRANCH  11  12
ENDBRANCH   6  11
TORSDOF 2
ENDMDL
MODEL 6
REMARK VINA RESULT:      -4.2      4.171      5.337
REMARK  2 active torsions:
REMARK  status: ('A' for Active; 'I' for Inactive)
REMARK    1  A    between atoms: C_6  and  C_10 
REMARK    2  A    between atoms: N_8  and  C_10 
ROOT
HETATM    1  C   UNL     1      65.073   7.922   5.733  1.00  0.00    -0.024 A 
HETATM    2  C   UNL     1      64.322   6.895   6.315  1.00  0.00     0.075 A 
HETATM    3  O   UNL     1      64.840   5.989   7.205  1.00  0.00    -0.351 OA
HETATM    4  C   UNL     1      64.440   8.818   4.861  1.00  0.00     0.018 A 
HETATM    5  C   UNL     1      62.980   6.728   5.979  1.00  0.00     0.038 A 
HETATM    6  C   UNL     1      63.082   8.676   4.536  1.00  0.00    -0.032 A 
HETATM    7  C   UNL     1      62.361   7.612   5.093  1.00  0.00     0.011 A 
HETATM    8  C   UNL     1      66.531   8.089   6.052  1.00  0.00     0.043 C 
HETATM    9  C   UNL     1      66.087   6.386   7.784  1.00  0.00     0.176 C 
HETATM   10  C   UNL     1      67.075   6.835   6.724  1.00  0.00     0.031 C 
ENDROOT
BRANCH   6  11
HETATM   11  C   UNL     1      62.419   9.649   3.594  1.00  0.00     0.268 C 
BRANCH  11  12
HETATM   12  N   UNL     1      60.980   9.422   3.521  1.00  0.00    -0.075 N 
HETATM   13  H   UNL     1      60.510   9.992   4.226  1.00  0.00     0.274 HD
HETATM   14  H   UNL     1      60.782   8.437   3.695  1.00  0.00     0.274 HD
HETATM   15  H   UNL     1      60.640   9.679   2.595  1.00  0.00     0.274 HD
ENDBRANCH  11  12
ENDBRANCH   6  11
TORSDOF 2
ENDMDL
MODEL 7
REMARK VINA RESULT:      -4.1      2.662      3.561
REMARK  2 active torsions:
REMARK  status: ('A' for Active; 'I' for Inactive)
REMARK    1  A    between atoms: C_6  and  C_10 
REMARK    2  A    between atoms: N_8  and  C_10 
ROOT
HETATM    1  C   UNL     1      63.872   8.059   4.611  1.00  0.00    -0.024 A 
HETATM    2  C   UNL     1      63.655   7.211   3.520  1.00  0.00     0.075 A 
HETATM    3  O   UNL     1      64.172   5.943   3.433  1.00  0.00    -0.351 OA
HETATM    4  C   UNL     1      63.270   9.325   4.619  1.00  0.00     0.018 A 
HETATM    5  C   UNL     1      62.907   7.645   2.428  1.00  0.00     0.038 A 
HETATM    6  C   UNL     1      62.490   9.763   3.537  1.00  0.00    -0.032 A 
HETATM    7  C   UNL     1      62.327   8.915   2.434  1.00  0.00     0.011 A 
HETATM    8  C   UNL     1      64.712   7.621   5.776  1.00  0.00     0.043 C 
HETATM    9  C   UNL     1      64.626   5.409   4.681  1.00  0.00     0.176 C 
HETATM   10  C   UNL     1      65.528   6.388   5.410  1.00  0.00     0.031 C 
ENDROOT
BRANCH   6  11
HETATM   11  C   UNL     1      61.852  11.129   3.562  1.00  0.00     0.268 C 
BRANCH  11  12
HETATM   12  N   UNL     1      61.608  11.627   2.213  1.00  0.00    -0.075 N 
HETATM   13  H   UNL     1      60.611  11.562   2.002  1.00  0.00     0.274 HD
HETATM   14  H   UNL     1      62.134  11.066   1.544  1.00  0.00     0.274 HD
HETATM   15  H   UNL     1      61.906  12.600   2.149  1.00  0.00     0.274 HD
ENDBRANCH  11  12
ENDBRANCH   6  11
TORSDOF 2
ENDMDL
MODEL 8
REMARK VINA RESULT:      -4.0      2.231      3.140
REMARK  2 active torsions:
REMARK  status: ('A' for Active; 'I' for Inactive)
REMARK    1  A    between atoms: C_6  and  C_10 
REMARK    2  A    between atoms: N_8  and  C_10 
ROOT
HETATM    1  C   UNL     1      63.361   7.432   3.166  1.00  0.00    -0.024 A 
HETATM    2  C   UNL     1      64.547   6.957   3.737  1.00  0.00     0.075 A 
HETATM    3  O   UNL     1      65.175   5.808   3.329  1.00  0.00    -0.351 OA
HETATM    4  C   UNL     1      62.816   8.636   3.632  1.00  0.00     0.018 A 
HETATM    5  C   UNL     1      65.140   7.637   4.798  1.00  0.00     0.038 A 
HETATM    6  C   UNL     1      63.420   9.346   4.682  1.00  0.00    -0.032 A 
HETATM    7  C   UNL     1      64.580   8.826   5.271  1.00  0.00     0.011 A 
HETATM    8  C   UNL     1      62.688   6.686   2.051  1.00  0.00     0.043 C 
HETATM    9  C   UNL     1      64.753   5.333   2.047  1.00  0.00     0.176 C 
HETATM   10  C   UNL     1      63.240   5.271   1.947  1.00  0.00     0.031 C 
ENDROOT
BRANCH   6  11
HETATM   11  C   UNL     1      62.819  10.639   5.172  1.00  0.00     0.268 C 
BRANCH  11  12
HETATM   12  N   UNL     1      63.696  11.306   6.127  1.00  0.00    -0.075 N 
HETATM   13  H   UNL     1      64.105  12.134   5.691  1.00  0.00     0.274 HD
HETATM   14  H   UNL     1      64.440  10.668   6.408  1.00  0.00     0.274 HD
HETATM   15  H   UNL     1      63.159  11.584   6.948  1.00  0.00     0.274 HD
ENDBRANCH  11  12
ENDBRANCH   6  11
TORSDOF 2
ENDMDL
MODEL 9
REMARK VINA RESULT:      -4.0      2.416      4.011
REMARK  2 active torsions:
REMARK  status: ('A' for Active; 'I' for Inactive)
REMARK    1  A    between atoms: C_6  and  C_10 
REMARK    2  A    between atoms: N_8  and  C_10 
ROOT
HETATM    1  C   UNL     1      62.398   8.989   2.988  1.00  0.00    -0.024 A 
HETATM    2  C   UNL     1      62.685   9.842   4.059  1.00  0.00     0.075 A 
HETATM    3  O   UNL     1      62.500  11.200   4.016  1.00  0.00    -0.351 OA
HETATM    4  C   UNL     1      62.591   7.610   3.146  1.00  0.00     0.018 A 
HETATM    5  C   UNL     1      63.218   9.333   5.242  1.00  0.00     0.038 A 
HETATM    6  C   UNL     1      63.100   7.082   4.343  1.00  0.00    -0.032 A 
HETATM    7  C   UNL     1      63.426   7.959   5.385  1.00  0.00     0.011 A 
HETATM    8  C   UNL     1      61.864   9.528   1.693  1.00  0.00     0.043 C 
HETATM    9  C   UNL     1      61.648  11.641   2.953  1.00  0.00     0.176 C 
HETATM   10  C   UNL     1      62.060  11.037   1.623  1.00  0.00     0.031 C 
ENDROOT
BRANCH   6  11
HETATM   11  C   UNL     1      63.303   5.595   4.494  1.00  0.00     0.268 C 
BRANCH  11  12
HETATM   12  N   UNL     1      63.772   5.255   5.832  1.00  0.00    -0.075 N 
HETATM   13  H   UNL     1      64.184   6.082   6.268  1.00  0.00     0.274 HD
HETATM   14  H   UNL     1      64.476   4.519   5.768  1.00  0.00     0.274 HD
HETATM   15  H   UNL     1      62.988   4.928   6.396  1.00  0.00     0.274 HD
ENDBRANCH  11  12
ENDBRANCH   6  11
TORSDOF 2
ENDMDL
