MODEL 1
REMARK VINA RESULT:      -5.6      0.000      0.000
REMARK  1 active torsions:
REMARK  status: ('A' for Active; 'I' for Inactive)
REMARK    1  A    between atoms: C_1  and  C_2 
REMARK       I    between atoms: C_1  and  N_10 
ROOT
HETATM    1  C   UNL     1      62.687   9.945   4.133  1.00  0.00     0.032 A 
HETATM    2  C   UNL     1      62.060   9.881   2.883  1.00  0.00     0.027 A 
HETATM    3  C   UNL     1      62.195   8.736   2.083  1.00  0.00    -0.024 A 
HETATM    4  C   UNL     1      62.978   7.671   2.545  1.00  0.00     0.075 A 
HETATM    5  O   UNL     1      63.201   6.527   1.825  1.00  0.00    -0.351 OA
HETATM    6  C   UNL     1      63.415   8.849   4.610  1.00  0.00     0.020 A 
HETATM    7  C   UNL     1      63.558   7.714   3.814  1.00  0.00     0.038 A 
HETATM    8  C   UNL     1      61.532   8.674   0.736  1.00  0.00     0.043 C 
HETATM    9  C   UNL     1      62.910   6.647   0.430  1.00  0.00     0.176 C 
HETATM   10  C   UNL     1      61.536   7.250   0.200  1.00  0.00     0.031 C 
ENDROOT
BRANCH   1  11
HETATM   11  C   UNL     1      62.565  11.187   4.933  1.00  0.00     0.249 C 
HETATM   12  O   UNL     1      61.863  12.123   4.574  1.00  0.00    -0.268 OA
HETATM   13  N   UNL     1      63.326  11.256   6.068  1.00  0.00    -0.366 N 
HETATM   14  H   UNL     1      63.882  10.490   6.334  1.00  0.00     0.159 HD
HETATM   15  H   UNL     1      63.317  12.074   6.616  1.00  0.00     0.159 HD
ENDBRANCH   1  11
TORSDOF 1
ENDMDL
MODEL 2
REMARK VINA RESULT:      -5.3      1.017      2.103
REMARK  1 active torsions:
REMARK  status: ('A' for Active; 'I' for Inactive)
REMARK    1  A    between atoms: C_1  and  C_2 
REMARK       I    between atoms: C_1  and  N_10 
ROOT
HETATM    1  C   UNL     1      62.432  10.051   3.546  1.00  0.00     0.032 A 
HETATM    2  C   UNL     1      63.031   8.803   3.759  1.00  0.00     0.027 A 
HETATM    3  C   UNL     1      63.028   7.836   2.743  1.00  0.00    -0.024 A 
HETATM    4  C   UNL     1      62.404   8.130   1.525  1.00  0.00     0.075 A 
HETATM    5  O   UNL     1      62.316   7.241   0.485  1.00  0.00    -0.351 OA
HETATM    6  C   UNL     1      61.867  10.354   2.302  1.00  0.00     0.020 A 
HETATM    7  C   UNL     1      61.855   9.391   1.294  1.00  0.00     0.038 A 
HETATM    8  C   UNL     1      63.660   6.493   2.979  1.00  0.00     0.043 C 
HETATM    9  C   UNL     1      62.554   5.880   0.856  1.00  0.00     0.176 C 
HETATM   10  C   UNL     1      63.831   5.742   1.667  1.00  0.00     0.031 C 
ENDROOT
BRANCH   1  11
HETATM   11  C   UNL     1      62.409  11.034   4.655  1.00  0.00     0.249 C 
HETATM   12  O   UNL     1      61.874  12.130   4.539  1.00  0.00    -0.268 OA
HETATM   13  N   UNL     1      63.069  10.677   5.798  1.00  0.00    -0.366 N 
HETATM   14  H   UNL     1      63.491   9.791   5.866  1.00  0.00     0.159 HD
HETATM   15  H   UNL     1      63.122  11.308   6.552  1.00  0.00     0.159 HD
ENDBRANCH   1  11
TORSDOF 1
ENDMDL
MODEL 3
REMARK VINA RESULT:      -5.1      1.634      3.143
REMARK  1 active torsions:
REMARK  status: ('A' for Active; 'I' for Inactive)
REMARK    1  A    between atoms: C_1  and  C_2 
REMARK       I    between atoms: C_1  and  N_10 
ROOT
HETATM    1  C   UNL     1      63.192   9.663   4.479  1.00  0.00     0.032 A 
HETATM    2  C   UNL     1      64.306   8.987   4.990  1.00  0.00     0.027 A 
HETATM    3  C   UNL     1      64.697   7.756   4.443  1.00  0.00    -0.024 A 
HETATM    4  C   UNL     1      63.948   7.208   3.395  1.00  0.00     0.075 A 
HETATM    5  O   UNL     1      64.226   5.997   2.818  1.00  0.00    -0.351 OA
HETATM    6  C   UNL     1      62.490   9.135   3.390  1.00  0.00     0.020 A 
HETATM    7  C   UNL     1      62.871   7.908   2.850  1.00  0.00     0.038 A 
HETATM    8  C   UNL     1      65.885   7.026   5.003  1.00  0.00     0.043 C 
HETATM    9  C   UNL     1      65.080   5.157   3.601  1.00  0.00     0.176 C 
HETATM   10  C   UNL     1      66.317   5.906   4.067  1.00  0.00     0.031 C 
ENDROOT
BRANCH   1  11
HETATM   11  C   UNL     1      62.775  10.938   5.110  1.00  0.00     0.249 C 
HETATM   12  O   UNL     1      61.935  11.670   4.600  1.00  0.00    -0.268 OA
HETATM   13  N   UNL     1      63.421  11.286   6.264  1.00  0.00    -0.366 N 
HETATM   14  H   UNL     1      64.092  10.680   6.653  1.00  0.00     0.159 HD
HETATM   15  H   UNL     1      63.215  12.142   6.704  1.00  0.00     0.159 HD
ENDBRANCH   1  11
TORSDOF 1
ENDMDL
MODEL 4
REMARK VINA RESULT:      -5.0      2.775      4.454
REMARK  1 active torsions:
REMARK  status: ('A' for Active; 'I' for Inactive)
REMARK    1  A    between atoms: C_1  and  C_2 
REMARK       I    between atoms: C_1  and  N_10 
ROOT
HETATM    1  C   UNL     1      62.414   8.794   3.146  1.00  0.00     0.032 A 
HETATM    2  C   UNL     1      63.352   7.754   3.179  1.00  0.00     0.027 A 
HETATM    3  C   UNL     1      64.355   7.740   4.160  1.00  0.00    -0.024 A 
HETATM    4  C   UNL     1      64.414   8.786   5.089  1.00  0.00     0.075 A 
HETATM    5  O   UNL     1      65.376   8.882   6.061  1.00  0.00    -0.351 OA
HETATM    6  C   UNL     1      62.447   9.799   4.118  1.00  0.00     0.020 A 
HETATM    7  C   UNL     1      63.448   9.792   5.089  1.00  0.00     0.038 A 
HETATM    8  C   UNL     1      65.369   6.631   4.185  1.00  0.00     0.043 C 
HETATM    9  C   UNL     1      66.528   8.068   5.827  1.00  0.00     0.176 C 
HETATM   10  C   UNL     1      66.139   6.637   5.498  1.00  0.00     0.031 C 
ENDROOT
BRANCH   1  11
HETATM   11  C   UNL     1      61.396   8.806   2.069  1.00  0.00     0.249 C 
HETATM   12  O   UNL     1      61.638   9.249   0.953  1.00  0.00    -0.268 OA
HETATM   13  N   UNL     1      60.151   8.352   2.404  1.00  0.00    -0.366 N 
HETATM   14  H   UNL     1      59.982   8.001   3.307  1.00  0.00     0.159 HD
HETATM   15  H   UNL     1      59.423   8.376   1.740  1.00  0.00     0.159 HD
ENDBRANCH   1  11
TORSDOF 1
ENDMDL
MODEL 5
REMARK VINA RESULT:      -4.9      2.260      2.974
REMARK  1 active torsions:
REMARK  status: ('A' for Active; 'I' for Inactive)
REMARK    1  A    between atoms: C_1  and  C_2 
REMARK       I    between atoms: C_1  and  N_10 
ROOT
HETATM    1  C   UNL     1      63.992   8.491   4.646  1.00  0.00     0.032 A 
HETATM    2  C   UNL     1      63.852   7.635   3.548  1.00  0.00     0.027 A 
HETATM    3  C   UNL     1      62.916   7.923   2.544  1.00  0.00    -0.024 A 
HETATM    4  C   UNL     1      62.115   9.065   2.666  1.00  0.00     0.075 A 
HETATM    5  O   UNL     1      61.149   9.413   1.759  1.00  0.00    -0.351 OA
HETATM    6  C   UNL     1      63.230   9.662   4.725  1.00  0.00     0.020 A 
HETATM    7  C   UNL     1      62.293   9.946   3.733  1.00  0.00     0.038 A 
HETATM    8  C   UNL     1      62.758   6.995   1.372  1.00  0.00     0.043 C 
HETATM    9  C   UNL     1      60.746   8.347   0.894  1.00  0.00     0.176 C 
HETATM   10  C   UNL     1      61.945   7.657   0.268  1.00  0.00     0.031 C 
ENDROOT
BRANCH   1  11
HETATM   11  C   UNL     1      64.956   8.135   5.715  1.00  0.00     0.249 C 
HETATM   12  O   UNL     1      66.106   8.555   5.718  1.00  0.00    -0.268 OA
HETATM   13  N   UNL     1      64.510   7.262   6.669  1.00  0.00    -0.366 N 
HETATM   14  H   UNL     1      63.581   6.938   6.644  1.00  0.00     0.159 HD
HETATM   15  H   UNL     1      65.120   6.957   7.379  1.00  0.00     0.159 HD
ENDBRANCH   1  11
TORSDOF 1
ENDMDL
MODEL 6
REMARK VINA RESULT:      -4.9      2.543      3.851
REMARK  1 active torsions:
REMARK  status: ('A' for Active; 'I' for Inactive)
REMARK    1  A    between atoms: C_1  and  C_2 
REMARK       I    between atoms: C_1  and  N_10 
ROOT
HETATM    1  C   UNL     1      62.413   9.619   4.080  1.00  0.00     0.032 A 
HETATM    2  C   UNL     1      63.669   9.456   4.677  1.00  0.00     0.027 A 
HETATM    3  C   UNL     1      64.090   8.186   5.097  1.00  0.00    -0.024 A 
HETATM    4  C   UNL     1      63.232   7.093   4.928  1.00  0.00     0.075 A 
HETATM    5  O   UNL     1      63.536   5.820   5.338  1.00  0.00    -0.351 OA
HETATM    6  C   UNL     1      61.591   8.509   3.861  1.00  0.00     0.020 A 
HETATM    7  C   UNL     1      62.003   7.247   4.285  1.00  0.00     0.038 A 
HETATM    8  C   UNL     1      65.433   8.015   5.750  1.00  0.00     0.043 C 
HETATM    9  C   UNL     1      64.604   5.750   6.286  1.00  0.00     0.176 C 
HETATM   10  C   UNL     1      65.813   6.543   5.820  1.00  0.00     0.031 C 
ENDROOT
BRANCH   1  11
HETATM   11  C   UNL     1      61.976  10.981   3.691  1.00  0.00     0.249 C 
HETATM   12  O   UNL     1      61.949  11.908   4.491  1.00  0.00    -0.268 OA
HETATM   13  N   UNL     1      61.547  11.137   2.402  1.00  0.00    -0.366 N 
HETATM   14  H   UNL     1      61.579  10.377   1.778  1.00  0.00     0.159 HD
HETATM   15  H   UNL     1      61.205  12.009   2.099  1.00  0.00     0.159 HD
ENDBRANCH   1  11
TORSDOF 1
ENDMDL
MODEL 7
REMARK VINA RESULT:      -4.8      3.355      4.315
REMARK  1 active torsions:
REMARK  status: ('A' for Active; 'I' for Inactive)
REMARK    1  A    between atoms: C_1  and  C_2 
REMARK       I    between atoms: C_1  and  N_10 
ROOT
HETATM    1  C   UNL     1      63.459   8.937   5.354  1.00  0.00     0.032 A 
HETATM    2  C   UNL     1      64.804   8.780   4.996  1.00  0.00     0.027 A 
HETATM    3  C   UNL     1      65.450   7.552   5.203  1.00  0.00    -0.024 A 
HETATM    4  C   UNL     1      64.738   6.497   5.786  1.00  0.00     0.075 A 
HETATM    5  O   UNL     1      65.289   5.273   6.062  1.00  0.00    -0.351 OA
HETATM    6  C   UNL     1      62.742   7.856   5.878  1.00  0.00     0.020 A 
HETATM    7  C   UNL     1      63.384   6.637   6.093  1.00  0.00     0.038 A 
HETATM    8  C   UNL     1      66.897   7.390   4.830  1.00  0.00     0.043 C 
HETATM    9  C   UNL     1      66.719   5.265   6.077  1.00  0.00     0.176 C 
HETATM   10  C   UNL     1      67.291   5.920   4.832  1.00  0.00     0.031 C 
ENDROOT
BRANCH   1  11
HETATM   11  C   UNL     1      62.817  10.260   5.167  1.00  0.00     0.249 C 
HETATM   12  O   UNL     1      61.967  10.453   4.307  1.00  0.00    -0.268 OA
HETATM   13  N   UNL     1      63.267  11.272   5.970  1.00  0.00    -0.366 N 
HETATM   14  H   UNL     1      63.950  11.091   6.654  1.00  0.00     0.159 HD
HETATM   15  H   UNL     1      62.906  12.182   5.861  1.00  0.00     0.159 HD
ENDBRANCH   1  11
TORSDOF 1
ENDMDL
MODEL 8
REMARK VINA RESULT:      -4.7      2.341      3.098
REMARK  1 active torsions:
REMARK  status: ('A' for Active; 'I' for Inactive)
REMARK    1  A    between atoms: C_1  and  C_2 
REMARK       I    between atoms: C_1  and  N_10 
ROOT
HETATM    1  C   UNL     1      64.369   7.537   4.979  1.00  0.00     0.032 A 
HETATM    2  C   UNL     1      63.590   8.622   4.557  1.00  0.00     0.027 A 
HETATM    3  C   UNL     1      62.983   8.605   3.292  1.00  0.00    -0.024 A 
HETATM    4  C   UNL     1      63.181   7.499   2.456  1.00  0.00     0.075 A 
HETATM    5  O   UNL     1      62.662   7.403   1.191  1.00  0.00    -0.351 OA
HETATM    6  C   UNL     1      64.508   6.412   4.158  1.00  0.00     0.020 A 
HETATM    7  C   UNL     1      63.912   6.396   2.898  1.00  0.00     0.038 A 
HETATM    8  C   UNL     1      62.158   9.775   2.836  1.00  0.00     0.043 C 
HETATM    9  C   UNL     1      62.235   8.651   0.637  1.00  0.00     0.176 C 
HETATM   10  C   UNL     1      61.343   9.411   1.604  1.00  0.00     0.031 C 
ENDROOT
BRANCH   1  11
HETATM   11  C   UNL     1      65.037   7.605   6.300  1.00  0.00     0.249 C 
HETATM   12  O   UNL     1      64.590   7.029   7.284  1.00  0.00    -0.268 OA
HETATM   13  N   UNL     1      66.150   8.396   6.378  1.00  0.00    -0.366 N 
HETATM   14  H   UNL     1      66.489   8.848   5.573  1.00  0.00     0.159 HD
HETATM   15  H   UNL     1      66.611   8.512   7.241  1.00  0.00     0.159 HD
ENDBRANCH   1  11
TORSDOF 1
ENDMDL
MODEL 9
REMARK VINA RESULT:      -4.4      2.358      2.901
REMARK  1 active torsions:
REMARK  status: ('A' for Active; 'I' for Inactive)
REMARK    1  A    between atoms: C_1  and  C_2 
REMARK       I    between atoms: C_1  and  N_10 
ROOT
HETATM    1  C   UNL     1      62.718   9.336   4.371  1.00  0.00     0.032 A 
HETATM    2  C   UNL     1      62.263   8.050   4.686  1.00  0.00     0.027 A 
HETATM    3  C   UNL     1      61.371   7.388   3.830  1.00  0.00    -0.024 A 
HETATM    4  C   UNL     1      60.929   8.038   2.671  1.00  0.00     0.075 A 
HETATM    5  O   UNL     1      60.031   7.491   1.791  1.00  0.00    -0.351 OA
HETATM    6  C   UNL     1      62.318   9.949   3.179  1.00  0.00     0.020 A 
HETATM    7  C   UNL     1      61.424   9.297   2.331  1.00  0.00     0.038 A 
HETATM    8  C   UNL     1      60.874   6.012   4.177  1.00  0.00     0.043 C 
HETATM    9  C   UNL     1      59.285   6.393   2.324  1.00  0.00     0.176 C 
HETATM   10  C   UNL     1      60.195   5.368   2.977  1.00  0.00     0.031 C 
ENDROOT
BRANCH   1  11
HETATM   11  C   UNL     1      63.622  10.029   5.319  1.00  0.00     0.249 C 
HETATM   12  O   UNL     1      64.702   9.555   5.650  1.00  0.00    -0.268 OA
HETATM   13  N   UNL     1      63.162  11.202   5.852  1.00  0.00    -0.366 N 
HETATM   14  H   UNL     1      62.292  11.562   5.569  1.00  0.00     0.159 HD
HETATM   15  H   UNL     1      63.703  11.684   6.519  1.00  0.00     0.159 HD
ENDBRANCH   1  11
TORSDOF 1
ENDMDL
