MODEL 1
REMARK VINA RESULT:      -4.4      0.000      0.000
REMARK  2 active torsions:
REMARK  status: ('A' for Active; 'I' for Inactive)
REMARK    1  A    between atoms: C_6  and  C_12 
REMARK    2  A    between atoms: N_11  and  C_12 
ROOT
HETATM    1  N   UNL     1      62.773   8.457   2.729  1.00  0.00    -0.317 N 
HETATM    2  C   UNL     1      62.020   9.581   3.045  1.00  0.00     0.111 A 
HETATM    3  C   UNL     1      63.777   7.942   3.547  1.00  0.00     0.106 A 
HETATM    4  N   UNL     1      61.138   9.851   2.106  1.00  0.00    -0.351 N 
ATOM      5  HN  UNL     1      60.464  10.616   2.091  1.00  0.00     0.166 HD
HETATM    6  C   UNL     1      64.057   8.544   4.722  1.00  0.00    -0.017 A 
HETATM    7  C   UNL     1      62.318  10.233   4.273  1.00  0.00     0.050 A 
HETATM    8  C   UNL     1      63.293   9.750   5.068  1.00  0.00     0.014 A 
HETATM    9  C   UNL     1      61.319   8.881   1.152  1.00  0.00     0.107 A 
HETATM   10  C   UNL     1      62.325   8.014   1.511  1.00  0.00     0.115 A 
ENDROOT
BRANCH   6  11
HETATM   11  C   UNL     1      65.126   8.059   5.670  1.00  0.00     0.271 C 
BRANCH  11  12
HETATM   12  N   UNL     1      64.552   7.293   6.777  1.00  0.00    -0.075 N 
HETATM   13  C   UNL     1      65.581   6.563   7.503  1.00  0.00     0.267 C 
HETATM   14  H   UNL     1      63.873   6.629   6.404  1.00  0.00     0.277 HD
HETATM   15  H   UNL     1      64.102   7.944   7.420  1.00  0.00     0.277 HD
ENDBRANCH  11  12
ENDBRANCH   6  11
TORSDOF 2
ENDMDL
MODEL 2
REMARK VINA RESULT:      -4.3      1.329      4.790
REMARK  2 active torsions:
REMARK  status: ('A' for Active; 'I' for Inactive)
REMARK    1  A    between atoms: C_6  and  C_12 
REMARK    2  A    between atoms: N_11  and  C_12 
ROOT
HETATM    1  N   UNL     1      63.785   8.172   3.887  1.00  0.00    -0.317 N 
HETATM    2  C   UNL     1      63.648   9.183   4.830  1.00  0.00     0.111 A 
HETATM    3  C   UNL     1      63.013   8.081   2.731  1.00  0.00     0.106 A 
HETATM    4  N   UNL     1      64.501   9.037   5.822  1.00  0.00    -0.351 N 
ATOM      5  HN  UNL     1      64.610   9.639   6.639  1.00  0.00     0.166 HD
HETATM    6  C   UNL     1      62.071   9.014   2.481  1.00  0.00    -0.017 A 
HETATM    7  C   UNL     1      62.648  10.163   4.585  1.00  0.00     0.050 A 
HETATM    8  C   UNL     1      61.888  10.080   3.475  1.00  0.00     0.014 A 
HETATM    9  C   UNL     1      65.212   7.902   5.523  1.00  0.00     0.107 A 
HETATM   10  C   UNL     1      64.785   7.348   4.338  1.00  0.00     0.115 A 
ENDROOT
BRANCH   6  11
HETATM   11  C   UNL     1      61.188   8.995   1.258  1.00  0.00     0.271 C 
BRANCH  11  12
HETATM   12  N   UNL     1      59.842   8.518   1.577  1.00  0.00    -0.075 N 
HETATM   13  C   UNL     1      59.309   7.687   0.507  1.00  0.00     0.267 C 
HETATM   14  H   UNL     1      59.228   9.321   1.711  1.00  0.00     0.277 HD
HETATM   15  H   UNL     1      59.891   7.957   2.427  1.00  0.00     0.277 HD
ENDBRANCH  11  12
ENDBRANCH   6  11
TORSDOF 2
ENDMDL
MODEL 3
REMARK VINA RESULT:      -4.3      1.197      2.111
REMARK  2 active torsions:
REMARK  status: ('A' for Active; 'I' for Inactive)
REMARK    1  A    between atoms: C_6  and  C_12 
REMARK    2  A    between atoms: N_11  and  C_12 
ROOT
HETATM    1  N   UNL     1      62.395   9.862   3.763  1.00  0.00    -0.317 N 
HETATM    2  C   UNL     1      62.372   9.288   2.498  1.00  0.00     0.111 A 
HETATM    3  C   UNL     1      62.783   9.181   4.915  1.00  0.00     0.106 A 
HETATM    4  N   UNL     1      61.971  10.148   1.585  1.00  0.00    -0.351 N 
ATOM      5  HN  UNL     1      61.868   9.985   0.583  1.00  0.00     0.166 HD
HETATM    6  C   UNL     1      63.168   7.890   4.832  1.00  0.00    -0.017 A 
HETATM    7  C   UNL     1      62.761   7.924   2.400  1.00  0.00     0.050 A 
HETATM    8  C   UNL     1      63.129   7.252   3.509  1.00  0.00     0.014 A 
HETATM    9  C   UNL     1      61.724  11.312   2.269  1.00  0.00     0.107 A 
HETATM   10  C   UNL     1      61.972  11.158   3.614  1.00  0.00     0.115 A 
ENDROOT
BRANCH   6  11
HETATM   11  C   UNL     1      63.603   7.075   6.024  1.00  0.00     0.271 C 
BRANCH  11  12
HETATM   12  N   UNL     1      64.850   7.584   6.595  1.00  0.00    -0.075 N 
HETATM   13  C   UNL     1      65.508   6.575   7.412  1.00  0.00     0.267 C 
HETATM   14  H   UNL     1      64.642   8.397   7.175  1.00  0.00     0.277 HD
HETATM   15  H   UNL     1      65.475   7.839   5.831  1.00  0.00     0.277 HD
ENDBRANCH  11  12
ENDBRANCH   6  11
TORSDOF 2
ENDMDL
MODEL 4
REMARK VINA RESULT:      -4.2      2.016      5.040
REMARK  2 active torsions:
REMARK  status: ('A' for Active; 'I' for Inactive)
REMARK    1  A    between atoms: C_6  and  C_12 
REMARK    2  A    between atoms: N_11  and  C_12 
ROOT
HETATM    1  N   UNL     1      62.342  10.094   3.825  1.00  0.00    -0.317 N 
HETATM    2  C   UNL     1      63.231   9.195   4.402  1.00  0.00     0.111 A 
HETATM    3  C   UNL     1      61.650   9.846   2.642  1.00  0.00     0.106 A 
HETATM    4  N   UNL     1      63.745   9.673   5.517  1.00  0.00    -0.351 N 
ATOM      5  HN  UNL     1      64.418   9.217   6.134  1.00  0.00     0.166 HD
HETATM    6  C   UNL     1      61.827   8.675   1.995  1.00  0.00    -0.017 A 
HETATM    7  C   UNL     1      63.438   7.964   3.722  1.00  0.00     0.050 A 
HETATM    8  C   UNL     1      62.781   7.718   2.571  1.00  0.00     0.014 A 
HETATM    9  C   UNL     1      63.180  10.914   5.672  1.00  0.00     0.107 A 
HETATM   10  C   UNL     1      62.317  11.198   4.638  1.00  0.00     0.115 A 
ENDROOT
BRANCH   6  11
HETATM   11  C   UNL     1      61.123   8.321   0.710  1.00  0.00     0.271 C 
BRANCH  11  12
HETATM   12  N   UNL     1      59.686   8.587   0.796  1.00  0.00    -0.075 N 
HETATM   13  C   UNL     1      58.918   7.350   0.769  1.00  0.00     0.267 C 
HETATM   14  H   UNL     1      59.408   9.168   0.005  1.00  0.00     0.277 HD
HETATM   15  H   UNL     1      59.499   9.064   1.677  1.00  0.00     0.277 HD
ENDBRANCH  11  12
ENDBRANCH   6  11
TORSDOF 2
ENDMDL
MODEL 5
REMARK VINA RESULT:      -4.1      1.397      5.011
REMARK  2 active torsions:
REMARK  status: ('A' for Active; 'I' for Inactive)
REMARK    1  A    between atoms: C_6  and  C_12 
REMARK    2  A    between atoms: N_11  and  C_12 
ROOT
HETATM    1  N   UNL     1      64.938   7.923   5.460  1.00  0.00    -0.317 N 
HETATM    2  C   UNL     1      64.271   7.191   6.434  1.00  0.00     0.111 A 
HETATM    3  C   UNL     1      64.315   8.472   4.341  1.00  0.00     0.106 A 
HETATM    4  N   UNL     1      65.091   6.792   7.384  1.00  0.00    -0.351 N 
ATOM      5  HN  UNL     1      64.859   6.243   8.212  1.00  0.00     0.166 HD
HETATM    6  C   UNL     1      62.988   8.304   4.165  1.00  0.00    -0.017 A 
HETATM    7  C   UNL     1      62.875   6.993   6.250  1.00  0.00     0.050 A 
HETATM    8  C   UNL     1      62.263   7.511   5.167  1.00  0.00     0.014 A 
HETATM    9  C   UNL     1      66.324   7.273   7.022  1.00  0.00     0.107 A 
HETATM   10  C   UNL     1      66.256   7.969   5.836  1.00  0.00     0.115 A 
ENDROOT
BRANCH   6  11
HETATM   11  C   UNL     1      62.229   8.859   2.985  1.00  0.00     0.271 C 
BRANCH  11  12
HETATM   12  N   UNL     1      61.264   9.877   3.401  1.00  0.00    -0.075 N 
HETATM   13  C   UNL     1      61.923  11.142   3.693  1.00  0.00     0.267 C 
HETATM   14  H   UNL     1      60.780   9.554   4.238  1.00  0.00     0.277 HD
HETATM   15  H   UNL     1      60.603  10.026   2.639  1.00  0.00     0.277 HD
ENDBRANCH  11  12
ENDBRANCH   6  11
TORSDOF 2
ENDMDL
MODEL 6
REMARK VINA RESULT:      -4.0      2.112      6.046
REMARK  2 active torsions:
REMARK  status: ('A' for Active; 'I' for Inactive)
REMARK    1  A    between atoms: C_6  and  C_12 
REMARK    2  A    between atoms: N_11  and  C_12 
ROOT
HETATM    1  N   UNL     1      65.843   6.400   7.318  1.00  0.00    -0.317 N 
HETATM    2  C   UNL     1      67.024   6.951   6.837  1.00  0.00     0.111 A 
HETATM    3  C   UNL     1      64.585   6.683   6.789  1.00  0.00     0.106 A 
HETATM    4  N   UNL     1      68.069   6.514   7.509  1.00  0.00    -0.351 N 
ATOM      5  HN  UNL     1      69.048   6.759   7.359  1.00  0.00     0.166 HD
HETATM    6  C   UNL     1      64.473   7.534   5.748  1.00  0.00    -0.017 A 
HETATM    7  C   UNL     1      66.917   7.861   5.750  1.00  0.00     0.050 A 
HETATM    8  C   UNL     1      65.705   8.150   5.237  1.00  0.00     0.014 A 
HETATM    9  C   UNL     1      67.559   5.659   8.454  1.00  0.00     0.107 A 
HETATM   10  C   UNL     1      66.188   5.577   8.359  1.00  0.00     0.115 A 
ENDROOT
BRANCH   6  11
HETATM   11  C   UNL     1      63.155   7.901   5.114  1.00  0.00     0.271 C 
BRANCH  11  12
HETATM   12  N   UNL     1      63.309   8.992   4.151  1.00  0.00    -0.075 N 
HETATM   13  C   UNL     1      62.530  10.157   4.543  1.00  0.00     0.267 C 
HETATM   14  H   UNL     1      62.993   8.673   3.235  1.00  0.00     0.277 HD
HETATM   15  H   UNL     1      64.293   9.257   4.119  1.00  0.00     0.277 HD
ENDBRANCH  11  12
ENDBRANCH   6  11
TORSDOF 2
ENDMDL
MODEL 7
REMARK VINA RESULT:      -3.7      2.194      3.906
REMARK  2 active torsions:
REMARK  status: ('A' for Active; 'I' for Inactive)
REMARK    1  A    between atoms: C_6  and  C_12 
REMARK    2  A    between atoms: N_11  and  C_12 
ROOT
HETATM    1  N   UNL     1      62.807   9.327   3.825  1.00  0.00    -0.317 N 
HETATM    2  C   UNL     1      63.726   9.232   4.863  1.00  0.00     0.111 A 
HETATM    3  C   UNL     1      62.679   8.378   2.813  1.00  0.00     0.106 A 
HETATM    4  N   UNL     1      63.635  10.257   5.684  1.00  0.00    -0.351 N 
ATOM      5  HN  UNL     1      64.190  10.429   6.523  1.00  0.00     0.166 HD
HETATM    6  C   UNL     1      63.476   7.289   2.813  1.00  0.00    -0.017 A 
HETATM    7  C   UNL     1      64.582   8.097   4.864  1.00  0.00     0.050 A 
HETATM    8  C   UNL     1      64.475   7.177   3.886  1.00  0.00     0.014 A 
HETATM    9  C   UNL     1      62.634  11.043   5.171  1.00  0.00     0.107 A 
HETATM   10  C   UNL     1      62.112  10.493   4.022  1.00  0.00     0.115 A 
ENDROOT
BRANCH   6  11
HETATM   11  C   UNL     1      63.411   6.212   1.760  1.00  0.00     0.271 C 
BRANCH  11  12
HETATM   12  N   UNL     1      64.038   4.973   2.222  1.00  0.00    -0.075 N 
HETATM   13  C   UNL     1      64.836   4.361   1.169  1.00  0.00     0.267 C 
HETATM   14  H   UNL     1      63.309   4.319   2.509  1.00  0.00     0.277 HD
HETATM   15  H   UNL     1      64.651   5.194   3.005  1.00  0.00     0.277 HD
ENDBRANCH  11  12
ENDBRANCH   6  11
TORSDOF 2
ENDMDL
MODEL 8
REMARK VINA RESULT:      -3.7      1.307      5.017
REMARK  2 active torsions:
REMARK  status: ('A' for Active; 'I' for Inactive)
REMARK    1  A    between atoms: C_6  and  C_12 
REMARK    2  A    between atoms: N_11  and  C_12 
ROOT
HETATM    1  N   UNL     1      63.758   6.899   5.776  1.00  0.00    -0.317 N 
HETATM    2  C   UNL     1      64.630   7.980   5.813  1.00  0.00     0.111 A 
HETATM    3  C   UNL     1      62.567   6.890   5.052  1.00  0.00     0.106 A 
HETATM    4  N   UNL     1      65.681   7.726   6.565  1.00  0.00    -0.351 N 
ATOM      5  HN  UNL     1      66.468   8.346   6.759  1.00  0.00     0.166 HD
HETATM    6  C   UNL     1      62.212   7.975   4.333  1.00  0.00    -0.017 A 
HETATM    7  C   UNL     1      64.259   9.135   5.071  1.00  0.00     0.050 A 
HETATM    8  C   UNL     1      63.105   9.141   4.376  1.00  0.00     0.014 A 
HETATM    9  C   UNL     1      65.490   6.450   7.033  1.00  0.00     0.107 A 
HETATM   10  C   UNL     1      64.308   5.922   6.564  1.00  0.00     0.115 A 
ENDROOT
BRANCH   6  11
HETATM   11  C   UNL     1      60.943   8.056   3.522  1.00  0.00     0.271 C 
BRANCH  11  12
HETATM   12  N   UNL     1      60.964   9.199   2.607  1.00  0.00    -0.075 N 
HETATM   13  C   UNL     1      61.099   8.765   1.224  1.00  0.00     0.267 C 
HETATM   14  H   UNL     1      61.753   9.800   2.845  1.00  0.00     0.277 HD
HETATM   15  H   UNL     1      60.085   9.705   2.703  1.00  0.00     0.277 HD
ENDBRANCH  11  12
ENDBRANCH   6  11
TORSDOF 2
ENDMDL
MODEL 9
REMARK VINA RESULT:      -3.5     12.648     13.654
REMARK  2 active torsions:
REMARK  status: ('A' for Active; 'I' for Inactive)
REMARK    1  A    between atoms: C_6  and  C_12 
REMARK    2  A    between atoms: N_11  and  C_12 
ROOT
HETATM    1  N   UNL     1      57.551  -0.226  13.653  1.00  0.00    -0.317 N 
HETATM    2  C   UNL     1      57.620   1.153  13.804  1.00  0.00     0.111 A 
HETATM    3  C   UNL     1      58.632  -1.020  13.276  1.00  0.00     0.106 A 
HETATM    4  N   UNL     1      56.460   1.657  14.171  1.00  0.00    -0.351 N 
ATOM      5  HN  UNL     1      56.240   2.637  14.351  1.00  0.00     0.166 HD
HETATM    6  C   UNL     1      59.831  -0.447  13.039  1.00  0.00    -0.017 A 
HETATM    7  C   UNL     1      58.874   1.769  13.542  1.00  0.00     0.050 A 
HETATM    8  C   UNL     1      59.925   1.013  13.167  1.00  0.00     0.014 A 
HETATM    9  C   UNL     1      55.611   0.583  14.260  1.00  0.00     0.107 A 
HETATM   10  C   UNL     1      56.259  -0.589  13.940  1.00  0.00     0.115 A 
ENDROOT
BRANCH   6  11
HETATM   11  C   UNL     1      61.056  -1.225  12.626  1.00  0.00     0.271 C 
BRANCH  11  12
HETATM   12  N   UNL     1      62.248  -0.376  12.607  1.00  0.00    -0.075 N 
HETATM   13  C   UNL     1      63.416  -1.095  13.095  1.00  0.00     0.267 C 
HETATM   14  H   UNL     1      62.086   0.437  13.201  1.00  0.00     0.277 HD
HETATM   15  H   UNL     1      62.424  -0.089  11.644  1.00  0.00     0.277 HD
ENDBRANCH  11  12
ENDBRANCH   6  11
TORSDOF 2
ENDMDL
