MODEL 1
REMARK VINA RESULT:      -4.9      0.000      0.000
REMARK  2 active torsions:
REMARK  status: ('A' for Active; 'I' for Inactive)
REMARK    1  A    between atoms: C_6  and  C_11 
REMARK    2  A    between atoms: C_11  and  O_12 
ROOT
HETATM    1  N   UNL     1      62.662   8.904   2.998  1.00  0.00    -0.317 N 
HETATM    2  C   UNL     1      62.062   9.685   2.018  1.00  0.00     0.111 A 
HETATM    3  C   UNL     1      62.945   9.356   4.284  1.00  0.00     0.107 A 
HETATM    4  N   UNL     1      61.903   9.013   0.897  1.00  0.00    -0.351 N 
ATOM      5  HN  UNL     1      61.490   9.350   0.027  1.00  0.00     0.166 HD
HETATM    6  C   UNL     1      62.635  10.624   4.627  1.00  0.00    -0.019 A 
HETATM    7  C   UNL     1      61.733  11.023   2.371  1.00  0.00     0.050 A 
HETATM    8  C   UNL     1      62.004  11.474   3.611  1.00  0.00     0.014 A 
HETATM    9  C   UNL     1      62.412   7.763   1.149  1.00  0.00     0.107 A 
HETATM   10  C   UNL     1      62.887   7.672   2.437  1.00  0.00     0.115 A 
ENDROOT
BRANCH   6  11
HETATM   11  C   UNL     1      62.880  11.201   5.990  1.00  0.00     0.204 C 
BRANCH  11  12
HETATM   12  O   UNL     1      64.272  11.399   6.193  1.00  0.00    -0.396 OA
HETATM   13  H   UNL     1      64.700  10.544   6.354  1.00  0.00     0.209 HD
ENDBRANCH  11  12
ENDBRANCH   6  11
TORSDOF 2
ENDMDL
MODEL 2
REMARK VINA RESULT:      -4.8      1.269      1.510
REMARK  2 active torsions:
REMARK  status: ('A' for Active; 'I' for Inactive)
REMARK    1  A    between atoms: C_6  and  C_11 
REMARK    2  A    between atoms: C_11  and  O_12 
ROOT
HETATM    1  N   UNL     1      63.652   8.266   3.980  1.00  0.00    -0.317 N 
HETATM    2  C   UNL     1      62.780   8.423   2.910  1.00  0.00     0.111 A 
HETATM    3  C   UNL     1      63.787   9.191   5.013  1.00  0.00     0.107 A 
HETATM    4  N   UNL     1      62.845   7.402   2.082  1.00  0.00    -0.351 N 
ATOM      5  HN  UNL     1      62.313   7.267   1.222  1.00  0.00     0.166 HD
HETATM    6  C   UNL     1      63.045  10.318   4.997  1.00  0.00    -0.019 A 
HETATM    7  C   UNL     1      61.993   9.608   2.887  1.00  0.00     0.050 A 
HETATM    8  C   UNL     1      62.117  10.512   3.878  1.00  0.00     0.014 A 
HETATM    9  C   UNL     1      63.783   6.558   2.622  1.00  0.00     0.107 A 
HETATM   10  C   UNL     1      64.296   7.069   3.791  1.00  0.00     0.115 A 
ENDROOT
BRANCH   6  11
HETATM   11  C   UNL     1      63.100  11.366   6.070  1.00  0.00     0.204 C 
BRANCH  11  12
HETATM   12  O   UNL     1      64.438  11.538   6.513  1.00  0.00    -0.396 OA
HETATM   13  H   UNL     1      64.900  10.686   6.487  1.00  0.00     0.209 HD
ENDBRANCH  11  12
ENDBRANCH   6  11
TORSDOF 2
ENDMDL
MODEL 3
REMARK VINA RESULT:      -4.4      2.355      3.570
REMARK  2 active torsions:
REMARK  status: ('A' for Active; 'I' for Inactive)
REMARK    1  A    between atoms: C_6  and  C_11 
REMARK    2  A    between atoms: C_11  and  O_12 
ROOT
HETATM    1  N   UNL     1      62.526   8.058   4.303  1.00  0.00    -0.317 N 
HETATM    2  C   UNL     1      62.861   8.769   5.449  1.00  0.00     0.111 A 
HETATM    3  C   UNL     1      62.165   8.655   3.098  1.00  0.00     0.107 A 
HETATM    4  N   UNL     1      63.167   7.963   6.444  1.00  0.00    -0.351 N 
ATOM      5  HN  UNL     1      63.448   8.226   7.389  1.00  0.00     0.166 HD
HETATM    6  C   UNL     1      62.123  10.001   3.009  1.00  0.00    -0.019 A 
HETATM    7  C   UNL     1      62.819  10.189   5.363  1.00  0.00     0.050 A 
HETATM    8  C   UNL     1      62.468  10.778   4.204  1.00  0.00     0.014 A 
HETATM    9  C   UNL     1      63.029   6.695   5.938  1.00  0.00     0.107 A 
HETATM   10  C   UNL     1      62.633   6.728   4.621  1.00  0.00     0.115 A 
ENDROOT
BRANCH   6  11
HETATM   11  C   UNL     1      61.767  10.741   1.753  1.00  0.00     0.204 C 
BRANCH  11  12
HETATM   12  O   UNL     1      62.074  12.120   1.896  1.00  0.00    -0.396 OA
HETATM   13  H   UNL     1      62.702  12.385   1.207  1.00  0.00     0.209 HD
ENDBRANCH  11  12
ENDBRANCH   6  11
TORSDOF 2
ENDMDL
MODEL 4
REMARK VINA RESULT:      -4.4      1.591      2.174
REMARK  2 active torsions:
REMARK  status: ('A' for Active; 'I' for Inactive)
REMARK    1  A    between atoms: C_6  and  C_11 
REMARK    2  A    between atoms: C_11  and  O_12 
ROOT
HETATM    1  N   UNL     1      62.754   8.543   2.744  1.00  0.00    -0.317 N 
HETATM    2  C   UNL     1      62.054   9.704   3.049  1.00  0.00     0.111 A 
HETATM    3  C   UNL     1      63.690   7.957   3.591  1.00  0.00     0.107 A 
HETATM    4  N   UNL     1      61.228  10.037   2.079  1.00  0.00    -0.351 N 
ATOM      5  HN  UNL     1      60.601  10.841   2.050  1.00  0.00     0.166 HD
HETATM    6  C   UNL     1      63.960   8.530   4.782  1.00  0.00    -0.019 A 
HETATM    7  C   UNL     1      62.332  10.314   4.303  1.00  0.00     0.050 A 
HETATM    8  C   UNL     1      63.239   9.759   5.130  1.00  0.00     0.014 A 
HETATM    9  C   UNL     1      61.391   9.073   1.117  1.00  0.00     0.107 A 
HETATM   10  C   UNL     1      62.328   8.141   1.503  1.00  0.00     0.115 A 
ENDROOT
BRANCH   6  11
HETATM   11  C   UNL     1      64.936   7.968   5.774  1.00  0.00     0.204 C 
BRANCH  11  12
HETATM   12  O   UNL     1      65.854   8.974   6.177  1.00  0.00    -0.396 OA
HETATM   13  H   UNL     1      65.437   9.548   6.838  1.00  0.00     0.209 HD
ENDBRANCH  11  12
ENDBRANCH   6  11
TORSDOF 2
ENDMDL
MODEL 5
REMARK VINA RESULT:      -4.2      1.384      1.619
REMARK  2 active torsions:
REMARK  status: ('A' for Active; 'I' for Inactive)
REMARK    1  A    between atoms: C_6  and  C_11 
REMARK    2  A    between atoms: C_11  and  O_12 
ROOT
HETATM    1  N   UNL     1      63.084   7.914   2.883  1.00  0.00    -0.317 N 
HETATM    2  C   UNL     1      62.487   8.215   1.665  1.00  0.00     0.111 A 
HETATM    3  C   UNL     1      63.131   8.793   3.962  1.00  0.00     0.107 A 
HETATM    4  N   UNL     1      62.578   7.208   0.822  1.00  0.00    -0.351 N 
ATOM      5  HN  UNL     1      62.223   7.167  -0.133  1.00  0.00     0.166 HD
HETATM    6  C   UNL     1      62.577  10.018   3.846  1.00  0.00    -0.019 A 
HETATM    7  C   UNL     1      61.901   9.505   1.535  1.00  0.00     0.050 A 
HETATM    8  C   UNL     1      61.943  10.365   2.570  1.00  0.00     0.014 A 
HETATM    9  C   UNL     1      63.251   6.225   1.503  1.00  0.00     0.107 A 
HETATM   10  C   UNL     1      63.575   6.637   2.775  1.00  0.00     0.115 A 
ENDROOT
BRANCH   6  11
HETATM   11  C   UNL     1      62.557  11.030   4.954  1.00  0.00     0.204 C 
BRANCH  11  12
HETATM   12  O   UNL     1      62.051  12.267   4.474  1.00  0.00    -0.396 OA
HETATM   13  H   UNL     1      61.094  12.194   4.335  1.00  0.00     0.209 HD
ENDBRANCH  11  12
ENDBRANCH   6  11
TORSDOF 2
ENDMDL
MODEL 6
REMARK VINA RESULT:      -4.2      2.455      4.055
REMARK  2 active torsions:
REMARK  status: ('A' for Active; 'I' for Inactive)
REMARK    1  A    between atoms: C_6  and  C_11 
REMARK    2  A    between atoms: C_11  and  O_12 
ROOT
HETATM    1  N   UNL     1      62.778   9.519   3.933  1.00  0.00    -0.317 N 
HETATM    2  C   UNL     1      62.240  10.744   3.558  1.00  0.00     0.111 A 
HETATM    3  C   UNL     1      62.860   8.416   3.087  1.00  0.00     0.107 A 
HETATM    4  N   UNL     1      62.291  11.614   4.544  1.00  0.00    -0.351 N 
ATOM      5  HN  UNL     1      61.966  12.581   4.533  1.00  0.00     0.166 HD
HETATM    6  C   UNL     1      62.393   8.510   1.824  1.00  0.00    -0.019 A 
HETATM    7  C   UNL     1      61.746  10.852   2.228  1.00  0.00     0.050 A 
HETATM    8  C   UNL     1      61.816   9.791   1.401  1.00  0.00     0.014 A 
HETATM    9  C   UNL     1      62.874  10.944   5.589  1.00  0.00     0.107 A 
HETATM   10  C   UNL     1      63.182   9.649   5.238  1.00  0.00     0.115 A 
ENDROOT
BRANCH   6  11
HETATM   11  C   UNL     1      62.452   7.389   0.829  1.00  0.00     0.204 C 
BRANCH  11  12
HETATM   12  O   UNL     1      63.349   6.384   1.280  1.00  0.00    -0.396 OA
HETATM   13  H   UNL     1      62.847   5.659   1.683  1.00  0.00     0.209 HD
ENDBRANCH  11  12
ENDBRANCH   6  11
TORSDOF 2
ENDMDL
MODEL 7
REMARK VINA RESULT:      -4.2      1.725      3.074
REMARK  2 active torsions:
REMARK  status: ('A' for Active; 'I' for Inactive)
REMARK    1  A    between atoms: C_6  and  C_11 
REMARK    2  A    between atoms: C_11  and  O_12 
ROOT
HETATM    1  N   UNL     1      62.344  10.093   3.738  1.00  0.00    -0.317 N 
HETATM    2  C   UNL     1      62.198   9.555   2.465  1.00  0.00     0.111 A 
HETATM    3  C   UNL     1      62.785   9.367   4.841  1.00  0.00     0.107 A 
HETATM    4  N   UNL     1      61.773  10.457   1.606  1.00  0.00    -0.351 N 
ATOM      5  HN  UNL     1      61.586  10.324   0.612  1.00  0.00     0.166 HD
HETATM    6  C   UNL     1      63.091   8.061   4.699  1.00  0.00    -0.019 A 
HETATM    7  C   UNL     1      62.519   8.178   2.307  1.00  0.00     0.050 A 
HETATM    8  C   UNL     1      62.944   7.464   3.367  1.00  0.00     0.014 A 
HETATM    9  C   UNL     1      61.636  11.613   2.333  1.00  0.00     0.107 A 
HETATM   10  C   UNL     1      61.980  11.413   3.650  1.00  0.00     0.115 A 
ENDROOT
BRANCH   6  11
HETATM   11  C   UNL     1      63.592   7.197   5.819  1.00  0.00     0.204 C 
BRANCH  11  12
HETATM   12  O   UNL     1      63.034   7.626   7.052  1.00  0.00    -0.396 OA
HETATM   13  H   UNL     1      63.364   7.063   7.770  1.00  0.00     0.209 HD
ENDBRANCH  11  12
ENDBRANCH   6  11
TORSDOF 2
ENDMDL
MODEL 8
REMARK VINA RESULT:      -4.0      2.744      4.028
REMARK  2 active torsions:
REMARK  status: ('A' for Active; 'I' for Inactive)
REMARK    1  A    between atoms: C_6  and  C_11 
REMARK    2  A    between atoms: C_11  and  O_12 
ROOT
HETATM    1  N   UNL     1      63.655   8.154   3.775  1.00  0.00    -0.317 N 
HETATM    2  C   UNL     1      63.459   9.232   4.630  1.00  0.00     0.111 A 
HETATM    3  C   UNL     1      62.949   7.965   2.590  1.00  0.00     0.107 A 
HETATM    4  N   UNL     1      64.260   9.172   5.672  1.00  0.00    -0.351 N 
ATOM      5  HN  UNL     1      64.319   9.835   6.445  1.00  0.00     0.166 HD
HETATM    6  C   UNL     1      62.008   8.861   2.227  1.00  0.00    -0.019 A 
HETATM    7  C   UNL     1      62.468  10.182   4.253  1.00  0.00     0.050 A 
HETATM    8  C   UNL     1      61.776  10.008   3.111  1.00  0.00     0.014 A 
HETATM    9  C   UNL     1      64.997   8.028   5.497  1.00  0.00     0.107 A 
HETATM   10  C   UNL     1      64.641   7.382   4.336  1.00  0.00     0.115 A 
ENDROOT
BRANCH   6  11
HETATM   11  C   UNL     1      61.206   8.760   0.962  1.00  0.00     0.204 C 
BRANCH  11  12
HETATM   12  O   UNL     1      59.819   8.732   1.265  1.00  0.00    -0.396 OA
HETATM   13  H   UNL     1      59.341   8.277   0.555  1.00  0.00     0.209 HD
ENDBRANCH  11  12
ENDBRANCH   6  11
TORSDOF 2
ENDMDL
MODEL 9
REMARK VINA RESULT:      -3.9      2.435      3.619
REMARK  2 active torsions:
REMARK  status: ('A' for Active; 'I' for Inactive)
REMARK    1  A    between atoms: C_6  and  C_11 
REMARK    2  A    between atoms: C_11  and  O_12 
ROOT
HETATM    1  N   UNL     1      63.580   8.894   4.270  1.00  0.00    -0.317 N 
HETATM    2  C   UNL     1      63.385   7.917   3.302  1.00  0.00     0.111 A 
HETATM    3  C   UNL     1      64.592   8.848   5.225  1.00  0.00     0.107 A 
HETATM    4  N   UNL     1      62.365   8.208   2.522  1.00  0.00    -0.351 N 
ATOM      5  HN  UNL     1      62.011   7.661   1.737  1.00  0.00     0.166 HD
HETATM    6  C   UNL     1      65.445   7.803   5.241  1.00  0.00    -0.019 A 
HETATM    7  C   UNL     1      64.280   6.811   3.312  1.00  0.00     0.050 A 
HETATM    8  C   UNL     1      65.261   6.753   4.233  1.00  0.00     0.014 A 
HETATM    9  C   UNL     1      61.881   9.403   2.991  1.00  0.00     0.107 A 
HETATM   10  C   UNL     1      62.612   9.846   4.069  1.00  0.00     0.115 A 
ENDROOT
BRANCH   6  11
HETATM   11  C   UNL     1      66.579   7.668   6.215  1.00  0.00     0.204 C 
BRANCH  11  12
HETATM   12  O   UNL     1      66.793   8.901   6.886  1.00  0.00    -0.396 OA
HETATM   13  H   UNL     1      67.663   9.255   6.644  1.00  0.00     0.209 HD
ENDBRANCH  11  12
ENDBRANCH   6  11
TORSDOF 2
ENDMDL
