MODEL 1
REMARK VINA RESULT:      -5.4      0.000      0.000
REMARK  3 active torsions:
REMARK  status: ('A' for Active; 'I' for Inactive)
REMARK    1  A    between atoms: N_1  and  C_2 
REMARK    2  A    between atoms: C_5  and  C_13 
REMARK    3  A    between atoms: O_9  and  C_13 
ROOT
HETATM    1  C   UNL     1      64.409   7.901   4.646  1.00  0.00     0.030 A 
HETATM    2  C   UNL     1      64.205   9.073   5.382  1.00  0.00     0.038 A 
HETATM    3  C   UNL     1      63.223  10.019   5.024  1.00  0.00    -0.033 A 
HETATM    4  C   UNL     1      63.574   7.692   3.536  1.00  0.00     0.029 A 
HETATM    5  C   UNL     1      62.584   8.607   3.173  1.00  0.00     0.003 A 
HETATM    6  C   UNL     1      62.410   9.770   3.914  1.00  0.00     0.009 A 
ENDROOT
BRANCH   1   7
HETATM    7  N   UNL     1      65.366   6.960   4.972  1.00  0.00    -0.377 N 
HETATM    8  C   UNL     1      65.410   6.272   6.270  1.00  0.00     0.149 C 
HETATM    9  C   UNL     1      66.649   6.686   7.079  1.00  0.00     0.187 C 
HETATM   10  O   UNL     1      67.858   6.528   6.318  1.00  0.00    -0.388 OA
HETATM   11  C   UNL     1      67.803   7.337   5.132  1.00  0.00     0.187 C 
HETATM   12  C   UNL     1      66.634   6.931   4.220  1.00  0.00     0.149 C 
ENDBRANCH   1   7
BRANCH   3  13
HETATM   13  C   UNL     1      63.063  11.290   5.816  1.00  0.00     0.203 C 
BRANCH  13  14
HETATM   14  O   UNL     1      64.272  11.627   6.482  1.00  0.00    -0.396 OA
HETATM   15  H   UNL     1      64.127  11.615   7.440  1.00  0.00     0.209 HD
ENDBRANCH  13  14
ENDBRANCH   3  13
TORSDOF 3
ENDMDL
MODEL 2
REMARK VINA RESULT:      -5.0      2.250      2.751
REMARK  3 active torsions:
REMARK  status: ('A' for Active; 'I' for Inactive)
REMARK    1  A    between atoms: N_1  and  C_2 
REMARK    2  A    between atoms: C_5  and  C_13 
REMARK    3  A    between atoms: O_9  and  C_13 
ROOT
HETATM    1  C   UNL     1      63.253   7.846   3.213  1.00  0.00     0.030 A 
HETATM    2  C   UNL     1      62.818   9.151   3.468  1.00  0.00     0.038 A 
HETATM    3  C   UNL     1      62.121   9.908   2.504  1.00  0.00    -0.033 A 
HETATM    4  C   UNL     1      62.947   7.307   1.952  1.00  0.00     0.029 A 
HETATM    5  C   UNL     1      62.242   8.032   0.989  1.00  0.00     0.003 A 
HETATM    6  C   UNL     1      61.832   9.332   1.264  1.00  0.00     0.009 A 
ENDROOT
BRANCH   1   7
HETATM    7  N   UNL     1      63.941   7.084   4.137  1.00  0.00    -0.377 N 
HETATM    8  C   UNL     1      63.277   6.281   5.173  1.00  0.00     0.149 C 
HETATM    9  C   UNL     1      63.555   6.842   6.576  1.00  0.00     0.187 C 
HETATM   10  O   UNL     1      64.962   7.011   6.812  1.00  0.00    -0.388 OA
HETATM   11  C   UNL     1      65.518   7.919   5.846  1.00  0.00     0.187 C 
HETATM   12  C   UNL     1      65.357   7.390   4.411  1.00  0.00     0.149 C 
ENDBRANCH   1   7
BRANCH   3  13
HETATM   13  C   UNL     1      61.708  11.325   2.801  1.00  0.00     0.203 C 
BRANCH  13  14
HETATM   14  O   UNL     1      62.097  12.197   1.749  1.00  0.00    -0.396 OA
HETATM   15  H   UNL     1      62.516  12.988   2.123  1.00  0.00     0.209 HD
ENDBRANCH  13  14
ENDBRANCH   3  13
TORSDOF 3
ENDMDL
MODEL 3
REMARK VINA RESULT:      -4.9      2.438      3.436
REMARK  3 active torsions:
REMARK  status: ('A' for Active; 'I' for Inactive)
REMARK    1  A    between atoms: N_1  and  C_2 
REMARK    2  A    between atoms: C_5  and  C_13 
REMARK    3  A    between atoms: O_9  and  C_13 
ROOT
HETATM    1  C   UNL     1      63.349   9.095   4.734  1.00  0.00     0.030 A 
HETATM    2  C   UNL     1      62.925   8.779   3.439  1.00  0.00     0.038 A 
HETATM    3  C   UNL     1      62.164   9.676   2.662  1.00  0.00    -0.033 A 
HETATM    4  C   UNL     1      63.000  10.363   5.227  1.00  0.00     0.029 A 
HETATM    5  C   UNL     1      62.261  11.274   4.469  1.00  0.00     0.003 A 
HETATM    6  C   UNL     1      61.841  10.930   3.189  1.00  0.00     0.009 A 
ENDROOT
BRANCH   1   7
HETATM    7  N   UNL     1      64.092   8.235   5.518  1.00  0.00    -0.377 N 
HETATM    8  C   UNL     1      65.550   8.092   5.399  1.00  0.00     0.149 C 
HETATM    9  C   UNL     1      65.933   6.704   4.864  1.00  0.00     0.187 C 
HETATM   10  O   UNL     1      65.326   5.652   5.632  1.00  0.00    -0.388 OA
HETATM   11  C   UNL     1      63.895   5.772   5.589  1.00  0.00     0.187 C 
HETATM   12  C   UNL     1      63.418   7.106   6.187  1.00  0.00     0.149 C 
ENDBRANCH   1   7
BRANCH   3  13
HETATM   13  C   UNL     1      61.688   9.281   1.289  1.00  0.00     0.203 C 
BRANCH  13  14
HETATM   14  O   UNL     1      60.321   8.896   1.317  1.00  0.00    -0.396 OA
HETATM   15  H   UNL     1      59.870   9.248   0.534  1.00  0.00     0.209 HD
ENDBRANCH  13  14
ENDBRANCH   3  13
TORSDOF 3
ENDMDL
MODEL 4
REMARK VINA RESULT:      -4.9      3.005      3.759
REMARK  3 active torsions:
REMARK  status: ('A' for Active; 'I' for Inactive)
REMARK    1  A    between atoms: N_1  and  C_2 
REMARK    2  A    between atoms: C_5  and  C_13 
REMARK    3  A    between atoms: O_9  and  C_13 
ROOT
HETATM    1  C   UNL     1      62.297   8.736   3.021  1.00  0.00     0.030 A 
HETATM    2  C   UNL     1      62.569   9.302   4.271  1.00  0.00     0.038 A 
HETATM    3  C   UNL     1      62.460  10.688   4.503  1.00  0.00    -0.033 A 
HETATM    4  C   UNL     1      61.889   9.610   2.000  1.00  0.00     0.029 A 
HETATM    5  C   UNL     1      61.758  10.984   2.213  1.00  0.00     0.003 A 
HETATM    6  C   UNL     1      62.045  11.523   3.461  1.00  0.00     0.009 A 
ENDROOT
BRANCH   1   7
HETATM    7  N   UNL     1      62.400   7.383   2.766  1.00  0.00    -0.377 N 
HETATM    8  C   UNL     1      63.302   6.489   3.504  1.00  0.00     0.149 C 
HETATM    9  C   UNL     1      64.427   5.961   2.601  1.00  0.00     0.187 C 
HETATM   10  O   UNL     1      63.908   5.368   1.399  1.00  0.00    -0.388 OA
HETATM   11  C   UNL     1      63.153   6.338   0.657  1.00  0.00     0.187 C 
HETATM   12  C   UNL     1      61.951   6.859   1.462  1.00  0.00     0.149 C 
ENDBRANCH   1   7
BRANCH   3  13
HETATM   13  C   UNL     1      62.803  11.265   5.851  1.00  0.00     0.203 C 
BRANCH  13  14
HETATM   14  O   UNL     1      64.209  11.291   6.048  1.00  0.00    -0.396 OA
HETATM   15  H   UNL     1      64.547  10.383   6.089  1.00  0.00     0.209 HD
ENDBRANCH  13  14
ENDBRANCH   3  13
TORSDOF 3
ENDMDL
MODEL 5
REMARK VINA RESULT:      -4.8      1.581      2.041
REMARK  3 active torsions:
REMARK  status: ('A' for Active; 'I' for Inactive)
REMARK    1  A    between atoms: N_1  and  C_2 
REMARK    2  A    between atoms: C_5  and  C_13 
REMARK    3  A    between atoms: O_9  and  C_13 
ROOT
HETATM    1  C   UNL     1      64.292   8.079   4.999  1.00  0.00     0.030 A 
HETATM    2  C   UNL     1      63.580   9.282   5.052  1.00  0.00     0.038 A 
HETATM    3  C   UNL     1      62.713   9.683   4.016  1.00  0.00    -0.033 A 
HETATM    4  C   UNL     1      64.092   7.269   3.869  1.00  0.00     0.029 A 
HETATM    5  C   UNL     1      63.225   7.638   2.839  1.00  0.00     0.003 A 
HETATM    6  C   UNL     1      62.538   8.845   2.910  1.00  0.00     0.009 A 
ENDROOT
BRANCH   1   7
HETATM    7  N   UNL     1      65.151   7.664   5.998  1.00  0.00    -0.377 N 
HETATM    8  C   UNL     1      66.560   8.072   6.071  1.00  0.00     0.149 C 
HETATM    9  C   UNL     1      67.499   6.880   5.831  1.00  0.00     0.187 C 
HETATM   10  O   UNL     1      67.188   5.775   6.696  1.00  0.00    -0.388 OA
HETATM   11  C   UNL     1      65.838   5.338   6.472  1.00  0.00     0.187 C 
HETATM   12  C   UNL     1      64.822   6.452   6.773  1.00  0.00     0.149 C 
ENDBRANCH   1   7
BRANCH   3  13
HETATM   13  C   UNL     1      61.997  11.006   4.089  1.00  0.00     0.203 C 
BRANCH  13  14
HETATM   14  O   UNL     1      61.960  11.634   2.816  1.00  0.00    -0.396 OA
HETATM   15  H   UNL     1      61.091  11.492   2.411  1.00  0.00     0.209 HD
ENDBRANCH  13  14
ENDBRANCH   3  13
TORSDOF 3
ENDMDL
MODEL 6
REMARK VINA RESULT:      -4.8      3.203      5.210
REMARK  3 active torsions:
REMARK  status: ('A' for Active; 'I' for Inactive)
REMARK    1  A    between atoms: N_1  and  C_2 
REMARK    2  A    between atoms: C_5  and  C_13 
REMARK    3  A    between atoms: O_9  and  C_13 
ROOT
HETATM    1  C   UNL     1      62.868   8.198   2.821  1.00  0.00     0.030 A 
HETATM    2  C   UNL     1      62.633   9.367   3.554  1.00  0.00     0.038 A 
HETATM    3  C   UNL     1      63.316   9.645   4.756  1.00  0.00    -0.033 A 
HETATM    4  C   UNL     1      63.835   7.313   3.326  1.00  0.00     0.029 A 
HETATM    5  C   UNL     1      64.535   7.576   4.505  1.00  0.00     0.003 A 
HETATM    6  C   UNL     1      64.274   8.739   5.221  1.00  0.00     0.009 A 
ENDROOT
BRANCH   1   7
HETATM    7  N   UNL     1      62.212   7.900   1.643  1.00  0.00    -0.377 N 
HETATM    8  C   UNL     1      61.230   8.797   1.018  1.00  0.00     0.149 C 
HETATM    9  C   UNL     1      59.818   8.193   1.058  1.00  0.00     0.187 C 
HETATM   10  O   UNL     1      59.793   6.865   0.511  1.00  0.00    -0.388 OA
HETATM   11  C   UNL     1      60.671   6.007   1.259  1.00  0.00     0.187 C 
HETATM   12  C   UNL     1      62.127   6.496   1.201  1.00  0.00     0.149 C 
ENDBRANCH   1   7
BRANCH   3  13
HETATM   13  C   UNL     1      63.004  10.893   5.539  1.00  0.00     0.203 C 
BRANCH  13  14
HETATM   14  O   UNL     1      64.164  11.382   6.196  1.00  0.00    -0.396 OA
HETATM   15  H   UNL     1      63.939  11.631   7.106  1.00  0.00     0.209 HD
ENDBRANCH  13  14
ENDBRANCH   3  13
TORSDOF 3
ENDMDL
MODEL 7
REMARK VINA RESULT:      -4.2      2.577      3.346
REMARK  3 active torsions:
REMARK  status: ('A' for Active; 'I' for Inactive)
REMARK    1  A    between atoms: N_1  and  C_2 
REMARK    2  A    between atoms: C_5  and  C_13 
REMARK    3  A    between atoms: O_9  and  C_13 
ROOT
HETATM    1  C   UNL     1      65.029   7.052   6.153  1.00  0.00     0.030 A 
HETATM    2  C   UNL     1      63.770   6.455   6.285  1.00  0.00     0.038 A 
HETATM    3  C   UNL     1      62.612   7.022   5.716  1.00  0.00    -0.033 A 
HETATM    4  C   UNL     1      65.096   8.240   5.407  1.00  0.00     0.029 A 
HETATM    5  C   UNL     1      63.964   8.809   4.820  1.00  0.00     0.003 A 
HETATM    6  C   UNL     1      62.723   8.203   4.977  1.00  0.00     0.009 A 
ENDROOT
BRANCH   1   7
HETATM    7  N   UNL     1      66.179   6.520   6.703  1.00  0.00    -0.377 N 
HETATM    8  C   UNL     1      66.630   5.144   6.452  1.00  0.00     0.149 C 
HETATM    9  C   UNL     1      66.548   4.290   7.726  1.00  0.00     0.187 C 
HETATM   10  O   UNL     1      67.228   4.912   8.829  1.00  0.00    -0.388 OA
HETATM   11  C   UNL     1      66.643   6.194   9.108  1.00  0.00     0.187 C 
HETATM   12  C   UNL     1      66.759   7.146   7.906  1.00  0.00     0.149 C 
ENDBRANCH   1   7
BRANCH   3  13
HETATM   13  C   UNL     1      61.268   6.373   5.918  1.00  0.00     0.203 C 
BRANCH  13  14
HETATM   14  O   UNL     1      60.903   6.378   7.290  1.00  0.00    -0.396 OA
HETATM   15  H   UNL     1      60.930   7.287   7.628  1.00  0.00     0.209 HD
ENDBRANCH  13  14
ENDBRANCH   3  13
TORSDOF 3
ENDMDL
MODEL 8
REMARK VINA RESULT:      -4.2      2.600      6.241
REMARK  3 active torsions:
REMARK  status: ('A' for Active; 'I' for Inactive)
REMARK    1  A    between atoms: N_1  and  C_2 
REMARK    2  A    between atoms: C_5  and  C_13 
REMARK    3  A    between atoms: O_9  and  C_13 
ROOT
HETATM    1  C   UNL     1      66.086   6.044   7.034  1.00  0.00     0.030 A 
HETATM    2  C   UNL     1      66.583   4.753   7.250  1.00  0.00     0.038 A 
HETATM    3  C   UNL     1      67.457   4.459   8.316  1.00  0.00    -0.033 A 
HETATM    4  C   UNL     1      66.481   7.039   7.942  1.00  0.00     0.029 A 
HETATM    5  C   UNL     1      67.332   6.766   9.015  1.00  0.00     0.003 A 
HETATM    6  C   UNL     1      67.822   5.478   9.200  1.00  0.00     0.009 A 
ENDROOT
BRANCH   1   7
HETATM    7  N   UNL     1      65.232   6.360   5.996  1.00  0.00    -0.377 N 
HETATM    8  C   UNL     1      65.550   7.359   4.966  1.00  0.00     0.149 C 
HETATM    9  C   UNL     1      64.631   8.585   5.075  1.00  0.00     0.187 C 
HETATM   10  O   UNL     1      63.244   8.210   5.085  1.00  0.00    -0.388 OA
HETATM   11  C   UNL     1      62.975   7.346   6.200  1.00  0.00     0.187 C 
HETATM   12  C   UNL     1      63.796   6.048   6.124  1.00  0.00     0.149 C 
ENDBRANCH   1   7
BRANCH   3  13
HETATM   13  C   UNL     1      68.006   3.067   8.489  1.00  0.00     0.203 C 
BRANCH  13  14
HETATM   14  O   UNL     1      67.325   2.380   9.530  1.00  0.00    -0.396 OA
HETATM   15  H   UNL     1      66.760   1.692   9.147  1.00  0.00     0.209 HD
ENDBRANCH  13  14
ENDBRANCH   3  13
TORSDOF 3
ENDMDL
MODEL 9
REMARK VINA RESULT:      -4.1      3.490      4.621
REMARK  3 active torsions:
REMARK  status: ('A' for Active; 'I' for Inactive)
REMARK    1  A    between atoms: N_1  and  C_2 
REMARK    2  A    between atoms: C_5  and  C_13 
REMARK    3  A    between atoms: O_9  and  C_13 
ROOT
HETATM    1  C   UNL     1      61.865   8.391   3.565  1.00  0.00     0.030 A 
HETATM    2  C   UNL     1      60.559   7.912   3.411  1.00  0.00     0.038 A 
HETATM    3  C   UNL     1      59.938   7.827   2.148  1.00  0.00    -0.033 A 
HETATM    4  C   UNL     1      62.547   8.769   2.396  1.00  0.00     0.029 A 
HETATM    5  C   UNL     1      61.957   8.677   1.134  1.00  0.00     0.003 A 
HETATM    6  C   UNL     1      60.654   8.210   1.010  1.00  0.00     0.009 A 
ENDROOT
BRANCH   1   7
HETATM    7  N   UNL     1      62.495   8.487   4.790  1.00  0.00    -0.377 N 
HETATM    8  C   UNL     1      63.641   9.373   5.039  1.00  0.00     0.149 C 
HETATM    9  C   UNL     1      64.920   8.567   5.310  1.00  0.00     0.187 C 
HETATM   10  O   UNL     1      64.725   7.594   6.350  1.00  0.00    -0.388 OA
HETATM   11  C   UNL     1      63.685   6.676   5.977  1.00  0.00     0.187 C 
HETATM   12  C   UNL     1      62.342   7.394   5.767  1.00  0.00     0.149 C 
ENDBRANCH   1   7
BRANCH   3  13
HETATM   13  C   UNL     1      58.516   7.348   2.029  1.00  0.00     0.203 C 
BRANCH  13  14
HETATM   14  O   UNL     1      58.180   7.090   0.673  1.00  0.00    -0.396 OA
HETATM   15  H   UNL     1      58.929   6.660   0.231  1.00  0.00     0.209 HD
ENDBRANCH  13  14
ENDBRANCH   3  13
TORSDOF 3
ENDMDL
