MODEL 1
REMARK VINA RESULT:      -5.2      0.000      0.000
REMARK  1 active torsions:
REMARK  status: ('A' for Active; 'I' for Inactive)
REMARK    1  A    between atoms: N_1  and  C_3 
ROOT
HETATM    1  N   UNL     1      61.782  11.685   3.986  1.00  0.00    -0.191 NA
HETATM    2  C   UNL     1      64.540   7.817   5.000  1.00  0.00     0.031 A 
HETATM    3  C   UNL     1      62.310  10.649   3.973  1.00  0.00     0.099 C 
HETATM    4  C   UNL     1      63.867   9.048   4.982  1.00  0.00     0.052 A 
HETATM    5  C   UNL     1      62.964   9.376   3.961  1.00  0.00     0.046 A 
HETATM    6  C   UNL     1      64.268   6.928   3.949  1.00  0.00     0.029 A 
HETATM    7  C   UNL     1      63.362   7.239   2.931  1.00  0.00     0.004 A 
HETATM    8  C   UNL     1      62.710   8.466   2.936  1.00  0.00     0.023 A 
ENDROOT
BRANCH   2   9
HETATM    9  N   UNL     1      65.419   7.479   6.003  1.00  0.00    -0.377 N 
HETATM   10  C   UNL     1      66.814   7.940   6.043  1.00  0.00     0.149 C 
HETATM   11  C   UNL     1      67.772   6.740   6.033  1.00  0.00     0.187 C 
HETATM   12  O   UNL     1      67.464   5.811   7.086  1.00  0.00    -0.388 OA
HETATM   13  C   UNL     1      66.123   5.316   6.939  1.00  0.00     0.187 C 
HETATM   14  C   UNL     1      65.086   6.451   7.002  1.00  0.00     0.149 C 
ENDBRANCH   2   9
TORSDOF 1
ENDMDL
MODEL 2
REMARK VINA RESULT:      -5.0      1.634      2.700
REMARK  1 active torsions:
REMARK  status: ('A' for Active; 'I' for Inactive)
REMARK    1  A    between atoms: N_1  and  C_3 
ROOT
HETATM    1  N   UNL     1      60.815   8.766   0.806  1.00  0.00    -0.191 NA
HETATM    2  C   UNL     1      63.818   8.626   4.620  1.00  0.00     0.031 A 
HETATM    3  C   UNL     1      61.408   9.008   1.776  1.00  0.00     0.099 C 
HETATM    4  C   UNL     1      63.090   8.385   3.447  1.00  0.00     0.052 A 
HETATM    5  C   UNL     1      62.141   9.300   2.970  1.00  0.00     0.046 A 
HETATM    6  C   UNL     1      63.555   9.827   5.298  1.00  0.00     0.029 A 
HETATM    7  C   UNL     1      62.619  10.752   4.828  1.00  0.00     0.004 A 
HETATM    8  C   UNL     1      61.909  10.488   3.663  1.00  0.00     0.023 A 
ENDROOT
BRANCH   2   9
HETATM    9  N   UNL     1      64.762   7.741   5.091  1.00  0.00    -0.377 N 
HETATM   10  C   UNL     1      64.426   6.547   5.880  1.00  0.00     0.149 C 
HETATM   11  C   UNL     1      65.110   6.607   7.253  1.00  0.00     0.187 C 
HETATM   12  O   UNL     1      66.528   6.808   7.127  1.00  0.00    -0.388 OA
HETATM   13  C   UNL     1      66.798   8.039   6.437  1.00  0.00     0.187 C 
HETATM   14  C   UNL     1      66.200   8.041   5.020  1.00  0.00     0.149 C 
ENDBRANCH   2   9
TORSDOF 1
ENDMDL
MODEL 3
REMARK VINA RESULT:      -5.0      1.864      2.556
REMARK  1 active torsions:
REMARK  status: ('A' for Active; 'I' for Inactive)
REMARK    1  A    between atoms: N_1  and  C_3 
ROOT
HETATM    1  N   UNL     1      61.104   8.581   0.632  1.00  0.00    -0.191 NA
HETATM    2  C   UNL     1      63.555   8.908   4.812  1.00  0.00     0.031 A 
HETATM    3  C   UNL     1      61.568   8.942   1.634  1.00  0.00     0.099 C 
HETATM    4  C   UNL     1      62.985   8.523   3.590  1.00  0.00     0.052 A 
HETATM    5  C   UNL     1      62.140   9.381   2.871  1.00  0.00     0.046 A 
HETATM    6  C   UNL     1      63.242  10.193   5.284  1.00  0.00     0.029 A 
HETATM    7  C   UNL     1      62.410  11.061   4.571  1.00  0.00     0.004 A 
HETATM    8  C   UNL     1      61.857  10.654   3.363  1.00  0.00     0.023 A 
ENDROOT
BRANCH   2   9
HETATM    9  N   UNL     1      64.395   8.079   5.521  1.00  0.00    -0.377 N 
HETATM   10  C   UNL     1      65.857   8.095   5.373  1.00  0.00     0.149 C 
HETATM   11  C   UNL     1      66.361   6.720   4.915  1.00  0.00     0.187 C 
HETATM   12  O   UNL     1      65.902   5.673   5.788  1.00  0.00    -0.388 OA
HETATM   13  C   UNL     1      64.466   5.639   5.815  1.00  0.00     0.187 C 
HETATM   14  C   UNL     1      63.874   6.964   6.326  1.00  0.00     0.149 C 
ENDBRANCH   2   9
TORSDOF 1
ENDMDL
MODEL 4
REMARK VINA RESULT:      -4.7      3.077      3.993
REMARK  1 active torsions:
REMARK  status: ('A' for Active; 'I' for Inactive)
REMARK    1  A    between atoms: N_1  and  C_3 
ROOT
HETATM    1  N   UNL     1      57.429   7.249   1.383  1.00  0.00    -0.191 NA
HETATM    2  C   UNL     1      61.809   8.310   3.195  1.00  0.00     0.031 A 
HETATM    3  C   UNL     1      58.546   7.539   1.518  1.00  0.00     0.099 C 
HETATM    4  C   UNL     1      60.471   7.949   2.981  1.00  0.00     0.052 A 
HETATM    5  C   UNL     1      59.921   7.898   1.692  1.00  0.00     0.046 A 
HETATM    6  C   UNL     1      62.575   8.617   2.060  1.00  0.00     0.029 A 
HETATM    7  C   UNL     1      62.042   8.559   0.769  1.00  0.00     0.004 A 
HETATM    8  C   UNL     1      60.712   8.201   0.584  1.00  0.00     0.023 A 
ENDROOT
BRANCH   2   9
HETATM    9  N   UNL     1      62.363   8.352   4.455  1.00  0.00    -0.377 N 
HETATM   10  C   UNL     1      63.379   9.335   4.857  1.00  0.00     0.149 C 
HETATM   11  C   UNL     1      64.664   8.621   5.299  1.00  0.00     0.187 C 
HETATM   12  O   UNL     1      64.400   7.645   6.321  1.00  0.00    -0.388 OA
HETATM   13  C   UNL     1      63.479   6.653   5.838  1.00  0.00     0.187 C 
HETATM   14  C   UNL     1      62.132   7.276   5.431  1.00  0.00     0.149 C 
ENDBRANCH   2   9
TORSDOF 1
ENDMDL
MODEL 5
REMARK VINA RESULT:      -4.5      2.585      5.682
REMARK  1 active torsions:
REMARK  status: ('A' for Active; 'I' for Inactive)
REMARK    1  A    between atoms: N_1  and  C_3 
ROOT
HETATM    1  N   UNL     1      66.958   4.176   8.814  1.00  0.00    -0.191 NA
HETATM    2  C   UNL     1      65.052   7.477   5.804  1.00  0.00     0.031 A 
HETATM    3  C   UNL     1      66.794   4.985   7.996  1.00  0.00     0.099 C 
HETATM    4  C   UNL     1      65.302   6.511   6.789  1.00  0.00     0.052 A 
HETATM    5  C   UNL     1      66.585   5.981   6.989  1.00  0.00     0.046 A 
HETATM    6  C   UNL     1      66.145   7.891   5.026  1.00  0.00     0.029 A 
HETATM    7  C   UNL     1      67.431   7.378   5.223  1.00  0.00     0.004 A 
HETATM    8  C   UNL     1      67.651   6.420   6.205  1.00  0.00     0.023 A 
ENDROOT
BRANCH   2   9
HETATM    9  N   UNL     1      63.800   8.013   5.606  1.00  0.00    -0.377 N 
HETATM   10  C   UNL     1      62.555   7.277   5.873  1.00  0.00     0.149 C 
HETATM   11  C   UNL     1      61.720   7.162   4.590  1.00  0.00     0.187 C 
HETATM   12  O   UNL     1      61.486   8.450   3.996  1.00  0.00    -0.388 OA
HETATM   13  C   UNL     1      62.735   9.080   3.663  1.00  0.00     0.187 C 
HETATM   14  C   UNL     1      63.614   9.294   4.908  1.00  0.00     0.149 C 
ENDBRANCH   2   9
TORSDOF 1
ENDMDL
MODEL 6
REMARK VINA RESULT:      -4.4      2.358      2.941
REMARK  1 active torsions:
REMARK  status: ('A' for Active; 'I' for Inactive)
REMARK    1  A    between atoms: N_1  and  C_3 
ROOT
HETATM    1  N   UNL     1      60.646   5.805   6.395  1.00  0.00    -0.191 NA
HETATM    2  C   UNL     1      65.276   7.264   6.254  1.00  0.00     0.031 A 
HETATM    3  C   UNL     1      61.641   6.356   6.157  1.00  0.00     0.099 C 
HETATM    4  C   UNL     1      64.055   6.620   6.497  1.00  0.00     0.052 A 
HETATM    5  C   UNL     1      62.870   7.032   5.870  1.00  0.00     0.046 A 
HETATM    6  C   UNL     1      65.261   8.341   5.355  1.00  0.00     0.029 A 
HETATM    7  C   UNL     1      64.088   8.755   4.715  1.00  0.00     0.004 A 
HETATM    8  C   UNL     1      62.890   8.100   4.975  1.00  0.00     0.023 A 
ENDROOT
BRANCH   2   9
HETATM    9  N   UNL     1      66.448   6.860   6.854  1.00  0.00    -0.377 N 
HETATM   10  C   UNL     1      67.539   6.194   6.128  1.00  0.00     0.149 C 
HETATM   11  C   UNL     1      67.811   4.809   6.729  1.00  0.00     0.187 C 
HETATM   12  O   UNL     1      68.052   4.886   8.144  1.00  0.00    -0.388 OA
HETATM   13  C   UNL     1      66.913   5.451   8.815  1.00  0.00     0.187 C 
HETATM   14  C   UNL     1      66.606   6.874   8.316  1.00  0.00     0.149 C 
ENDBRANCH   2   9
TORSDOF 1
ENDMDL
MODEL 7
REMARK VINA RESULT:      -4.2      1.243      1.980
REMARK  1 active torsions:
REMARK  status: ('A' for Active; 'I' for Inactive)
REMARK    1  A    between atoms: N_1  and  C_3 
ROOT
HETATM    1  N   UNL     1      61.596  10.243   2.888  1.00  0.00    -0.191 NA
HETATM    2  C   UNL     1      64.860   6.844   4.062  1.00  0.00     0.031 A 
HETATM    3  C   UNL     1      62.257   9.288   2.923  1.00  0.00     0.099 C 
HETATM    4  C   UNL     1      64.030   7.972   3.988  1.00  0.00     0.052 A 
HETATM    5  C   UNL     1      63.075   8.114   2.972  1.00  0.00     0.046 A 
HETATM    6  C   UNL     1      64.693   5.863   3.073  1.00  0.00     0.029 A 
HETATM    7  C   UNL     1      63.737   5.988   2.061  1.00  0.00     0.004 A 
HETATM    8  C   UNL     1      62.927   7.117   2.009  1.00  0.00     0.023 A 
ENDROOT
BRANCH   2   9
HETATM    9  N   UNL     1      65.794   6.688   5.063  1.00  0.00    -0.377 N 
HETATM   10  C   UNL     1      65.669   5.688   6.133  1.00  0.00     0.149 C 
HETATM   11  C   UNL     1      65.642   6.378   7.504  1.00  0.00     0.187 C 
HETATM   12  O   UNL     1      66.776   7.243   7.682  1.00  0.00    -0.388 OA
HETATM   13  C   UNL     1      66.791   8.261   6.668  1.00  0.00     0.187 C 
HETATM   14  C   UNL     1      66.882   7.657   5.256  1.00  0.00     0.149 C 
ENDBRANCH   2   9
TORSDOF 1
ENDMDL
MODEL 8
REMARK VINA RESULT:      -4.1      3.204      5.898
REMARK  1 active torsions:
REMARK  status: ('A' for Active; 'I' for Inactive)
REMARK    1  A    between atoms: N_1  and  C_3 
ROOT
HETATM    1  N   UNL     1      67.334   4.448   3.627  1.00  0.00    -0.191 NA
HETATM    2  C   UNL     1      63.963   7.929   3.943  1.00  0.00     0.031 A 
HETATM    3  C   UNL     1      66.705   5.374   3.936  1.00  0.00     0.099 C 
HETATM    4  C   UNL     1      64.746   6.813   3.616  1.00  0.00     0.052 A 
HETATM    5  C   UNL     1      65.927   6.516   4.311  1.00  0.00     0.046 A 
HETATM    6  C   UNL     1      64.413   8.737   4.998  1.00  0.00     0.029 A 
HETATM    7  C   UNL     1      65.583   8.446   5.706  1.00  0.00     0.004 A 
HETATM    8  C   UNL     1      66.342   7.334   5.361  1.00  0.00     0.023 A 
ENDROOT
BRANCH   2   9
HETATM    9  N   UNL     1      62.795   8.223   3.275  1.00  0.00    -0.377 N 
HETATM   10  C   UNL     1      62.313   7.458   2.116  1.00  0.00     0.149 C 
HETATM   11  C   UNL     1      62.184   8.374   0.891  1.00  0.00     0.187 C 
HETATM   12  O   UNL     1      61.368   9.523   1.175  1.00  0.00    -0.388 OA
HETATM   13  C   UNL     1      61.942  10.289   2.248  1.00  0.00     0.187 C 
HETATM   14  C   UNL     1      62.049   9.463   3.542  1.00  0.00     0.149 C 
ENDBRANCH   2   9
TORSDOF 1
ENDMDL
MODEL 9
REMARK VINA RESULT:      -4.0      4.226      4.995
REMARK  1 active torsions:
REMARK  status: ('A' for Active; 'I' for Inactive)
REMARK    1  A    between atoms: N_1  and  C_3 
ROOT
HETATM    1  N   UNL     1      58.792   5.190   9.490  1.00  0.00    -0.191 NA
HETATM    2  C   UNL     1      61.379   6.347   5.546  1.00  0.00     0.031 A 
HETATM    3  C   UNL     1      59.132   5.478   8.416  1.00  0.00     0.099 C 
HETATM    4  C   UNL     1      60.923   5.985   6.821  1.00  0.00     0.052 A 
HETATM    5  C   UNL     1      59.556   5.835   7.097  1.00  0.00     0.046 A 
HETATM    6  C   UNL     1      60.406   6.555   4.556  1.00  0.00     0.029 A 
HETATM    7  C   UNL     1      59.041   6.399   4.815  1.00  0.00     0.004 A 
HETATM    8  C   UNL     1      58.615   6.040   6.089  1.00  0.00     0.023 A 
ENDROOT
BRANCH   2   9
HETATM    9  N   UNL     1      62.719   6.485   5.260  1.00  0.00    -0.377 N 
HETATM   10  C   UNL     1      63.781   5.822   6.031  1.00  0.00     0.149 C 
HETATM   11  C   UNL     1      64.728   6.865   6.639  1.00  0.00     0.187 C 
HETATM   12  O   UNL     1      65.244   7.757   5.636  1.00  0.00    -0.388 OA
HETATM   13  C   UNL     1      64.168   8.452   4.984  1.00  0.00     0.187 C 
HETATM   14  C   UNL     1      63.199   7.480   4.289  1.00  0.00     0.149 C 
ENDBRANCH   2   9
TORSDOF 1
ENDMDL
