MODEL 1
REMARK VINA RESULT:      -5.1      0.000      0.000
REMARK  3 active torsions:
REMARK  status: ('A' for Active; 'I' for Inactive)
REMARK    1  A    between atoms: N_1  and  C_2 
REMARK    2  A    between atoms: N_7  and  C_11 
REMARK    3  A    between atoms: C_8  and  C_11 
ROOT
HETATM    1  C   UNL     1      63.980   8.112   3.983  1.00  0.00     0.030 A 
HETATM    2  C   UNL     1      64.405   6.886   3.459  1.00  0.00     0.030 A 
HETATM    3  C   UNL     1      64.750   8.646   5.028  1.00  0.00     0.030 A 
HETATM    4  C   UNL     1      65.544   6.226   3.942  1.00  0.00     0.011 A 
HETATM    5  C   UNL     1      65.892   8.002   5.513  1.00  0.00     0.011 A 
HETATM    6  C   UNL     1      66.299   6.777   4.982  1.00  0.00    -0.033 A 
ENDROOT
BRANCH   1   7
HETATM    7  N   UNL     1      62.861   8.771   3.507  1.00  0.00    -0.381 N 
HETATM    8  C   UNL     1      62.154   9.787   4.285  1.00  0.00     0.123 C 
HETATM    9  C   UNL     1      62.086  11.080   3.469  1.00  0.00     0.020 C 
HETATM   10  C   UNL     1      61.506  10.846   2.074  1.00  0.00     0.003 C 
HETATM   11  C   UNL     1      62.237   9.716   1.348  1.00  0.00     0.020 C 
HETATM   12  C   UNL     1      62.280   8.453   2.202  1.00  0.00     0.123 C 
ENDBRANCH   1   7
BRANCH   6  13
HETATM   13  C   UNL     1      67.526   6.071   5.508  1.00  0.00     0.270 C 
BRANCH  13  14
HETATM   14  N   UNL     1      68.019   6.702   6.732  1.00  0.00    -0.075 N 
HETATM   15  C   UNL     1      67.853   5.823   7.878  1.00  0.00     0.267 C 
HETATM   16  H   UNL     1      67.497   7.564   6.895  1.00  0.00     0.277 HD
HETATM   17  H   UNL     1      69.012   6.900   6.617  1.00  0.00     0.277 HD
ENDBRANCH  13  14
ENDBRANCH   6  13
TORSDOF 3
ENDMDL
MODEL 2
REMARK VINA RESULT:      -5.1      1.267      6.192
REMARK  3 active torsions:
REMARK  status: ('A' for Active; 'I' for Inactive)
REMARK    1  A    between atoms: N_1  and  C_2 
REMARK    2  A    between atoms: N_7  and  C_11 
REMARK    3  A    between atoms: C_8  and  C_11 
ROOT
HETATM    1  C   UNL     1      65.286   7.627   4.869  1.00  0.00     0.030 A 
HETATM    2  C   UNL     1      64.749   6.952   3.767  1.00  0.00     0.030 A 
HETATM    3  C   UNL     1      64.621   8.797   5.270  1.00  0.00     0.030 A 
HETATM    4  C   UNL     1      63.602   7.408   3.102  1.00  0.00     0.011 A 
HETATM    5  C   UNL     1      63.471   9.258   4.621  1.00  0.00     0.011 A 
HETATM    6  C   UNL     1      62.952   8.573   3.521  1.00  0.00    -0.033 A 
ENDROOT
BRANCH   1   7
HETATM    7  N   UNL     1      66.413   7.179   5.532  1.00  0.00    -0.381 N 
HETATM    8  C   UNL     1      66.786   7.657   6.863  1.00  0.00     0.123 C 
HETATM    9  C   UNL     1      66.924   6.455   7.802  1.00  0.00     0.020 C 
HETATM   10  C   UNL     1      67.863   5.390   7.234  1.00  0.00     0.003 C 
HETATM   11  C   UNL     1      67.466   4.998   5.810  1.00  0.00     0.020 C 
HETATM   12  C   UNL     1      67.339   6.227   4.917  1.00  0.00     0.123 C 
ENDBRANCH   1   7
BRANCH   6  13
HETATM   13  C   UNL     1      61.718   9.071   2.809  1.00  0.00     0.270 C 
BRANCH  13  14
HETATM   14  N   UNL     1      61.436  10.467   3.145  1.00  0.00    -0.075 N 
HETATM   15  C   UNL     1      61.786  11.352   2.045  1.00  0.00     0.267 C 
HETATM   16  H   UNL     1      61.980  10.727   3.968  1.00  0.00     0.277 HD
HETATM   17  H   UNL     1      60.438  10.561   3.330  1.00  0.00     0.277 HD
ENDBRANCH  13  14
ENDBRANCH   6  13
TORSDOF 3
ENDMDL
MODEL 3
REMARK VINA RESULT:      -4.9      0.866      1.489
REMARK  3 active torsions:
REMARK  status: ('A' for Active; 'I' for Inactive)
REMARK    1  A    between atoms: N_1  and  C_2 
REMARK    2  A    between atoms: N_7  and  C_11 
REMARK    3  A    between atoms: C_8  and  C_11 
ROOT
HETATM    1  C   UNL     1      63.894   7.944   4.243  1.00  0.00     0.030 A 
HETATM    2  C   UNL     1      64.653   8.776   5.074  1.00  0.00     0.030 A 
HETATM    3  C   UNL     1      64.287   6.597   4.180  1.00  0.00     0.030 A 
HETATM    4  C   UNL     1      65.742   8.295   5.814  1.00  0.00     0.011 A 
HETATM    5  C   UNL     1      65.366   6.103   4.921  1.00  0.00     0.011 A 
HETATM    6  C   UNL     1      66.114   6.949   5.741  1.00  0.00    -0.033 A 
ENDROOT
BRANCH   1   7
HETATM    7  N   UNL     1      62.816   8.411   3.514  1.00  0.00    -0.381 N 
HETATM    8  C   UNL     1      61.988   9.529   3.962  1.00  0.00     0.123 C 
HETATM    9  C   UNL     1      61.969  10.602   2.870  1.00  0.00     0.020 C 
HETATM   10  C   UNL     1      61.563  10.028   1.512  1.00  0.00     0.003 C 
HETATM   11  C   UNL     1      62.413   8.812   1.144  1.00  0.00     0.020 C 
HETATM   12  C   UNL     1      62.402   7.775   2.263  1.00  0.00     0.123 C 
ENDBRANCH   1   7
BRANCH   6  13
HETATM   13  C   UNL     1      67.286   6.425   6.535  1.00  0.00     0.270 C 
BRANCH  13  14
HETATM   14  N   UNL     1      67.353   7.046   7.857  1.00  0.00    -0.075 N 
HETATM   15  C   UNL     1      66.588   6.286   8.833  1.00  0.00     0.267 C 
HETATM   16  H   UNL     1      66.975   7.992   7.801  1.00  0.00     0.277 HD
HETATM   17  H   UNL     1      68.328   7.066   8.157  1.00  0.00     0.277 HD
ENDBRANCH  13  14
ENDBRANCH   6  13
TORSDOF 3
ENDMDL
MODEL 4
REMARK VINA RESULT:      -4.5      1.703      6.746
REMARK  3 active torsions:
REMARK  status: ('A' for Active; 'I' for Inactive)
REMARK    1  A    between atoms: N_1  and  C_2 
REMARK    2  A    between atoms: N_7  and  C_11 
REMARK    3  A    between atoms: C_8  and  C_11 
ROOT
HETATM    1  C   UNL     1      65.069   6.648   6.756  1.00  0.00     0.030 A 
HETATM    2  C   UNL     1      63.761   6.359   6.349  1.00  0.00     0.030 A 
HETATM    3  C   UNL     1      65.675   7.767   6.163  1.00  0.00     0.030 A 
HETATM    4  C   UNL     1      63.084   7.147   5.407  1.00  0.00     0.011 A 
HETATM    5  C   UNL     1      65.008   8.566   5.229  1.00  0.00     0.011 A 
HETATM    6  C   UNL     1      63.705   8.261   4.832  1.00  0.00    -0.033 A 
ENDROOT
BRANCH   1   7
HETATM    7  N   UNL     1      65.739   5.878   7.688  1.00  0.00    -0.381 N 
HETATM    8  C   UNL     1      65.874   4.428   7.562  1.00  0.00     0.123 C 
HETATM    9  C   UNL     1      67.361   4.062   7.604  1.00  0.00     0.020 C 
HETATM   10  C   UNL     1      68.060   4.651   8.829  1.00  0.00     0.003 C 
HETATM   11  C   UNL     1      67.809   6.154   8.946  1.00  0.00     0.020 C 
HETATM   12  C   UNL     1      66.317   6.467   8.897  1.00  0.00     0.123 C 
ENDBRANCH   1   7
BRANCH   6  13
HETATM   13  C   UNL     1      62.983   9.113   3.816  1.00  0.00     0.270 C 
BRANCH  13  14
HETATM   14  N   UNL     1      62.649   8.344   2.618  1.00  0.00    -0.075 N 
HETATM   15  C   UNL     1      62.090   9.200   1.584  1.00  0.00     0.267 C 
HETATM   16  H   UNL     1      61.965   7.626   2.862  1.00  0.00     0.277 HD
HETATM   17  H   UNL     1      63.503   7.917   2.258  1.00  0.00     0.277 HD
ENDBRANCH  13  14
ENDBRANCH   6  13
TORSDOF 3
ENDMDL
MODEL 5
REMARK VINA RESULT:      -4.3      1.675      6.261
REMARK  3 active torsions:
REMARK  status: ('A' for Active; 'I' for Inactive)
REMARK    1  A    between atoms: N_1  and  C_2 
REMARK    2  A    between atoms: N_7  and  C_11 
REMARK    3  A    between atoms: C_8  and  C_11 
ROOT
HETATM    1  C   UNL     1      64.438   6.933   4.950  1.00  0.00     0.030 A 
HETATM    2  C   UNL     1      63.253   6.817   4.214  1.00  0.00     0.030 A 
HETATM    3  C   UNL     1      64.810   8.231   5.334  1.00  0.00     0.030 A 
HETATM    4  C   UNL     1      62.470   7.932   3.884  1.00  0.00     0.011 A 
HETATM    5  C   UNL     1      64.034   9.351   5.019  1.00  0.00     0.011 A 
HETATM    6  C   UNL     1      62.857   9.216   4.281  1.00  0.00    -0.033 A 
ENDROOT
BRANCH   1   7
HETATM    7  N   UNL     1      65.211   5.837   5.283  1.00  0.00    -0.381 N 
HETATM    8  C   UNL     1      64.974   4.506   4.725  1.00  0.00     0.123 C 
HETATM    9  C   UNL     1      66.261   4.010   4.059  1.00  0.00     0.020 C 
HETATM   10  C   UNL     1      67.460   4.087   5.005  1.00  0.00     0.003 C 
HETATM   11  C   UNL     1      67.600   5.481   5.617  1.00  0.00     0.020 C 
HETATM   12  C   UNL     1      66.293   5.930   6.264  1.00  0.00     0.123 C 
ENDBRANCH   1   7
BRANCH   6  13
HETATM   13  C   UNL     1      62.019  10.422   3.928  1.00  0.00     0.270 C 
BRANCH  13  14
HETATM   14  N   UNL     1      61.635  10.408   2.517  1.00  0.00    -0.075 N 
HETATM   15  C   UNL     1      61.680  11.746   1.948  1.00  0.00     0.267 C 
HETATM   16  H   UNL     1      60.686  10.042   2.433  1.00  0.00     0.277 HD
HETATM   17  H   UNL     1      62.293   9.819   2.007  1.00  0.00     0.277 HD
ENDBRANCH  13  14
ENDBRANCH   6  13
TORSDOF 3
ENDMDL
MODEL 6
REMARK VINA RESULT:      -4.0      3.617      4.275
REMARK  3 active torsions:
REMARK  status: ('A' for Active; 'I' for Inactive)
REMARK    1  A    between atoms: N_1  and  C_2 
REMARK    2  A    between atoms: N_7  and  C_11 
REMARK    3  A    between atoms: C_8  and  C_11 
ROOT
HETATM    1  C   UNL     1      61.071   6.991   4.793  1.00  0.00     0.030 A 
HETATM    2  C   UNL     1      61.933   6.541   5.800  1.00  0.00     0.030 A 
HETATM    3  C   UNL     1      61.612   7.896   3.865  1.00  0.00     0.030 A 
HETATM    4  C   UNL     1      63.269   6.961   5.877  1.00  0.00     0.011 A 
HETATM    5  C   UNL     1      62.945   8.316   3.927  1.00  0.00     0.011 A 
HETATM    6  C   UNL     1      63.789   7.860   4.941  1.00  0.00    -0.033 A 
ENDROOT
BRANCH   1   7
HETATM    7  N   UNL     1      59.755   6.577   4.708  1.00  0.00    -0.381 N 
HETATM    8  C   UNL     1      59.154   5.656   5.672  1.00  0.00     0.123 C 
HETATM    9  C   UNL     1      57.909   6.311   6.275  1.00  0.00     0.020 C 
HETATM   10  C   UNL     1      56.944   6.805   5.198  1.00  0.00     0.003 C 
HETATM   11  C   UNL     1      57.654   7.694   4.176  1.00  0.00     0.020 C 
HETATM   12  C   UNL     1      58.888   6.999   3.608  1.00  0.00     0.123 C 
ENDBRANCH   1   7
BRANCH   6  13
HETATM   13  C   UNL     1      65.226   8.316   5.019  1.00  0.00     0.270 C 
BRANCH  13  14
HETATM   14  N   UNL     1      65.699   8.348   6.402  1.00  0.00    -0.075 N 
HETATM   15  C   UNL     1      66.935   7.596   6.551  1.00  0.00     0.267 C 
HETATM   16  H   UNL     1      64.986   7.940   7.008  1.00  0.00     0.277 HD
HETATM   17  H   UNL     1      65.878   9.318   6.662  1.00  0.00     0.277 HD
ENDBRANCH  13  14
ENDBRANCH   6  13
TORSDOF 3
ENDMDL
MODEL 7
REMARK VINA RESULT:      -4.0      4.871      7.183
REMARK  3 active torsions:
REMARK  status: ('A' for Active; 'I' for Inactive)
REMARK    1  A    between atoms: N_1  and  C_2 
REMARK    2  A    between atoms: N_7  and  C_11 
REMARK    3  A    between atoms: C_8  and  C_11 
ROOT
HETATM    1  C   UNL     1      59.720   7.258   3.892  1.00  0.00     0.030 A 
HETATM    2  C   UNL     1      58.405   7.693   3.691  1.00  0.00     0.030 A 
HETATM    3  C   UNL     1      59.917   6.313   4.912  1.00  0.00     0.030 A 
HETATM    4  C   UNL     1      57.335   7.208   4.457  1.00  0.00     0.011 A 
HETATM    5  C   UNL     1      58.858   5.815   5.678  1.00  0.00     0.011 A 
HETATM    6  C   UNL     1      57.553   6.264   5.466  1.00  0.00    -0.033 A 
ENDROOT
BRANCH   1   7
HETATM    7  N   UNL     1      60.777   7.728   3.136  1.00  0.00    -0.381 N 
HETATM    8  C   UNL     1      61.001   7.316   1.751  1.00  0.00     0.123 C 
HETATM    9  C   UNL     1      61.058   8.562   0.864  1.00  0.00     0.020 C 
HETATM   10  C   UNL     1      62.067   9.587   1.382  1.00  0.00     0.003 C 
HETATM   11  C   UNL     1      61.828   9.910   2.857  1.00  0.00     0.020 C 
HETATM   12  C   UNL     1      61.777   8.638   3.697  1.00  0.00     0.123 C 
ENDBRANCH   1   7
BRANCH   6  13
HETATM   13  C   UNL     1      56.407   5.738   6.296  1.00  0.00     0.270 C 
BRANCH  13  14
HETATM   14  N   UNL     1      55.790   6.803   7.086  1.00  0.00    -0.075 N 
HETATM   15  C   UNL     1      54.647   6.306   7.835  1.00  0.00     0.267 C 
HETATM   16  H   UNL     1      55.480   7.546   6.460  1.00  0.00     0.277 HD
HETATM   17  H   UNL     1      56.480   7.156   7.749  1.00  0.00     0.277 HD
ENDBRANCH  13  14
ENDBRANCH   6  13
TORSDOF 3
ENDMDL
MODEL 8
REMARK VINA RESULT:      -3.9      4.465      5.877
REMARK  3 active torsions:
REMARK  status: ('A' for Active; 'I' for Inactive)
REMARK    1  A    between atoms: N_1  and  C_2 
REMARK    2  A    between atoms: N_7  and  C_11 
REMARK    3  A    between atoms: C_8  and  C_11 
ROOT
HETATM    1  C   UNL     1      60.639   7.026   4.269  1.00  0.00     0.030 A 
HETATM    2  C   UNL     1      61.191   6.490   5.438  1.00  0.00     0.030 A 
HETATM    3  C   UNL     1      59.241   6.965   4.153  1.00  0.00     0.030 A 
HETATM    4  C   UNL     1      60.395   5.929   6.447  1.00  0.00     0.011 A 
HETATM    5  C   UNL     1      58.435   6.416   5.156  1.00  0.00     0.011 A 
HETATM    6  C   UNL     1      59.004   5.882   6.314  1.00  0.00    -0.033 A 
ENDROOT
BRANCH   1   7
HETATM    7  N   UNL     1      61.418   7.585   3.273  1.00  0.00    -0.381 N 
HETATM    8  C   UNL     1      61.387   7.112   1.889  1.00  0.00     0.123 C 
HETATM    9  C   UNL     1      61.055   8.290   0.969  1.00  0.00     0.020 C 
HETATM   10  C   UNL     1      61.988   9.478   1.203  1.00  0.00     0.003 C 
HETATM   11  C   UNL     1      62.037   9.867   2.681  1.00  0.00     0.020 C 
HETATM   12  C   UNL     1      62.368   8.661   3.555  1.00  0.00     0.123 C 
ENDBRANCH   1   7
BRANCH   6  13
HETATM   13  C   UNL     1      58.141   5.279   7.396  1.00  0.00     0.270 C 
BRANCH  13  14
HETATM   14  N   UNL     1      58.786   5.374   8.705  1.00  0.00    -0.075 N 
HETATM   15  C   UNL     1      58.730   4.104   9.410  1.00  0.00     0.267 C 
HETATM   16  H   UNL     1      58.310   6.085   9.261  1.00  0.00     0.277 HD
HETATM   17  H   UNL     1      59.766   5.623   8.567  1.00  0.00     0.277 HD
ENDBRANCH  13  14
ENDBRANCH   6  13
TORSDOF 3
ENDMDL
MODEL 9
REMARK VINA RESULT:      -3.9      2.400      3.554
REMARK  3 active torsions:
REMARK  status: ('A' for Active; 'I' for Inactive)
REMARK    1  A    between atoms: N_1  and  C_2 
REMARK    2  A    between atoms: N_7  and  C_11 
REMARK    3  A    between atoms: C_8  and  C_11 
ROOT
HETATM    1  C   UNL     1      64.774   6.084   6.110  1.00  0.00     0.030 A 
HETATM    2  C   UNL     1      65.301   6.693   7.254  1.00  0.00     0.030 A 
HETATM    3  C   UNL     1      65.271   4.809   5.794  1.00  0.00     0.030 A 
HETATM    4  C   UNL     1      66.267   6.065   8.053  1.00  0.00     0.011 A 
HETATM    5  C   UNL     1      66.228   4.168   6.587  1.00  0.00     0.011 A 
HETATM    6  C   UNL     1      66.746   4.793   7.723  1.00  0.00    -0.033 A 
ENDROOT
BRANCH   1   7
HETATM    7  N   UNL     1      63.816   6.696   5.322  1.00  0.00    -0.381 N 
HETATM    8  C   UNL     1      63.111   7.908   5.736  1.00  0.00     0.123 C 
HETATM    9  C   UNL     1      63.305   8.986   4.667  1.00  0.00     0.020 C 
HETATM   10  C   UNL     1      62.922   8.485   3.274  1.00  0.00     0.003 C 
HETATM   11  C   UNL     1      63.630   7.173   2.938  1.00  0.00     0.020 C 
HETATM   12  C   UNL     1      63.410   6.134   4.034  1.00  0.00     0.123 C 
ENDBRANCH   1   7
BRANCH   6  13
HETATM   13  C   UNL     1      67.788   4.111   8.577  1.00  0.00     0.270 C 
BRANCH  13  14
HETATM   14  N   UNL     1      67.279   2.860   9.139  1.00  0.00    -0.075 N 
HETATM   15  C   UNL     1      68.072   1.726   8.693  1.00  0.00     0.267 C 
HETATM   16  H   UNL     1      66.312   2.729   8.839  1.00  0.00     0.277 HD
HETATM   17  H   UNL     1      67.335   2.914  10.155  1.00  0.00     0.277 HD
ENDBRANCH  13  14
ENDBRANCH   6  13
TORSDOF 3
ENDMDL
