MODEL 1
REMARK VINA RESULT:      -5.7      0.000      0.000
REMARK  2 active torsions:
REMARK  status: ('A' for Active; 'I' for Inactive)
REMARK    1  A    between atoms: N_1  and  C_3 
REMARK    2  A    between atoms: C_2  and  C_4 
ROOT
HETATM    1  C   UNL     1      65.174   7.635   4.737  1.00  0.00     0.031 A 
HETATM    2  C   UNL     1      63.334   9.236   4.475  1.00  0.00     0.043 A 
HETATM    3  C   UNL     1      64.496   8.800   5.132  1.00  0.00     0.047 A 
HETATM    4  C   UNL     1      64.625   6.914   3.664  1.00  0.00     0.029 A 
HETATM    5  C   UNL     1      62.816   8.493   3.411  1.00  0.00     0.018 A 
HETATM    6  C   UNL     1      63.462   7.330   3.008  1.00  0.00     0.003 A 
ENDROOT
BRANCH   1   7
HETATM    7  N   UNL     1      66.337   7.227   5.363  1.00  0.00    -0.381 N 
HETATM    8  C   UNL     1      66.796   7.825   6.617  1.00  0.00     0.123 C 
HETATM    9  C   UNL     1      66.978   6.719   7.658  1.00  0.00     0.020 C 
HETATM   10  C   UNL     1      67.881   5.598   7.144  1.00  0.00     0.003 C 
HETATM   11  C   UNL     1      67.406   5.074   5.788  1.00  0.00     0.020 C 
HETATM   12  C   UNL     1      67.218   6.212   4.787  1.00  0.00     0.123 C 
ENDBRANCH   1   7
BRANCH   2  13
HETATM   13  C   UNL     1      62.637  10.487   4.854  1.00  0.00     0.209 C 
HETATM   14  O   UNL     1      61.758  11.035   4.212  1.00  0.00    -0.644 OA
HETATM   15  O   UNL     1      63.078  11.012   6.011  1.00  0.00    -0.644 OA
ENDBRANCH   2  13
TORSDOF 2
ENDMDL
MODEL 2
REMARK VINA RESULT:      -5.7      0.903      1.625
REMARK  2 active torsions:
REMARK  status: ('A' for Active; 'I' for Inactive)
REMARK    1  A    between atoms: N_1  and  C_3 
REMARK    2  A    between atoms: C_2  and  C_4 
ROOT
HETATM    1  C   UNL     1      64.487   7.577   4.579  1.00  0.00     0.031 A 
HETATM    2  C   UNL     1      63.125   9.617   4.581  1.00  0.00     0.043 A 
HETATM    3  C   UNL     1      64.086   8.783   5.176  1.00  0.00     0.047 A 
HETATM    4  C   UNL     1      63.868   7.233   3.367  1.00  0.00     0.029 A 
HETATM    5  C   UNL     1      62.530   9.242   3.374  1.00  0.00     0.018 A 
HETATM    6  C   UNL     1      62.902   8.047   2.769  1.00  0.00     0.003 A 
ENDROOT
BRANCH   1   7
HETATM    7  N   UNL     1      65.458   6.775   5.149  1.00  0.00    -0.381 N 
HETATM    8  C   UNL     1      66.745   6.530   4.496  1.00  0.00     0.123 C 
HETATM    9  C   UNL     1      67.871   6.932   5.451  1.00  0.00     0.020 C 
HETATM   10  C   UNL     1      67.731   6.252   6.812  1.00  0.00     0.003 C 
HETATM   11  C   UNL     1      66.338   6.464   7.405  1.00  0.00     0.020 C 
HETATM   12  C   UNL     1      65.246   6.070   6.413  1.00  0.00     0.123 C 
ENDBRANCH   1   7
BRANCH   2  13
HETATM   13  C   UNL     1      62.728  10.913   5.179  1.00  0.00     0.209 C 
HETATM   14  O   UNL     1      63.050  11.317   6.283  1.00  0.00    -0.644 OA
HETATM   15  O   UNL     1      61.932  11.646   4.380  1.00  0.00    -0.644 OA
ENDBRANCH   2  13
TORSDOF 2
ENDMDL
MODEL 3
REMARK VINA RESULT:      -5.6      1.923      2.878
REMARK  2 active torsions:
REMARK  status: ('A' for Active; 'I' for Inactive)
REMARK    1  A    between atoms: N_1  and  C_3 
REMARK    2  A    between atoms: C_2  and  C_4 
ROOT
HETATM    1  C   UNL     1      63.148   7.713   3.119  1.00  0.00     0.031 A 
HETATM    2  C   UNL     1      62.172   9.870   2.476  1.00  0.00     0.043 A 
HETATM    3  C   UNL     1      62.814   9.045   3.414  1.00  0.00     0.047 A 
HETATM    4  C   UNL     1      62.794   7.238   1.846  1.00  0.00     0.029 A 
HETATM    5  C   UNL     1      61.835   9.362   1.219  1.00  0.00     0.018 A 
HETATM    6  C   UNL     1      62.145   8.044   0.907  1.00  0.00     0.003 A 
ENDROOT
BRANCH   1   7
HETATM    7  N   UNL     1      63.811   6.914   4.031  1.00  0.00    -0.381 N 
HETATM    8  C   UNL     1      65.207   6.516   3.846  1.00  0.00     0.123 C 
HETATM    9  C   UNL     1      66.013   6.942   5.075  1.00  0.00     0.020 C 
HETATM   10  C   UNL     1      65.390   6.421   6.370  1.00  0.00     0.003 C 
HETATM   11  C   UNL     1      63.909   6.788   6.467  1.00  0.00     0.020 C 
HETATM   12  C   UNL     1      63.148   6.363   5.213  1.00  0.00     0.123 C 
ENDBRANCH   1   7
BRANCH   2  13
HETATM   13  C   UNL     1      61.856  11.289   2.760  1.00  0.00     0.209 C 
HETATM   14  O   UNL     1      61.800  12.186   1.936  1.00  0.00    -0.644 OA
HETATM   15  O   UNL     1      61.639  11.535   4.065  1.00  0.00    -0.644 OA
ENDBRANCH   2  13
TORSDOF 2
ENDMDL
MODEL 4
REMARK VINA RESULT:      -5.4      2.595      5.474
REMARK  2 active torsions:
REMARK  status: ('A' for Active; 'I' for Inactive)
REMARK    1  A    between atoms: N_1  and  C_3 
REMARK    2  A    between atoms: C_2  and  C_4 
ROOT
HETATM    1  C   UNL     1      63.643   8.117   3.691  1.00  0.00     0.031 A 
HETATM    2  C   UNL     1      65.420   7.541   5.281  1.00  0.00     0.043 A 
HETATM    3  C   UNL     1      64.424   8.417   4.819  1.00  0.00     0.047 A 
HETATM    4  C   UNL     1      63.918   6.907   3.034  1.00  0.00     0.029 A 
HETATM    5  C   UNL     1      65.665   6.346   4.602  1.00  0.00     0.018 A 
HETATM    6  C   UNL     1      64.914   6.031   3.475  1.00  0.00     0.003 A 
ENDROOT
BRANCH   1   7
HETATM    7  N   UNL     1      62.640   8.964   3.259  1.00  0.00    -0.381 N 
HETATM    8  C   UNL     1      61.927   9.855   4.175  1.00  0.00     0.123 C 
HETATM    9  C   UNL     1      62.049  11.293   3.666  1.00  0.00     0.020 C 
HETATM   10  C   UNL     1      61.602  11.419   2.210  1.00  0.00     0.003 C 
HETATM   11  C   UNL     1      62.312  10.403   1.315  1.00  0.00     0.020 C 
HETATM   12  C   UNL     1      62.182   8.986   1.870  1.00  0.00     0.123 C 
ENDBRANCH   1   7
BRANCH   2  13
HETATM   13  C   UNL     1      66.218   7.826   6.497  1.00  0.00     0.209 C 
HETATM   14  O   UNL     1      66.686   8.909   6.804  1.00  0.00    -0.644 OA
HETATM   15  O   UNL     1      66.413   6.744   7.271  1.00  0.00    -0.644 OA
ENDBRANCH   2  13
TORSDOF 2
ENDMDL
MODEL 5
REMARK VINA RESULT:      -5.3      1.479      2.053
REMARK  2 active torsions:
REMARK  status: ('A' for Active; 'I' for Inactive)
REMARK    1  A    between atoms: N_1  and  C_3 
REMARK    2  A    between atoms: C_2  and  C_4 
ROOT
HETATM    1  C   UNL     1      63.676   7.772   4.728  1.00  0.00     0.031 A 
HETATM    2  C   UNL     1      62.300   9.639   3.930  1.00  0.00     0.043 A 
HETATM    3  C   UNL     1      63.464   9.148   4.544  1.00  0.00     0.047 A 
HETATM    4  C   UNL     1      62.662   6.908   4.285  1.00  0.00     0.029 A 
HETATM    5  C   UNL     1      61.311   8.750   3.501  1.00  0.00     0.018 A 
HETATM    6  C   UNL     1      61.493   7.383   3.682  1.00  0.00     0.003 A 
ENDROOT
BRANCH   1   7
HETATM    7  N   UNL     1      64.838   7.289   5.302  1.00  0.00    -0.381 N 
HETATM    8  C   UNL     1      65.054   5.860   5.536  1.00  0.00     0.123 C 
HETATM    9  C   UNL     1      66.350   5.434   4.844  1.00  0.00     0.020 C 
HETATM   10  C   UNL     1      67.530   6.311   5.260  1.00  0.00     0.003 C 
HETATM   11  C   UNL     1      67.215   7.797   5.080  1.00  0.00     0.020 C 
HETATM   12  C   UNL     1      65.905   8.174   5.767  1.00  0.00     0.123 C 
ENDBRANCH   1   7
BRANCH   2  13
HETATM   13  C   UNL     1      62.086  11.085   3.690  1.00  0.00     0.209 C 
HETATM   14  O   UNL     1      61.935  11.612   2.601  1.00  0.00    -0.644 OA
HETATM   15  O   UNL     1      62.085  11.817   4.819  1.00  0.00    -0.644 OA
ENDBRANCH   2  13
TORSDOF 2
ENDMDL
MODEL 6
REMARK VINA RESULT:      -5.1      2.184      3.206
REMARK  2 active torsions:
REMARK  status: ('A' for Active; 'I' for Inactive)
REMARK    1  A    between atoms: N_1  and  C_3 
REMARK    2  A    between atoms: C_2  and  C_4 
ROOT
HETATM    1  C   UNL     1      63.934   8.405   4.387  1.00  0.00     0.031 A 
HETATM    2  C   UNL     1      62.272   9.058   2.706  1.00  0.00     0.043 A 
HETATM    3  C   UNL     1      63.278   8.193   3.163  1.00  0.00     0.047 A 
HETATM    4  C   UNL     1      63.548   9.536   5.125  1.00  0.00     0.029 A 
HETATM    5  C   UNL     1      61.915  10.174   3.467  1.00  0.00     0.018 A 
HETATM    6  C   UNL     1      62.557  10.412   4.677  1.00  0.00     0.003 A 
ENDROOT
BRANCH   1   7
HETATM    7  N   UNL     1      64.900   7.532   4.852  1.00  0.00    -0.381 N 
HETATM    8  C   UNL     1      65.446   6.460   4.017  1.00  0.00     0.123 C 
HETATM    9  C   UNL     1      66.968   6.605   3.955  1.00  0.00     0.020 C 
HETATM   10  C   UNL     1      67.588   6.677   5.350  1.00  0.00     0.003 C 
HETATM   11  C   UNL     1      66.918   7.750   6.207  1.00  0.00     0.020 C 
HETATM   12  C   UNL     1      65.400   7.581   6.225  1.00  0.00     0.123 C 
ENDBRANCH   1   7
BRANCH   2  13
HETATM   13  C   UNL     1      61.542   8.819   1.439  1.00  0.00     0.209 C 
HETATM   14  O   UNL     1      60.370   8.501   1.341  1.00  0.00    -0.644 OA
HETATM   15  O   UNL     1      62.312   8.971   0.345  1.00  0.00    -0.644 OA
ENDBRANCH   2  13
TORSDOF 2
ENDMDL
MODEL 7
REMARK VINA RESULT:      -5.0      4.666      5.507
REMARK  2 active torsions:
REMARK  status: ('A' for Active; 'I' for Inactive)
REMARK    1  A    between atoms: N_1  and  C_3 
REMARK    2  A    between atoms: C_2  and  C_4 
ROOT
HETATM    1  C   UNL     1      60.978   7.476   2.837  1.00  0.00     0.031 A 
HETATM    2  C   UNL     1      61.703   9.792   2.482  1.00  0.00     0.043 A 
HETATM    3  C   UNL     1      61.085   8.808   3.270  1.00  0.00     0.047 A 
HETATM    4  C   UNL     1      61.502   7.178   1.569  1.00  0.00     0.029 A 
HETATM    5  C   UNL     1      62.213   9.459   1.225  1.00  0.00     0.018 A 
HETATM    6  C   UNL     1      62.110   8.149   0.769  1.00  0.00     0.003 A 
ENDROOT
BRANCH   1   7
HETATM    7  N   UNL     1      60.400   6.502   3.629  1.00  0.00    -0.381 N 
HETATM    8  C   UNL     1      61.161   5.775   4.647  1.00  0.00     0.123 C 
HETATM    9  C   UNL     1      60.464   5.938   5.999  1.00  0.00     0.020 C 
HETATM   10  C   UNL     1      58.990   5.539   5.930  1.00  0.00     0.003 C 
HETATM   11  C   UNL     1      58.267   6.259   4.791  1.00  0.00     0.020 C 
HETATM   12  C   UNL     1      59.007   6.088   3.466  1.00  0.00     0.123 C 
ENDBRANCH   1   7
BRANCH   2  13
HETATM   13  C   UNL     1      61.862  11.190   2.948  1.00  0.00     0.209 C 
HETATM   14  O   UNL     1      61.856  11.558   4.110  1.00  0.00    -0.644 OA
HETATM   15  O   UNL     1      62.006  12.072   1.944  1.00  0.00    -0.644 OA
ENDBRANCH   2  13
TORSDOF 2
ENDMDL
MODEL 8
REMARK VINA RESULT:      -4.8      1.923      2.843
REMARK  2 active torsions:
REMARK  status: ('A' for Active; 'I' for Inactive)
REMARK    1  A    between atoms: N_1  and  C_3 
REMARK    2  A    between atoms: C_2  and  C_4 
ROOT
HETATM    1  C   UNL     1      63.437   7.617   3.809  1.00  0.00     0.031 A 
HETATM    2  C   UNL     1      62.714   9.918   4.253  1.00  0.00     0.043 A 
HETATM    3  C   UNL     1      63.346   8.731   4.658  1.00  0.00     0.047 A 
HETATM    4  C   UNL     1      62.851   7.738   2.538  1.00  0.00     0.029 A 
HETATM    5  C   UNL     1      62.142  10.003   2.982  1.00  0.00     0.018 A 
HETATM    6  C   UNL     1      62.209   8.909   2.126  1.00  0.00     0.003 A 
ENDROOT
BRANCH   1   7
HETATM    7  N   UNL     1      64.089   6.462   4.197  1.00  0.00    -0.381 N 
HETATM    8  C   UNL     1      63.413   5.164   4.240  1.00  0.00     0.123 C 
HETATM    9  C   UNL     1      64.187   4.171   3.371  1.00  0.00     0.020 C 
HETATM   10  C   UNL     1      65.664   4.109   3.758  1.00  0.00     0.003 C 
HETATM   11  C   UNL     1      66.296   5.501   3.786  1.00  0.00     0.020 C 
HETATM   12  C   UNL     1      65.481   6.464   4.647  1.00  0.00     0.123 C 
ENDBRANCH   1   7
BRANCH   2  13
HETATM   13  C   UNL     1      62.652  11.115   5.124  1.00  0.00     0.209 C 
HETATM   14  O   UNL     1      63.239  11.256   6.183  1.00  0.00    -0.644 OA
HETATM   15  O   UNL     1      61.846  12.080   4.646  1.00  0.00    -0.644 OA
ENDBRANCH   2  13
TORSDOF 2
ENDMDL
MODEL 9
REMARK VINA RESULT:      -4.8      4.739      6.826
REMARK  2 active torsions:
REMARK  status: ('A' for Active; 'I' for Inactive)
REMARK    1  A    between atoms: N_1  and  C_3 
REMARK    2  A    between atoms: C_2  and  C_4 
ROOT
HETATM    1  C   UNL     1      60.183   8.003   2.553  1.00  0.00     0.031 A 
HETATM    2  C   UNL     1      61.819   9.606   3.431  1.00  0.00     0.043 A 
HETATM    3  C   UNL     1      60.730   8.739   3.617  1.00  0.00     0.047 A 
HETATM    4  C   UNL     1      60.766   8.188   1.289  1.00  0.00     0.029 A 
HETATM    5  C   UNL     1      62.373   9.765   2.159  1.00  0.00     0.018 A 
HETATM    6  C   UNL     1      61.843   9.056   1.087  1.00  0.00     0.003 A 
ENDROOT
BRANCH   1   7
HETATM    7  N   UNL     1      59.134   7.124   2.745  1.00  0.00    -0.381 N 
HETATM    8  C   UNL     1      58.674   6.742   4.081  1.00  0.00     0.123 C 
HETATM    9  C   UNL     1      57.181   7.055   4.201  1.00  0.00     0.020 C 
HETATM   10  C   UNL     1      56.375   6.422   3.067  1.00  0.00     0.003 C 
HETATM   11  C   UNL     1      56.955   6.781   1.699  1.00  0.00     0.020 C 
HETATM   12  C   UNL     1      58.449   6.471   1.630  1.00  0.00     0.123 C 
ENDBRANCH   1   7
BRANCH   2  13
HETATM   13  C   UNL     1      62.432  10.353   4.555  1.00  0.00     0.209 C 
HETATM   14  O   UNL     1      63.144   9.878   5.422  1.00  0.00    -0.644 OA
HETATM   15  O   UNL     1      62.116  11.661   4.559  1.00  0.00    -0.644 OA
ENDBRANCH   2  13
TORSDOF 2
ENDMDL
