MODEL 1
REMARK VINA RESULT:      -4.9      0.000      0.000
REMARK  1 active torsions:
REMARK  status: ('A' for Active; 'I' for Inactive)
REMARK    1  A    between atoms: C_1  and  C_5 
ROOT
HETATM    1  N   UNL     1      65.976   5.226   8.092  1.00  0.00    -0.191 NA
HETATM    2  C   UNL     1      65.421   5.963   7.387  1.00  0.00     0.099 C 
HETATM    3  C   UNL     1      63.405   8.552   4.684  1.00  0.00    -0.002 A 
HETATM    4  C   UNL     1      64.793   8.644   4.869  1.00  0.00     0.016 A 
HETATM    5  C   UNL     1      62.690   7.626   5.459  1.00  0.00     0.016 A 
HETATM    6  C   UNL     1      64.737   6.861   6.506  1.00  0.00     0.044 A 
HETATM    7  C   UNL     1      63.349   6.784   6.361  1.00  0.00     0.023 A 
HETATM    8  C   UNL     1      65.456   7.804   5.770  1.00  0.00     0.023 A 
ENDROOT
BRANCH   3   9
HETATM    9  C   UNL     1      62.720   9.365   3.682  1.00  0.00     0.085 A 
HETATM   10  O   UNL     1      62.336  10.617   4.076  1.00  0.00    -0.322 OA
HETATM   11  C   UNL     1      61.773  11.227   3.002  1.00  0.00     0.142 A 
HETATM   12  C   UNL     1      61.778  10.386   1.916  1.00  0.00     0.027 A 
HETATM   13  C   UNL     1      62.384   9.183   2.353  1.00  0.00     0.040 A 
ENDBRANCH   3   9
TORSDOF 1
ENDMDL
MODEL 2
REMARK VINA RESULT:      -4.9      3.341      5.683
REMARK  1 active torsions:
REMARK  status: ('A' for Active; 'I' for Inactive)
REMARK    1  A    between atoms: C_1  and  C_5 
ROOT
HETATM    1  N   UNL     1      61.371  12.359   1.744  1.00  0.00    -0.191 NA
HETATM    2  C   UNL     1      61.756  11.484   2.403  1.00  0.00     0.099 C 
HETATM    3  C   UNL     1      63.319   8.328   4.785  1.00  0.00    -0.002 A 
HETATM    4  C   UNL     1      63.036   8.131   3.425  1.00  0.00     0.016 A 
HETATM    5  C   UNL     1      63.017   9.575   5.354  1.00  0.00     0.016 A 
HETATM    6  C   UNL     1      62.246  10.410   3.214  1.00  0.00     0.044 A 
HETATM    7  C   UNL     1      62.487  10.610   4.576  1.00  0.00     0.023 A 
HETATM    8  C   UNL     1      62.505   9.163   2.643  1.00  0.00     0.023 A 
ENDROOT
BRANCH   3   9
HETATM    9  C   UNL     1      63.954   7.284   5.585  1.00  0.00     0.085 A 
HETATM   10  O   UNL     1      64.854   7.703   6.525  1.00  0.00    -0.322 OA
HETATM   11  C   UNL     1      65.288   6.604   7.193  1.00  0.00     0.142 A 
HETATM   12  C   UNL     1      64.687   5.473   6.695  1.00  0.00     0.027 A 
HETATM   13  C   UNL     1      63.830   5.909   5.655  1.00  0.00     0.040 A 
ENDBRANCH   3   9
TORSDOF 1
ENDMDL
MODEL 3
REMARK VINA RESULT:      -4.7      2.367      3.021
REMARK  1 active torsions:
REMARK  status: ('A' for Active; 'I' for Inactive)
REMARK    1  A    between atoms: C_1  and  C_5 
ROOT
HETATM    1  N   UNL     1      66.557   8.601   6.498  1.00  0.00    -0.191 NA
HETATM    2  C   UNL     1      65.641   8.477   5.795  1.00  0.00     0.099 C 
HETATM    3  C   UNL     1      62.369   8.108   3.106  1.00  0.00    -0.002 A 
HETATM    4  C   UNL     1      62.422   9.157   4.036  1.00  0.00     0.016 A 
HETATM    5  C   UNL     1      63.393   7.148   3.127  1.00  0.00     0.016 A 
HETATM    6  C   UNL     1      64.520   8.330   4.916  1.00  0.00     0.044 A 
HETATM    7  C   UNL     1      64.462   7.258   4.022  1.00  0.00     0.023 A 
HETATM    8  C   UNL     1      63.489   9.271   4.933  1.00  0.00     0.023 A 
ENDROOT
BRANCH   3   9
HETATM    9  C   UNL     1      61.304   8.032   2.109  1.00  0.00     0.085 A 
HETATM   10  O   UNL     1      60.104   7.538   2.541  1.00  0.00    -0.322 OA
HETATM   11  C   UNL     1      59.239   7.599   1.496  1.00  0.00     0.142 A 
HETATM   12  C   UNL     1      59.862   8.119   0.388  1.00  0.00     0.027 A 
HETATM   13  C   UNL     1      61.195   8.395   0.780  1.00  0.00     0.040 A 
ENDBRANCH   3   9
TORSDOF 1
ENDMDL
MODEL 4
REMARK VINA RESULT:      -4.7      3.265      5.622
REMARK  1 active torsions:
REMARK  status: ('A' for Active; 'I' for Inactive)
REMARK    1  A    between atoms: C_1  and  C_5 
ROOT
HETATM    1  N   UNL     1      60.986   8.813   1.064  1.00  0.00    -0.191 NA
HETATM    2  C   UNL     1      61.782   8.624   1.888  1.00  0.00     0.099 C 
HETATM    3  C   UNL     1      64.586   7.840   4.986  1.00  0.00    -0.002 A 
HETATM    4  C   UNL     1      63.764   8.977   5.029  1.00  0.00     0.016 A 
HETATM    5  C   UNL     1      64.502   7.001   3.864  1.00  0.00     0.016 A 
HETATM    6  C   UNL     1      62.754   8.381   2.912  1.00  0.00     0.044 A 
HETATM    7  C   UNL     1      63.592   7.266   2.836  1.00  0.00     0.023 A 
HETATM    8  C   UNL     1      62.852   9.246   4.003  1.00  0.00     0.023 A 
ENDROOT
BRANCH   3   9
HETATM    9  C   UNL     1      65.476   7.507   6.095  1.00  0.00     0.085 A 
HETATM   10  O   UNL     1      64.896   6.910   7.180  1.00  0.00    -0.322 OA
HETATM   11  C   UNL     1      65.883   6.632   8.069  1.00  0.00     0.142 A 
HETATM   12  C   UNL     1      67.098   7.048   7.580  1.00  0.00     0.027 A 
HETATM   13  C   UNL     1      66.837   7.616   6.310  1.00  0.00     0.040 A 
ENDBRANCH   3   9
TORSDOF 1
ENDMDL
MODEL 5
REMARK VINA RESULT:      -4.6      3.315      5.672
REMARK  1 active torsions:
REMARK  status: ('A' for Active; 'I' for Inactive)
REMARK    1  A    between atoms: C_1  and  C_5 
ROOT
HETATM    1  N   UNL     1      61.145   9.165   1.212  1.00  0.00    -0.191 NA
HETATM    2  C   UNL     1      61.896   8.807   2.022  1.00  0.00     0.099 C 
HETATM    3  C   UNL     1      64.764   7.578   4.908  1.00  0.00    -0.002 A 
HETATM    4  C   UNL     1      64.469   6.772   3.798  1.00  0.00     0.016 A 
HETATM    5  C   UNL     1      64.045   8.771   5.075  1.00  0.00     0.016 A 
HETATM    6  C   UNL     1      62.833   8.375   3.015  1.00  0.00     0.044 A 
HETATM    7  C   UNL     1      63.089   9.170   4.135  1.00  0.00     0.023 A 
HETATM    8  C   UNL     1      63.514   7.166   2.856  1.00  0.00     0.023 A 
ENDROOT
BRANCH   3   9
HETATM    9  C   UNL     1      65.822   7.214   5.848  1.00  0.00     0.085 A 
HETATM   10  O   UNL     1      65.501   7.275   7.176  1.00  0.00    -0.322 OA
HETATM   11  C   UNL     1      66.584   6.852   7.877  1.00  0.00     0.142 A 
HETATM   12  C   UNL     1      67.608   6.524   7.023  1.00  0.00     0.027 A 
HETATM   13  C   UNL     1      67.121   6.760   5.715  1.00  0.00     0.040 A 
ENDBRANCH   3   9
TORSDOF 1
ENDMDL
MODEL 6
REMARK VINA RESULT:      -4.4      3.174      6.155
REMARK  1 active torsions:
REMARK  status: ('A' for Active; 'I' for Inactive)
REMARK    1  A    between atoms: C_1  and  C_5 
ROOT
HETATM    1  N   UNL     1      61.843   9.801   3.445  1.00  0.00    -0.191 NA
HETATM    2  C   UNL     1      62.551   9.221   4.159  1.00  0.00     0.099 C 
HETATM    3  C   UNL     1      65.178   6.992   6.650  1.00  0.00    -0.002 A 
HETATM    4  C   UNL     1      63.806   6.702   6.609  1.00  0.00     0.016 A 
HETATM    5  C   UNL     1      65.652   8.075   5.894  1.00  0.00     0.016 A 
HETATM    6  C   UNL     1      63.429   8.495   5.028  1.00  0.00     0.044 A 
HETATM    7  C   UNL     1      64.787   8.820   5.087  1.00  0.00     0.023 A 
HETATM    8  C   UNL     1      62.936   7.445   5.803  1.00  0.00     0.023 A 
ENDROOT
BRANCH   3   9
HETATM    9  C   UNL     1      66.103   6.165   7.421  1.00  0.00     0.085 A 
HETATM   10  O   UNL     1      66.976   6.832   8.236  1.00  0.00    -0.322 OA
HETATM   11  C   UNL     1      67.705   5.900   8.901  1.00  0.00     0.142 A 
HETATM   12  C   UNL     1      67.324   4.635   8.524  1.00  0.00     0.027 A 
HETATM   13  C   UNL     1      66.295   4.804   7.566  1.00  0.00     0.040 A 
ENDBRANCH   3   9
TORSDOF 1
ENDMDL
MODEL 7
REMARK VINA RESULT:      -4.4      3.614      5.698
REMARK  1 active torsions:
REMARK  status: ('A' for Active; 'I' for Inactive)
REMARK    1  A    between atoms: C_1  and  C_5 
ROOT
HETATM    1  N   UNL     1      61.675  11.020   3.948  1.00  0.00    -0.191 NA
HETATM    2  C   UNL     1      62.444  10.155   4.035  1.00  0.00     0.099 C 
HETATM    3  C   UNL     1      65.157   6.909   4.456  1.00  0.00    -0.002 A 
HETATM    4  C   UNL     1      65.241   8.031   5.295  1.00  0.00     0.016 A 
HETATM    5  C   UNL     1      64.194   6.912   3.435  1.00  0.00     0.016 A 
HETATM    6  C   UNL     1      63.383   9.079   4.152  1.00  0.00     0.044 A 
HETATM    7  C   UNL     1      63.311   7.986   3.285  1.00  0.00     0.023 A 
HETATM    8  C   UNL     1      64.361   9.108   5.147  1.00  0.00     0.023 A 
ENDROOT
BRANCH   3   9
HETATM    9  C   UNL     1      66.016   5.745   4.661  1.00  0.00     0.085 A 
HETATM   10  O   UNL     1      66.033   5.219   5.923  1.00  0.00    -0.322 OA
HETATM   11  C   UNL     1      66.836   4.125   5.898  1.00  0.00     0.142 A 
HETATM   12  C   UNL     1      67.348   3.936   4.637  1.00  0.00     0.027 A 
HETATM   13  C   UNL     1      66.824   4.982   3.839  1.00  0.00     0.040 A 
ENDBRANCH   3   9
TORSDOF 1
ENDMDL
MODEL 8
REMARK VINA RESULT:      -4.3      3.278      4.019
REMARK  1 active torsions:
REMARK  status: ('A' for Active; 'I' for Inactive)
REMARK    1  A    between atoms: C_1  and  C_5 
ROOT
HETATM    1  N   UNL     1      65.738   8.894   5.811  1.00  0.00    -0.191 NA
HETATM    2  C   UNL     1      64.707   8.644   5.339  1.00  0.00     0.099 C 
HETATM    3  C   UNL     1      60.859   7.818   3.731  1.00  0.00    -0.002 A 
HETATM    4  C   UNL     1      61.461   6.940   4.645  1.00  0.00     0.016 A 
HETATM    5  C   UNL     1      61.585   8.945   3.314  1.00  0.00     0.016 A 
HETATM    6  C   UNL     1      63.428   8.346   4.767  1.00  0.00     0.044 A 
HETATM    7  C   UNL     1      62.858   9.210   3.829  1.00  0.00     0.023 A 
HETATM    8  C   UNL     1      62.734   7.201   5.163  1.00  0.00     0.023 A 
ENDROOT
BRANCH   3   9
HETATM    9  C   UNL     1      59.496   7.597   3.254  1.00  0.00     0.085 A 
HETATM   10  O   UNL     1      59.336   7.498   1.900  1.00  0.00    -0.322 OA
HETATM   11  C   UNL     1      58.025   7.241   1.662  1.00  0.00     0.142 A 
HETATM   12  C   UNL     1      57.327   7.180   2.843  1.00  0.00     0.027 A 
HETATM   13  C   UNL     1      58.273   7.413   3.871  1.00  0.00     0.040 A 
ENDBRANCH   3   9
TORSDOF 1
ENDMDL
MODEL 9
REMARK VINA RESULT:      -4.2      2.889      3.394
REMARK  1 active torsions:
REMARK  status: ('A' for Active; 'I' for Inactive)
REMARK    1  A    between atoms: C_1  and  C_5 
ROOT
HETATM    1  N   UNL     1      67.866   3.209   3.256  1.00  0.00    -0.191 NA
HETATM    2  C   UNL     1      67.232   4.169   3.418  1.00  0.00     0.099 C 
HETATM    3  C   UNL     1      64.840   7.608   4.141  1.00  0.00    -0.002 A 
HETATM    4  C   UNL     1      64.417   6.612   3.247  1.00  0.00     0.016 A 
HETATM    5  C   UNL     1      66.101   7.470   4.743  1.00  0.00     0.016 A 
HETATM    6  C   UNL     1      66.445   5.346   3.632  1.00  0.00     0.044 A 
HETATM    7  C   UNL     1      66.896   6.347   4.494  1.00  0.00     0.023 A 
HETATM    8  C   UNL     1      65.210   5.487   2.995  1.00  0.00     0.023 A 
ENDROOT
BRANCH   3   9
HETATM    9  C   UNL     1      63.979   8.740   4.475  1.00  0.00     0.085 A 
HETATM   10  O   UNL     1      64.423   9.566   5.470  1.00  0.00    -0.322 OA
HETATM   11  C   UNL     1      63.524  10.575   5.594  1.00  0.00     0.142 A 
HETATM   12  C   UNL     1      62.496  10.413   4.697  1.00  0.00     0.027 A 
HETATM   13  C   UNL     1      62.786   9.228   3.977  1.00  0.00     0.040 A 
ENDBRANCH   3   9
TORSDOF 1
ENDMDL
