MODEL 1
REMARK VINA RESULT:      -5.2      0.000      0.000
REMARK  2 active torsions:
REMARK  status: ('A' for Active; 'I' for Inactive)
REMARK    1  A    between atoms: C_1  and  C_3 
REMARK    2  A    between atoms: C_9  and  N_10 
ROOT
HETATM    1  C   UNL     1      63.735   8.870   4.848  1.00  0.00    -0.002 A 
HETATM    2  C   UNL     1      63.340   8.380   3.597  1.00  0.00     0.016 A 
HETATM    3  C   UNL     1      63.238  10.118   5.249  1.00  0.00     0.016 A 
HETATM    4  C   UNL     1      61.971  10.346   3.186  1.00  0.00     0.025 A 
HETATM    5  C   UNL     1      62.487   9.119   2.766  1.00  0.00     0.030 A 
HETATM    6  C   UNL     1      62.385  10.854   4.417  1.00  0.00     0.030 A 
ENDROOT
BRANCH   1   7
HETATM    7  C   UNL     1      64.676   8.135   5.690  1.00  0.00     0.085 A 
HETATM    8  O   UNL     1      65.847   8.775   5.995  1.00  0.00    -0.322 OA
HETATM    9  C   UNL     1      66.557   7.958   6.814  1.00  0.00     0.142 A 
HETATM   10  C   UNL     1      65.869   6.792   7.042  1.00  0.00     0.027 A 
HETATM   11  C   UNL     1      64.659   6.901   6.313  1.00  0.00     0.040 A 
ENDBRANCH   1   7
BRANCH   4  12
HETATM   12  N   UNL     1      61.256  11.151   2.294  1.00  0.00    -0.399 N 
HETATM   13  H   UNL     1      61.718  11.582   1.539  1.00  0.00     0.156 HD
HETATM   14  H   UNL     1      60.289  11.288   2.421  1.00  0.00     0.156 HD
ENDBRANCH   4  12
TORSDOF 2
ENDMDL
MODEL 2
REMARK VINA RESULT:      -4.9      3.020      5.154
REMARK  2 active torsions:
REMARK  status: ('A' for Active; 'I' for Inactive)
REMARK    1  A    between atoms: C_1  and  C_3 
REMARK    2  A    between atoms: C_9  and  N_10 
ROOT
HETATM    1  C   UNL     1      61.944   9.185   3.204  1.00  0.00    -0.002 A 
HETATM    2  C   UNL     1      61.697  10.553   3.372  1.00  0.00     0.016 A 
HETATM    3  C   UNL     1      62.819   8.562   4.103  1.00  0.00     0.016 A 
HETATM    4  C   UNL     1      63.165  10.646   5.307  1.00  0.00     0.025 A 
HETATM    5  C   UNL     1      62.319  11.279   4.397  1.00  0.00     0.030 A 
HETATM    6  C   UNL     1      63.439   9.290   5.127  1.00  0.00     0.030 A 
ENDROOT
BRANCH   1   7
HETATM    7  C   UNL     1      61.351   8.436   2.098  1.00  0.00     0.085 A 
HETATM    8  O   UNL     1      60.514   7.408   2.439  1.00  0.00    -0.322 OA
HETATM    9  C   UNL     1      60.035   6.873   1.288  1.00  0.00     0.142 A 
HETATM   10  C   UNL     1      60.553   7.531   0.200  1.00  0.00     0.027 A 
HETATM   11  C   UNL     1      61.407   8.534   0.721  1.00  0.00     0.040 A 
ENDBRANCH   1   7
BRANCH   4  12
HETATM   12  N   UNL     1      63.906  11.400   6.222  1.00  0.00    -0.399 N 
HETATM   13  H   UNL     1      63.455  12.059   6.798  1.00  0.00     0.156 HD
HETATM   14  H   UNL     1      64.880  11.272   6.291  1.00  0.00     0.156 HD
ENDBRANCH   4  12
TORSDOF 2
ENDMDL
MODEL 3
REMARK VINA RESULT:      -4.6      1.170      1.361
REMARK  2 active torsions:
REMARK  status: ('A' for Active; 'I' for Inactive)
REMARK    1  A    between atoms: C_1  and  C_3 
REMARK    2  A    between atoms: C_9  and  N_10 
ROOT
HETATM    1  C   UNL     1      64.342   8.241   4.596  1.00  0.00    -0.002 A 
HETATM    2  C   UNL     1      63.873   7.558   3.467  1.00  0.00     0.016 A 
HETATM    3  C   UNL     1      63.642   9.383   5.009  1.00  0.00     0.016 A 
HETATM    4  C   UNL     1      62.038   9.130   3.199  1.00  0.00     0.025 A 
HETATM    5  C   UNL     1      62.749   8.011   2.764  1.00  0.00     0.030 A 
HETATM    6  C   UNL     1      62.519   9.833   4.305  1.00  0.00     0.030 A 
ENDROOT
BRANCH   1   7
HETATM    7  C   UNL     1      65.552   7.814   5.296  1.00  0.00     0.085 A 
HETATM    8  O   UNL     1      65.495   7.810   6.663  1.00  0.00    -0.322 OA
HETATM    9  C   UNL     1      66.685   7.344   7.120  1.00  0.00     0.142 A 
HETATM   10  C   UNL     1      67.520   7.050   6.071  1.00  0.00     0.027 A 
HETATM   11  C   UNL     1      66.794   7.359   4.894  1.00  0.00     0.040 A 
ENDBRANCH   1   7
BRANCH   4  12
HETATM   12  N   UNL     1      61.021   9.670   2.406  1.00  0.00    -0.399 N 
HETATM   13  H   UNL     1      60.954  10.645   2.287  1.00  0.00     0.156 HD
HETATM   14  H   UNL     1      60.371   9.075   1.967  1.00  0.00     0.156 HD
ENDBRANCH   4  12
TORSDOF 2
ENDMDL
MODEL 4
REMARK VINA RESULT:      -4.6      1.349      2.064
REMARK  2 active torsions:
REMARK  status: ('A' for Active; 'I' for Inactive)
REMARK    1  A    between atoms: C_1  and  C_3 
REMARK    2  A    between atoms: C_9  and  N_10 
ROOT
HETATM    1  C   UNL     1      64.205   8.277   4.377  1.00  0.00    -0.002 A 
HETATM    2  C   UNL     1      63.399   9.373   4.711  1.00  0.00     0.016 A 
HETATM    3  C   UNL     1      63.725   7.380   3.414  1.00  0.00     0.016 A 
HETATM    4  C   UNL     1      61.688   8.677   3.132  1.00  0.00     0.025 A 
HETATM    5  C   UNL     1      62.146   9.557   4.113  1.00  0.00     0.030 A 
HETATM    6  C   UNL     1      62.472   7.567   2.817  1.00  0.00     0.030 A 
ENDROOT
BRANCH   1   7
HETATM    7  C   UNL     1      65.484   8.042   5.045  1.00  0.00     0.085 A 
HETATM    8  O   UNL     1      65.683   8.701   6.228  1.00  0.00    -0.322 OA
HETATM    9  C   UNL     1      66.893   8.320   6.709  1.00  0.00     0.142 A 
HETATM   10  C   UNL     1      67.491   7.427   5.854  1.00  0.00     0.027 A 
HETATM   11  C   UNL     1      66.586   7.252   4.777  1.00  0.00     0.040 A 
ENDBRANCH   1   7
BRANCH   4  12
HETATM   12  N   UNL     1      60.376   8.771   2.658  1.00  0.00    -0.399 N 
HETATM   13  H   UNL     1      60.132   9.478   2.017  1.00  0.00     0.156 HD
HETATM   14  H   UNL     1      59.694   8.131   2.966  1.00  0.00     0.156 HD
ENDBRANCH   4  12
TORSDOF 2
ENDMDL
MODEL 5
REMARK VINA RESULT:      -4.3      3.038      5.226
REMARK  2 active torsions:
REMARK  status: ('A' for Active; 'I' for Inactive)
REMARK    1  A    between atoms: C_1  and  C_3 
REMARK    2  A    between atoms: C_9  and  N_10 
ROOT
HETATM    1  C   UNL     1      64.657   7.956   5.357  1.00  0.00    -0.002 A 
HETATM    2  C   UNL     1      64.337   7.034   6.361  1.00  0.00     0.016 A 
HETATM    3  C   UNL     1      65.988   8.385   5.262  1.00  0.00     0.016 A 
HETATM    4  C   UNL     1      66.641   6.974   7.131  1.00  0.00     0.025 A 
HETATM    5  C   UNL     1      65.312   6.568   7.252  1.00  0.00     0.030 A 
HETATM    6  C   UNL     1      66.961   7.916   6.152  1.00  0.00     0.030 A 
ENDROOT
BRANCH   1   7
HETATM    7  C   UNL     1      63.633   8.498   4.466  1.00  0.00     0.085 A 
HETATM    8  O   UNL     1      63.031   9.661   4.867  1.00  0.00    -0.322 OA
HETATM    9  C   UNL     1      62.155  10.022   3.897  1.00  0.00     0.142 A 
HETATM   10  C   UNL     1      62.170   9.110   2.871  1.00  0.00     0.027 A 
HETATM   11  C   UNL     1      63.117   8.122   3.240  1.00  0.00     0.040 A 
ENDBRANCH   1   7
BRANCH   4  12
HETATM   12  N   UNL     1      67.574   6.635   8.116  1.00  0.00    -0.399 N 
HETATM   13  H   UNL     1      67.291   6.553   9.055  1.00  0.00     0.156 HD
HETATM   14  H   UNL     1      68.515   6.479   7.870  1.00  0.00     0.156 HD
ENDBRANCH   4  12
TORSDOF 2
ENDMDL
MODEL 6
REMARK VINA RESULT:      -4.2      3.183      5.309
REMARK  2 active torsions:
REMARK  status: ('A' for Active; 'I' for Inactive)
REMARK    1  A    between atoms: C_1  and  C_3 
REMARK    2  A    between atoms: C_9  and  N_10 
ROOT
HETATM    1  C   UNL     1      62.697   8.229   3.201  1.00  0.00    -0.002 A 
HETATM    2  C   UNL     1      63.713   7.267   3.267  1.00  0.00     0.016 A 
HETATM    3  C   UNL     1      62.733   9.285   4.121  1.00  0.00     0.016 A 
HETATM    4  C   UNL     1      64.773   8.422   5.124  1.00  0.00     0.025 A 
HETATM    5  C   UNL     1      64.725   7.350   4.232  1.00  0.00     0.030 A 
HETATM    6  C   UNL     1      63.746   9.366   5.084  1.00  0.00     0.030 A 
ENDROOT
BRANCH   1   7
HETATM    7  C   UNL     1      61.601   8.113   2.240  1.00  0.00     0.085 A 
HETATM    8  O   UNL     1      60.566   7.289   2.594  1.00  0.00    -0.322 OA
HETATM    9  C   UNL     1      59.639   7.352   1.605  1.00  0.00     0.142 A 
HETATM   10  C   UNL     1      60.056   8.198   0.608  1.00  0.00     0.027 A 
HETATM   11  C   UNL     1      61.324   8.684   1.012  1.00  0.00     0.040 A 
ENDBRANCH   1   7
BRANCH   4  12
HETATM   12  N   UNL     1      65.685   8.415   6.184  1.00  0.00    -0.399 N 
HETATM   13  H   UNL     1      66.523   8.928   6.118  1.00  0.00     0.156 HD
HETATM   14  H   UNL     1      65.489   7.897   6.998  1.00  0.00     0.156 HD
ENDBRANCH   4  12
TORSDOF 2
ENDMDL
MODEL 7
REMARK VINA RESULT:      -4.1      5.276      6.825
REMARK  2 active torsions:
REMARK  status: ('A' for Active; 'I' for Inactive)
REMARK    1  A    between atoms: C_1  and  C_3 
REMARK    2  A    between atoms: C_9  and  N_10 
ROOT
HETATM    1  C   UNL     1      67.358   4.474   7.866  1.00  0.00    -0.002 A 
HETATM    2  C   UNL     1      67.610   4.979   6.584  1.00  0.00     0.016 A 
HETATM    3  C   UNL     1      66.871   5.362   8.835  1.00  0.00     0.016 A 
HETATM    4  C   UNL     1      66.882   7.201   7.245  1.00  0.00     0.025 A 
HETATM    5  C   UNL     1      67.397   6.331   6.284  1.00  0.00     0.030 A 
HETATM    6  C   UNL     1      66.658   6.712   8.532  1.00  0.00     0.030 A 
ENDROOT
BRANCH   1   7
HETATM    7  C   UNL     1      67.641   3.081   8.205  1.00  0.00     0.085 A 
HETATM    8  O   UNL     1      67.496   2.733   9.521  1.00  0.00    -0.322 OA
HETATM    9  C   UNL     1      67.755   1.405   9.623  1.00  0.00     0.142 A 
HETATM   10  C   UNL     1      68.075   0.882   8.394  1.00  0.00     0.027 A 
HETATM   11  C   UNL     1      68.009   1.963   7.480  1.00  0.00     0.040 A 
ENDBRANCH   1   7
BRANCH   4  12
HETATM   12  N   UNL     1      66.824   8.575   6.992  1.00  0.00    -0.399 N 
HETATM   13  H   UNL     1      67.652   9.080   6.817  1.00  0.00     0.156 HD
HETATM   14  H   UNL     1      65.956   9.039   6.989  1.00  0.00     0.156 HD
ENDBRANCH   4  12
TORSDOF 2
ENDMDL
MODEL 8
REMARK VINA RESULT:      -4.0      3.147      5.157
REMARK  2 active torsions:
REMARK  status: ('A' for Active; 'I' for Inactive)
REMARK    1  A    between atoms: C_1  and  C_3 
REMARK    2  A    between atoms: C_9  and  N_10 
ROOT
HETATM    1  C   UNL     1      63.333   8.135   4.272  1.00  0.00    -0.002 A 
HETATM    2  C   UNL     1      64.458   7.372   3.937  1.00  0.00     0.016 A 
HETATM    3  C   UNL     1      62.758   7.935   5.534  1.00  0.00     0.016 A 
HETATM    4  C   UNL     1      64.424   6.257   6.097  1.00  0.00     0.025 A 
HETATM    5  C   UNL     1      64.983   6.427   4.830  1.00  0.00     0.030 A 
HETATM    6  C   UNL     1      63.285   6.992   6.424  1.00  0.00     0.030 A 
ENDROOT
BRANCH   1   7
HETATM    7  C   UNL     1      62.740   9.073   3.321  1.00  0.00     0.085 A 
HETATM    8  O   UNL     1      62.657   8.652   2.022  1.00  0.00    -0.322 OA
HETATM    9  C   UNL     1      62.043   9.633   1.313  1.00  0.00     0.142 A 
HETATM   10  C   UNL     1      61.731  10.692   2.129  1.00  0.00     0.027 A 
HETATM   11  C   UNL     1      62.186  10.336   3.423  1.00  0.00     0.040 A 
ENDBRANCH   1   7
BRANCH   4  12
HETATM   12  N   UNL     1      64.847   5.206   6.917  1.00  0.00    -0.399 N 
HETATM   13  H   UNL     1      65.646   5.312   7.482  1.00  0.00     0.156 HD
HETATM   14  H   UNL     1      64.344   4.360   6.930  1.00  0.00     0.156 HD
ENDBRANCH   4  12
TORSDOF 2
ENDMDL
MODEL 9
REMARK VINA RESULT:      -3.9      3.331      5.647
REMARK  2 active torsions:
REMARK  status: ('A' for Active; 'I' for Inactive)
REMARK    1  A    between atoms: C_1  and  C_3 
REMARK    2  A    between atoms: C_9  and  N_10 
ROOT
HETATM    1  C   UNL     1      64.931   7.233   6.151  1.00  0.00    -0.002 A 
HETATM    2  C   UNL     1      66.184   7.706   6.562  1.00  0.00     0.016 A 
HETATM    3  C   UNL     1      64.555   5.943   6.549  1.00  0.00     0.016 A 
HETATM    4  C   UNL     1      66.645   5.639   7.754  1.00  0.00     0.025 A 
HETATM    5  C   UNL     1      67.039   6.909   7.334  1.00  0.00     0.030 A 
HETATM    6  C   UNL     1      65.412   5.150   7.322  1.00  0.00     0.030 A 
ENDROOT
BRANCH   1   7
HETATM    7  C   UNL     1      64.061   8.032   5.290  1.00  0.00     0.085 A 
HETATM    8  O   UNL     1      63.579   9.196   5.825  1.00  0.00    -0.322 OA
HETATM    9  C   UNL     1      62.839   9.810   4.867  1.00  0.00     0.142 A 
HETATM   10  C   UNL     1      62.826   9.060   3.717  1.00  0.00     0.027 A 
HETATM   11  C   UNL     1      63.607   7.910   3.990  1.00  0.00     0.040 A 
ENDBRANCH   1   7
BRANCH   4  12
HETATM   12  N   UNL     1      67.561   4.789   8.382  1.00  0.00    -0.399 N 
HETATM   13  H   UNL     1      68.503   4.781   8.097  1.00  0.00     0.156 HD
HETATM   14  H   UNL     1      67.263   4.198   9.111  1.00  0.00     0.156 HD
ENDBRANCH   4  12
TORSDOF 2
ENDMDL
