MODEL 1
REMARK VINA RESULT:      -5.3      0.000      0.000
REMARK  3 active torsions:
REMARK  status: ('A' for Active; 'I' for Inactive)
REMARK    1  A    between atoms: N_1  and  C_2 
REMARK    2  A    between atoms: C_4  and  C_10 
REMARK    3  A    between atoms: N_5  and  C_10 
ROOT
HETATM    1  C   UNL     1      65.170   7.516   4.596  1.00  0.00     0.030 A 
HETATM    2  C   UNL     1      64.351   8.642   4.790  1.00  0.00     0.038 A 
HETATM    3  C   UNL     1      63.206   8.891   4.010  1.00  0.00    -0.031 A 
HETATM    4  C   UNL     1      64.779   6.627   3.583  1.00  0.00     0.029 A 
HETATM    5  C   UNL     1      63.646   6.851   2.794  1.00  0.00     0.003 A 
HETATM    6  C   UNL     1      62.868   7.985   3.001  1.00  0.00     0.009 A 
ENDROOT
BRANCH   1   7
HETATM    7  N   UNL     1      66.310   7.303   5.351  1.00  0.00    -0.381 N 
HETATM    8  C   UNL     1      67.358   6.365   4.944  1.00  0.00     0.123 C 
HETATM    9  C   UNL     1      67.556   5.320   6.040  1.00  0.00     0.020 C 
HETATM   10  C   UNL     1      67.834   5.981   7.389  1.00  0.00     0.003 C 
HETATM   11  C   UNL     1      66.761   7.012   7.733  1.00  0.00     0.020 C 
HETATM   12  C   UNL     1      66.559   8.022   6.602  1.00  0.00     0.123 C 
ENDBRANCH   1   7
BRANCH   3  13
HETATM   13  C   UNL     1      62.382  10.139   4.239  1.00  0.00     0.270 C 
BRANCH  13  14
HETATM   14  N   UNL     1      61.419  10.351   3.157  1.00  0.00    -0.075 N 
HETATM   15  C   UNL     1      61.792  11.494   2.339  1.00  0.00     0.267 C 
HETATM   16  H   UNL     1      60.497  10.517   3.561  1.00  0.00     0.277 HD
HETATM   17  H   UNL     1      61.409   9.521   2.566  1.00  0.00     0.277 HD
ENDBRANCH  13  14
ENDBRANCH   3  13
TORSDOF 3
ENDMDL
MODEL 2
REMARK VINA RESULT:      -5.1      1.291      5.839
REMARK  3 active torsions:
REMARK  status: ('A' for Active; 'I' for Inactive)
REMARK    1  A    between atoms: N_1  and  C_2 
REMARK    2  A    between atoms: C_4  and  C_10 
REMARK    3  A    between atoms: N_5  and  C_10 
ROOT
HETATM    1  C   UNL     1      63.933   8.011   3.872  1.00  0.00     0.030 A 
HETATM    2  C   UNL     1      64.742   8.450   4.935  1.00  0.00     0.038 A 
HETATM    3  C   UNL     1      65.849   7.716   5.400  1.00  0.00    -0.031 A 
HETATM    4  C   UNL     1      64.297   6.795   3.274  1.00  0.00     0.029 A 
HETATM    5  C   UNL     1      65.392   6.046   3.716  1.00  0.00     0.003 A 
HETATM    6  C   UNL     1      66.160   6.502   4.782  1.00  0.00     0.009 A 
ENDROOT
BRANCH   1   7
HETATM    7  N   UNL     1      62.830   8.730   3.448  1.00  0.00    -0.381 N 
HETATM    8  C   UNL     1      62.241   8.555   2.119  1.00  0.00     0.123 C 
HETATM    9  C   UNL     1      62.240   9.895   1.386  1.00  0.00     0.020 C 
HETATM   10  C   UNL     1      61.543  10.975   2.212  1.00  0.00     0.003 C 
HETATM   11  C   UNL     1      62.132  11.064   3.619  1.00  0.00     0.020 C 
HETATM   12  C   UNL     1      62.155   9.701   4.313  1.00  0.00     0.123 C 
ENDBRANCH   1   7
BRANCH   3  13
HETATM   13  C   UNL     1      66.663   8.219   6.572  1.00  0.00     0.270 C 
BRANCH  13  14
HETATM   14  N   UNL     1      67.439   7.142   7.188  1.00  0.00    -0.075 N 
HETATM   15  C   UNL     1      66.890   6.775   8.484  1.00  0.00     0.267 C 
HETATM   16  H   UNL     1      68.402   7.454   7.310  1.00  0.00     0.277 HD
HETATM   17  H   UNL     1      67.399   6.326   6.578  1.00  0.00     0.277 HD
ENDBRANCH  13  14
ENDBRANCH   3  13
TORSDOF 3
ENDMDL
MODEL 3
REMARK VINA RESULT:      -5.1      2.061      3.292
REMARK  3 active torsions:
REMARK  status: ('A' for Active; 'I' for Inactive)
REMARK    1  A    between atoms: N_1  and  C_2 
REMARK    2  A    between atoms: C_4  and  C_10 
REMARK    3  A    between atoms: N_5  and  C_10 
ROOT
HETATM    1  C   UNL     1      63.250   9.074   4.639  1.00  0.00     0.030 A 
HETATM    2  C   UNL     1      62.807   8.745   3.346  1.00  0.00     0.038 A 
HETATM    3  C   UNL     1      62.071   9.638   2.545  1.00  0.00    -0.031 A 
HETATM    4  C   UNL     1      62.935  10.363   5.096  1.00  0.00     0.029 A 
HETATM    5  C   UNL     1      62.206  11.270   4.320  1.00  0.00     0.003 A 
HETATM    6  C   UNL     1      61.769  10.905   3.052  1.00  0.00     0.009 A 
ENDROOT
BRANCH   1   7
HETATM    7  N   UNL     1      63.944   8.171   5.425  1.00  0.00    -0.381 N 
HETATM    8  C   UNL     1      65.406   8.166   5.510  1.00  0.00     0.123 C 
HETATM    9  C   UNL     1      65.933   6.795   5.093  1.00  0.00     0.020 C 
HETATM   10  C   UNL     1      65.281   5.682   5.911  1.00  0.00     0.003 C 
HETATM   11  C   UNL     1      63.757   5.777   5.863  1.00  0.00     0.020 C 
HETATM   12  C   UNL     1      63.262   7.172   6.249  1.00  0.00     0.123 C 
ENDBRANCH   1   7
BRANCH   3  13
HETATM   13  C   UNL     1      61.588   9.217   1.175  1.00  0.00     0.270 C 
BRANCH  13  14
HETATM   14  N   UNL     1      60.183   8.806   1.204  1.00  0.00    -0.075 N 
HETATM   15  C   UNL     1      59.952   7.664   0.334  1.00  0.00     0.267 C 
HETATM   16  H   UNL     1      59.603   9.585   0.894  1.00  0.00     0.277 HD
HETATM   17  H   UNL     1      59.945   8.537   2.159  1.00  0.00     0.277 HD
ENDBRANCH  13  14
ENDBRANCH   3  13
TORSDOF 3
ENDMDL
MODEL 4
REMARK VINA RESULT:      -4.6      2.193      6.267
REMARK  3 active torsions:
REMARK  status: ('A' for Active; 'I' for Inactive)
REMARK    1  A    between atoms: N_1  and  C_2 
REMARK    2  A    between atoms: C_4  and  C_10 
REMARK    3  A    between atoms: N_5  and  C_10 
ROOT
HETATM    1  C   UNL     1      62.524   8.783   2.934  1.00  0.00     0.030 A 
HETATM    2  C   UNL     1      63.542   8.206   3.714  1.00  0.00     0.038 A 
HETATM    3  C   UNL     1      64.024   8.802   4.895  1.00  0.00    -0.031 A 
HETATM    4  C   UNL     1      61.989   9.992   3.404  1.00  0.00     0.029 A 
HETATM    5  C   UNL     1      62.450  10.605   4.575  1.00  0.00     0.003 A 
HETATM    6  C   UNL     1      63.470  10.015   5.312  1.00  0.00     0.009 A 
ENDROOT
BRANCH   1   7
HETATM    7  N   UNL     1      62.084   8.200   1.760  1.00  0.00    -0.381 N 
HETATM    8  C   UNL     1      61.154   8.871   0.850  1.00  0.00     0.123 C 
HETATM    9  C   UNL     1      59.913   8.001   0.661  1.00  0.00     0.020 C 
HETATM   10  C   UNL     1      60.292   6.594   0.200  1.00  0.00     0.003 C 
HETATM   11  C   UNL     1      61.328   5.965   1.130  1.00  0.00     0.020 C 
HETATM   12  C   UNL     1      62.540   6.876   1.330  1.00  0.00     0.123 C 
ENDBRANCH   1   7
BRANCH   3  13
HETATM   13  C   UNL     1      65.148   8.154   5.674  1.00  0.00     0.270 C 
BRANCH  13  14
HETATM   14  N   UNL     1      64.642   7.430   6.842  1.00  0.00    -0.075 N 
HETATM   15  C   UNL     1      65.553   6.366   7.234  1.00  0.00     0.267 C 
HETATM   16  H   UNL     1      63.734   7.026   6.614  1.00  0.00     0.277 HD
HETATM   17  H   UNL     1      64.560   8.087   7.618  1.00  0.00     0.277 HD
ENDBRANCH  13  14
ENDBRANCH   3  13
TORSDOF 3
ENDMDL
MODEL 5
REMARK VINA RESULT:      -4.5      1.078      1.711
REMARK  3 active torsions:
REMARK  status: ('A' for Active; 'I' for Inactive)
REMARK    1  A    between atoms: N_1  and  C_2 
REMARK    2  A    between atoms: C_4  and  C_10 
REMARK    3  A    between atoms: N_5  and  C_10 
ROOT
HETATM    1  C   UNL     1      64.423   6.796   3.752  1.00  0.00     0.030 A 
HETATM    2  C   UNL     1      63.765   7.995   4.077  1.00  0.00     0.038 A 
HETATM    3  C   UNL     1      62.869   8.632   3.198  1.00  0.00    -0.031 A 
HETATM    4  C   UNL     1      64.126   6.242   2.498  1.00  0.00     0.029 A 
HETATM    5  C   UNL     1      63.238   6.854   1.606  1.00  0.00     0.003 A 
HETATM    6  C   UNL     1      62.619   8.049   1.952  1.00  0.00     0.009 A 
ENDROOT
BRANCH   1   7
HETATM    7  N   UNL     1      65.325   6.201   4.616  1.00  0.00    -0.381 N 
HETATM    8  C   UNL     1      64.999   5.908   6.013  1.00  0.00     0.123 C 
HETATM    9  C   UNL     1      66.002   6.611   6.925  1.00  0.00     0.020 C 
HETATM   10  C   UNL     1      67.438   6.241   6.555  1.00  0.00     0.003 C 
HETATM   11  C   UNL     1      67.707   6.483   5.071  1.00  0.00     0.020 C 
HETATM   12  C   UNL     1      66.666   5.798   4.184  1.00  0.00     0.123 C 
ENDBRANCH   1   7
BRANCH   3  13
HETATM   13  C   UNL     1      62.218   9.941   3.586  1.00  0.00     0.270 C 
BRANCH  13  14
HETATM   14  N   UNL     1      61.322  10.427   2.534  1.00  0.00    -0.075 N 
HETATM   15  C   UNL     1      61.743  11.731   2.048  1.00  0.00     0.267 C 
HETATM   16  H   UNL     1      60.377  10.499   2.910  1.00  0.00     0.277 HD
HETATM   17  H   UNL     1      61.350   9.768   1.756  1.00  0.00     0.277 HD
ENDBRANCH  13  14
ENDBRANCH   3  13
TORSDOF 3
ENDMDL
MODEL 6
REMARK VINA RESULT:      -4.4      1.446      2.240
REMARK  3 active torsions:
REMARK  status: ('A' for Active; 'I' for Inactive)
REMARK    1  A    between atoms: N_1  and  C_2 
REMARK    2  A    between atoms: C_4  and  C_10 
REMARK    3  A    between atoms: N_5  and  C_10 
ROOT
HETATM    1  C   UNL     1      64.842   8.097   4.669  1.00  0.00     0.030 A 
HETATM    2  C   UNL     1      64.219   7.435   3.596  1.00  0.00     0.038 A 
HETATM    3  C   UNL     1      62.964   7.822   3.092  1.00  0.00    -0.031 A 
HETATM    4  C   UNL     1      64.151   9.190   5.213  1.00  0.00     0.029 A 
HETATM    5  C   UNL     1      62.902   9.595   4.730  1.00  0.00     0.003 A 
HETATM    6  C   UNL     1      62.307   8.907   3.678  1.00  0.00     0.009 A 
ENDROOT
BRANCH   1   7
HETATM    7  N   UNL     1      66.063   7.683   5.173  1.00  0.00    -0.381 N 
HETATM    8  C   UNL     1      66.959   6.795   4.430  1.00  0.00     0.123 C 
HETATM    9  C   UNL     1      67.236   5.545   5.262  1.00  0.00     0.020 C 
HETATM   10  C   UNL     1      67.769   5.911   6.647  1.00  0.00     0.003 C 
HETATM   11  C   UNL     1      66.847   6.906   7.350  1.00  0.00     0.020 C 
HETATM   12  C   UNL     1      66.557   8.128   6.478  1.00  0.00     0.123 C 
ENDBRANCH   1   7
BRANCH   3  13
HETATM   13  C   UNL     1      62.324   7.049   1.959  1.00  0.00     0.270 C 
BRANCH  13  14
HETATM   14  N   UNL     1      61.982   7.926   0.838  1.00  0.00    -0.075 N 
HETATM   15  C   UNL     1      60.565   7.847   0.523  1.00  0.00     0.267 C 
HETATM   16  H   UNL     1      62.522   7.646   0.020  1.00  0.00     0.277 HD
HETATM   17  H   UNL     1      62.201   8.887   1.101  1.00  0.00     0.277 HD
ENDBRANCH  13  14
ENDBRANCH   3  13
TORSDOF 3
ENDMDL
MODEL 7
REMARK VINA RESULT:      -4.4      3.845      6.947
REMARK  3 active torsions:
REMARK  status: ('A' for Active; 'I' for Inactive)
REMARK    1  A    between atoms: N_1  and  C_2 
REMARK    2  A    between atoms: C_4  and  C_10 
REMARK    3  A    between atoms: N_5  and  C_10 
ROOT
HETATM    1  C   UNL     1      60.148   7.956   2.596  1.00  0.00     0.030 A 
HETATM    2  C   UNL     1      60.815   8.639   3.629  1.00  0.00     0.038 A 
HETATM    3  C   UNL     1      61.906   9.496   3.391  1.00  0.00    -0.031 A 
HETATM    4  C   UNL     1      60.616   8.187   1.294  1.00  0.00     0.029 A 
HETATM    5  C   UNL     1      61.697   9.034   1.030  1.00  0.00     0.003 A 
HETATM    6  C   UNL     1      62.345   9.679   2.077  1.00  0.00     0.009 A 
ENDROOT
BRANCH   1   7
HETATM    7  N   UNL     1      59.098   7.092   2.851  1.00  0.00    -0.381 N 
HETATM    8  C   UNL     1      58.381   6.391   1.784  1.00  0.00     0.123 C 
HETATM    9  C   UNL     1      56.896   6.741   1.856  1.00  0.00     0.020 C 
HETATM   10  C   UNL     1      56.329   6.456   3.246  1.00  0.00     0.003 C 
HETATM   11  C   UNL     1      57.158   7.138   4.334  1.00  0.00     0.020 C 
HETATM   12  C   UNL     1      58.645   6.799   4.213  1.00  0.00     0.123 C 
ENDBRANCH   1   7
BRANCH   3  13
HETATM   13  C   UNL     1      62.609  10.176   4.545  1.00  0.00     0.270 C 
BRANCH  13  14
HETATM   14  N   UNL     1      63.149   9.200   5.494  1.00  0.00    -0.075 N 
HETATM   15  C   UNL     1      64.454   8.721   5.068  1.00  0.00     0.267 C 
HETATM   16  H   UNL     1      62.507   8.410   5.559  1.00  0.00     0.277 HD
HETATM   17  H   UNL     1      63.253   9.655   6.401  1.00  0.00     0.277 HD
ENDBRANCH  13  14
ENDBRANCH   3  13
TORSDOF 3
ENDMDL
MODEL 8
REMARK VINA RESULT:      -4.3      1.960      5.996
REMARK  3 active torsions:
REMARK  status: ('A' for Active; 'I' for Inactive)
REMARK    1  A    between atoms: N_1  and  C_2 
REMARK    2  A    between atoms: C_4  and  C_10 
REMARK    3  A    between atoms: N_5  and  C_10 
ROOT
HETATM    1  C   UNL     1      64.227   7.895   4.029  1.00  0.00     0.030 A 
HETATM    2  C   UNL     1      65.004   6.782   3.661  1.00  0.00     0.038 A 
HETATM    3  C   UNL     1      66.204   6.444   4.313  1.00  0.00    -0.031 A 
HETATM    4  C   UNL     1      64.702   8.656   5.108  1.00  0.00     0.029 A 
HETATM    5  C   UNL     1      65.891   8.341   5.775  1.00  0.00     0.003 A 
HETATM    6  C   UNL     1      66.643   7.243   5.372  1.00  0.00     0.009 A 
ENDROOT
BRANCH   1   7
HETATM    7  N   UNL     1      63.067   8.231   3.355  1.00  0.00    -0.381 N 
HETATM    8  C   UNL     1      62.576   7.467   2.207  1.00  0.00     0.123 C 
HETATM    9  C   UNL     1      62.447   8.394   1.000  1.00  0.00     0.020 C 
HETATM   10  C   UNL     1      61.578   9.607   1.327  1.00  0.00     0.003 C 
HETATM   11  C   UNL     1      62.075  10.324   2.582  1.00  0.00     0.020 C 
HETATM   12  C   UNL     1      62.231   9.363   3.762  1.00  0.00     0.123 C 
ENDBRANCH   1   7
BRANCH   3  13
HETATM   13  C   UNL     1      67.018   5.256   3.849  1.00  0.00     0.270 C 
BRANCH  13  14
HETATM   14  N   UNL     1      66.378   4.574   2.724  1.00  0.00    -0.075 N 
HETATM   15  C   UNL     1      67.365   4.102   1.765  1.00  0.00     0.267 C 
HETATM   16  H   UNL     1      65.744   5.223   2.259  1.00  0.00     0.277 HD
HETATM   17  H   UNL     1      65.866   3.768   3.083  1.00  0.00     0.277 HD
ENDBRANCH  13  14
ENDBRANCH   3  13
TORSDOF 3
ENDMDL
MODEL 9
REMARK VINA RESULT:      -4.2      1.719      2.544
REMARK  3 active torsions:
REMARK  status: ('A' for Active; 'I' for Inactive)
REMARK    1  A    between atoms: N_1  and  C_2 
REMARK    2  A    between atoms: C_4  and  C_10 
REMARK    3  A    between atoms: N_5  and  C_10 
ROOT
HETATM    1  C   UNL     1      65.383   5.988   6.083  1.00  0.00     0.030 A 
HETATM    2  C   UNL     1      64.318   6.903   6.157  1.00  0.00     0.038 A 
HETATM    3  C   UNL     1      63.758   7.509   5.017  1.00  0.00    -0.031 A 
HETATM    4  C   UNL     1      65.860   5.689   4.798  1.00  0.00     0.029 A 
HETATM    5  C   UNL     1      65.321   6.277   3.649  1.00  0.00     0.003 A 
HETATM    6  C   UNL     1      64.279   7.191   3.760  1.00  0.00     0.009 A 
ENDROOT
BRANCH   1   7
HETATM    7  N   UNL     1      65.943   5.426   7.217  1.00  0.00    -0.381 N 
HETATM    8  C   UNL     1      65.870   6.069   8.530  1.00  0.00     0.123 C 
HETATM    9  C   UNL     1      67.284   6.287   9.066  1.00  0.00     0.020 C 
HETATM   10  C   UNL     1      68.075   4.980   9.082  1.00  0.00     0.003 C 
HETATM   11  C   UNL     1      68.051   4.300   7.714  1.00  0.00     0.020 C 
HETATM   12  C   UNL     1      66.625   4.131   7.187  1.00  0.00     0.123 C 
ENDBRANCH   1   7
BRANCH   3  13
HETATM   13  C   UNL     1      62.636   8.515   5.159  1.00  0.00     0.270 C 
BRANCH  13  14
HETATM   14  N   UNL     1      63.080   9.866   4.812  1.00  0.00    -0.075 N 
HETATM   15  C   UNL     1      62.126  10.523   3.933  1.00  0.00     0.267 C 
HETATM   16  H   UNL     1      63.983   9.808   4.341  1.00  0.00     0.277 HD
HETATM   17  H   UNL     1      63.156  10.411   5.671  1.00  0.00     0.277 HD
ENDBRANCH  13  14
ENDBRANCH   3  13
TORSDOF 3
ENDMDL
