MODEL 1
REMARK VINA RESULT:      -5.2      0.000      0.000
REMARK  3 active torsions:
REMARK  status: ('A' for Active; 'I' for Inactive)
REMARK    1  A    between atoms: N_1  and  C_2 
REMARK    2  A    between atoms: C_4  and  C_10 
REMARK    3  A    between atoms: N_5  and  C_10 
ROOT
HETATM    1  C   UNL     1      65.232   7.733   4.866  1.00  0.00     0.030 A 
HETATM    2  C   UNL     1      64.515   8.885   5.222  1.00  0.00     0.038 A 
HETATM    3  C   UNL     1      63.353   9.293   4.548  1.00  0.00    -0.031 A 
HETATM    4  C   UNL     1      64.714   6.973   3.805  1.00  0.00     0.029 A 
HETATM    5  C   UNL     1      63.548   7.345   3.131  1.00  0.00     0.003 A 
HETATM    6  C   UNL     1      62.872   8.503   3.500  1.00  0.00     0.009 A 
ENDROOT
BRANCH   1   7
HETATM    7  N   UNL     1      66.400   7.376   5.516  1.00  0.00    -0.381 N 
HETATM    8  C   UNL     1      67.353   6.440   4.920  1.00  0.00     0.123 C 
HETATM    9  C   UNL     1      67.549   5.251   5.859  1.00  0.00     0.020 C 
HETATM   10  C   UNL     1      67.937   5.703   7.263  1.00  0.00     0.003 C 
HETATM   11  C   UNL     1      66.943   6.727   7.811  1.00  0.00     0.020 C 
HETATM   12  C   UNL     1      66.749   7.891   6.841  1.00  0.00     0.123 C 
ENDBRANCH   1   7
BRANCH   3  13
HETATM   13  C   UNL     1      62.648  10.566   4.935  1.00  0.00     0.268 C 
BRANCH  13  14
HETATM   14  N   UNL     1      63.380  11.274   5.978  1.00  0.00    -0.075 N 
HETATM   15  H   UNL     1      63.368  10.723   6.837  1.00  0.00     0.274 HD
HETATM   16  H   UNL     1      62.939  12.179   6.149  1.00  0.00     0.274 HD
HETATM   17  H   UNL     1      64.345  11.417   5.680  1.00  0.00     0.274 HD
ENDBRANCH  13  14
ENDBRANCH   3  13
TORSDOF 3
ENDMDL
MODEL 2
REMARK VINA RESULT:      -5.1      0.989      1.512
REMARK  3 active torsions:
REMARK  status: ('A' for Active; 'I' for Inactive)
REMARK    1  A    between atoms: N_1  and  C_2 
REMARK    2  A    between atoms: C_4  and  C_10 
REMARK    3  A    between atoms: N_5  and  C_10 
ROOT
HETATM    1  C   UNL     1      64.467   7.702   4.423  1.00  0.00     0.030 A 
HETATM    2  C   UNL     1      64.104   8.882   5.090  1.00  0.00     0.038 A 
HETATM    3  C   UNL     1      63.078   9.725   4.634  1.00  0.00    -0.031 A 
HETATM    4  C   UNL     1      63.727   7.375   3.275  1.00  0.00     0.029 A 
HETATM    5  C   UNL     1      62.686   8.185   2.813  1.00  0.00     0.003 A 
HETATM    6  C   UNL     1      62.365   9.357   3.490  1.00  0.00     0.009 A 
ENDROOT
BRANCH   1   7
HETATM    7  N   UNL     1      65.513   6.912   4.866  1.00  0.00    -0.381 N 
HETATM    8  C   UNL     1      65.336   5.946   5.951  1.00  0.00     0.123 C 
HETATM    9  C   UNL     1      66.312   6.272   7.081  1.00  0.00     0.020 C 
HETATM   10  C   UNL     1      67.748   6.362   6.573  1.00  0.00     0.003 C 
HETATM   11  C   UNL     1      67.861   7.335   5.399  1.00  0.00     0.020 C 
HETATM   12  C   UNL     1      66.858   7.000   4.298  1.00  0.00     0.123 C 
ENDBRANCH   1   7
BRANCH   3  13
HETATM   13  C   UNL     1      62.761  11.007   5.356  1.00  0.00     0.268 C 
BRANCH  13  14
HETATM   14  N   UNL     1      63.834  11.372   6.273  1.00  0.00    -0.075 N 
HETATM   15  H   UNL     1      64.722  11.383   5.770  1.00  0.00     0.274 HD
HETATM   16  H   UNL     1      63.881  10.690   7.030  1.00  0.00     0.274 HD
HETATM   17  H   UNL     1      63.651  12.298   6.660  1.00  0.00     0.274 HD
ENDBRANCH  13  14
ENDBRANCH   3  13
TORSDOF 3
ENDMDL
MODEL 3
REMARK VINA RESULT:      -4.9      1.429      1.640
REMARK  3 active torsions:
REMARK  status: ('A' for Active; 'I' for Inactive)
REMARK    1  A    between atoms: N_1  and  C_2 
REMARK    2  A    between atoms: C_4  and  C_10 
REMARK    3  A    between atoms: N_5  and  C_10 
ROOT
HETATM    1  C   UNL     1      64.430   7.754   4.740  1.00  0.00     0.030 A 
HETATM    2  C   UNL     1      63.715   8.957   4.851  1.00  0.00     0.038 A 
HETATM    3  C   UNL     1      62.792   9.382   3.882  1.00  0.00    -0.031 A 
HETATM    4  C   UNL     1      64.157   6.963   3.613  1.00  0.00     0.029 A 
HETATM    5  C   UNL     1      63.227   7.353   2.645  1.00  0.00     0.003 A 
HETATM    6  C   UNL     1      62.549   8.560   2.779  1.00  0.00     0.009 A 
ENDROOT
BRANCH   1   7
HETATM    7  N   UNL     1      65.368   7.379   5.685  1.00  0.00    -0.381 N 
HETATM    8  C   UNL     1      66.636   8.095   5.831  1.00  0.00     0.123 C 
HETATM    9  C   UNL     1      67.794   7.119   5.631  1.00  0.00     0.020 C 
HETATM   10  C   UNL     1      67.670   5.906   6.548  1.00  0.00     0.003 C 
HETATM   11  C   UNL     1      66.304   5.236   6.401  1.00  0.00     0.020 C 
HETATM   12  C   UNL     1      65.167   6.240   6.581  1.00  0.00     0.123 C 
ENDBRANCH   1   7
BRANCH   3  13
HETATM   13  C   UNL     1      62.089  10.706   4.022  1.00  0.00     0.268 C 
BRANCH  13  14
HETATM   14  N   UNL     1      61.625  11.192   2.729  1.00  0.00    -0.075 N 
HETATM   15  H   UNL     1      60.607  11.127   2.685  1.00  0.00     0.274 HD
HETATM   16  H   UNL     1      62.034  10.626   1.985  1.00  0.00     0.274 HD
HETATM   17  H   UNL     1      61.908  12.165   2.609  1.00  0.00     0.274 HD
ENDBRANCH  13  14
ENDBRANCH   3  13
TORSDOF 3
ENDMDL
MODEL 4
REMARK VINA RESULT:      -4.9      2.058      3.257
REMARK  3 active torsions:
REMARK  status: ('A' for Active; 'I' for Inactive)
REMARK    1  A    between atoms: N_1  and  C_2 
REMARK    2  A    between atoms: C_4  and  C_10 
REMARK    3  A    between atoms: N_5  and  C_10 
ROOT
HETATM    1  C   UNL     1      63.804   8.449   4.305  1.00  0.00     0.030 A 
HETATM    2  C   UNL     1      63.184   8.305   3.055  1.00  0.00     0.038 A 
HETATM    3  C   UNL     1      62.214   9.204   2.582  1.00  0.00    -0.031 A 
HETATM    4  C   UNL     1      63.430   9.566   5.068  1.00  0.00     0.029 A 
HETATM    5  C   UNL     1      62.483  10.488   4.612  1.00  0.00     0.003 A 
HETATM    6  C   UNL     1      61.877  10.305   3.374  1.00  0.00     0.009 A 
ENDROOT
BRANCH   1   7
HETATM    7  N   UNL     1      64.723   7.524   4.768  1.00  0.00    -0.381 N 
HETATM    8  C   UNL     1      65.260   7.593   6.128  1.00  0.00     0.123 C 
HETATM    9  C   UNL     1      66.782   7.708   6.065  1.00  0.00     0.020 C 
HETATM   10  C   UNL     1      67.394   6.591   5.224  1.00  0.00     0.003 C 
HETATM   11  C   UNL     1      66.752   6.525   3.839  1.00  0.00     0.020 C 
HETATM   12  C   UNL     1      65.230   6.436   3.932  1.00  0.00     0.123 C 
ENDBRANCH   1   7
BRANCH   3  13
HETATM   13  C   UNL     1      61.540   8.978   1.255  1.00  0.00     0.268 C 
BRANCH  13  14
HETATM   14  N   UNL     1      60.108   8.764   1.424  1.00  0.00    -0.075 N 
HETATM   15  H   UNL     1      59.601   9.598   1.127  1.00  0.00     0.274 HD
HETATM   16  H   UNL     1      59.906   8.575   2.406  1.00  0.00     0.274 HD
HETATM   17  H   UNL     1      59.814   7.968   0.857  1.00  0.00     0.274 HD
ENDBRANCH  13  14
ENDBRANCH   3  13
TORSDOF 3
ENDMDL
MODEL 5
REMARK VINA RESULT:      -4.5      2.078      5.490
REMARK  3 active torsions:
REMARK  status: ('A' for Active; 'I' for Inactive)
REMARK    1  A    between atoms: N_1  and  C_2 
REMARK    2  A    between atoms: C_4  and  C_10 
REMARK    3  A    between atoms: N_5  and  C_10 
ROOT
HETATM    1  C   UNL     1      63.214   7.897   4.621  1.00  0.00     0.030 A 
HETATM    2  C   UNL     1      64.587   8.187   4.601  1.00  0.00     0.038 A 
HETATM    3  C   UNL     1      65.496   7.613   5.504  1.00  0.00    -0.031 A 
HETATM    4  C   UNL     1      62.782   6.968   5.581  1.00  0.00     0.029 A 
HETATM    5  C   UNL     1      63.669   6.366   6.478  1.00  0.00     0.003 A 
HETATM    6  C   UNL     1      65.021   6.690   6.440  1.00  0.00     0.009 A 
ENDROOT
BRANCH   1   7
HETATM    7  N   UNL     1      62.331   8.510   3.750  1.00  0.00    -0.381 N 
HETATM    8  C   UNL     1      61.998   7.917   2.454  1.00  0.00     0.123 C 
HETATM    9  C   UNL     1      62.350   8.903   1.341  1.00  0.00     0.020 C 
HETATM   10  C   UNL     1      61.701  10.265   1.573  1.00  0.00     0.003 C 
HETATM   11  C   UNL     1      62.030  10.806   2.965  1.00  0.00     0.020 C 
HETATM   12  C   UNL     1      61.691   9.790   4.053  1.00  0.00     0.123 C 
ENDBRANCH   1   7
BRANCH   3  13
HETATM   13  C   UNL     1      66.951   7.996   5.475  1.00  0.00     0.268 C 
BRANCH  13  14
HETATM   14  N   UNL     1      67.720   7.209   6.431  1.00  0.00    -0.075 N 
HETATM   15  H   UNL     1      67.277   7.260   7.349  1.00  0.00     0.274 HD
HETATM   16  H   UNL     1      68.670   7.579   6.491  1.00  0.00     0.274 HD
HETATM   17  H   UNL     1      67.753   6.237   6.123  1.00  0.00     0.274 HD
ENDBRANCH  13  14
ENDBRANCH   3  13
TORSDOF 3
ENDMDL
MODEL 6
REMARK VINA RESULT:      -4.4      2.489      6.192
REMARK  3 active torsions:
REMARK  status: ('A' for Active; 'I' for Inactive)
REMARK    1  A    between atoms: N_1  and  C_2 
REMARK    2  A    between atoms: C_4  and  C_10 
REMARK    3  A    between atoms: N_5  and  C_10 
ROOT
HETATM    1  C   UNL     1      66.108   5.984   7.198  1.00  0.00     0.030 A 
HETATM    2  C   UNL     1      66.494   4.640   7.307  1.00  0.00     0.038 A 
HETATM    3  C   UNL     1      67.427   4.195   8.258  1.00  0.00    -0.031 A 
HETATM    4  C   UNL     1      66.681   6.880   8.114  1.00  0.00     0.029 A 
HETATM    5  C   UNL     1      67.595   6.459   9.085  1.00  0.00     0.003 A 
HETATM    6  C   UNL     1      67.967   5.121   9.154  1.00  0.00     0.009 A 
ENDROOT
BRANCH   1   7
HETATM    7  N   UNL     1      65.222   6.406   6.222  1.00  0.00    -0.381 N 
HETATM    8  C   UNL     1      65.652   7.263   5.116  1.00  0.00     0.123 C 
HETATM    9  C   UNL     1      64.829   8.550   5.124  1.00  0.00     0.020 C 
HETATM   10  C   UNL     1      63.331   8.258   5.122  1.00  0.00     0.003 C 
HETATM   11  C   UNL     1      62.950   7.309   6.258  1.00  0.00     0.020 C 
HETATM   12  C   UNL     1      63.805   6.044   6.240  1.00  0.00     0.123 C 
ENDBRANCH   1   7
BRANCH   3  13
HETATM   13  C   UNL     1      67.847   2.750   8.302  1.00  0.00     0.268 C 
BRANCH  13  14
HETATM   14  N   UNL     1      67.323   2.087   9.490  1.00  0.00    -0.075 N 
HETATM   15  H   UNL     1      66.350   1.822   9.331  1.00  0.00     0.274 HD
HETATM   16  H   UNL     1      67.376   2.723  10.286  1.00  0.00     0.274 HD
HETATM   17  H   UNL     1      67.875   1.251   9.685  1.00  0.00     0.274 HD
ENDBRANCH  13  14
ENDBRANCH   3  13
TORSDOF 3
ENDMDL
MODEL 7
REMARK VINA RESULT:      -4.1      2.344      5.905
REMARK  3 active torsions:
REMARK  status: ('A' for Active; 'I' for Inactive)
REMARK    1  A    between atoms: N_1  and  C_2 
REMARK    2  A    between atoms: C_4  and  C_10 
REMARK    3  A    between atoms: N_5  and  C_10 
ROOT
HETATM    1  C   UNL     1      63.505   7.449   3.371  1.00  0.00     0.030 A 
HETATM    2  C   UNL     1      64.690   6.703   3.472  1.00  0.00     0.038 A 
HETATM    3  C   UNL     1      65.726   7.043   4.357  1.00  0.00    -0.031 A 
HETATM    4  C   UNL     1      63.383   8.554   4.228  1.00  0.00     0.029 A 
HETATM    5  C   UNL     1      64.390   8.902   5.133  1.00  0.00     0.003 A 
HETATM    6  C   UNL     1      65.558   8.149   5.194  1.00  0.00     0.009 A 
ENDROOT
BRANCH   1   7
HETATM    7  N   UNL     1      62.519   7.120   2.459  1.00  0.00    -0.381 N 
HETATM    8  C   UNL     1      62.822   6.923   1.040  1.00  0.00     0.123 C 
HETATM    9  C   UNL     1      61.989   7.895   0.205  1.00  0.00     0.020 C 
HETATM   10  C   UNL     1      60.503   7.783   0.532  1.00  0.00     0.003 C 
HETATM   11  C   UNL     1      60.252   7.932   2.032  1.00  0.00     0.020 C 
HETATM   12  C   UNL     1      61.115   6.967   2.842  1.00  0.00     0.123 C 
ENDBRANCH   1   7
BRANCH   3  13
HETATM   13  C   UNL     1      66.999   6.241   4.392  1.00  0.00     0.268 C 
BRANCH  13  14
HETATM   14  N   UNL     1      68.074   6.991   5.029  1.00  0.00    -0.075 N 
HETATM   15  H   UNL     1      68.428   6.465   5.829  1.00  0.00     0.274 HD
HETATM   16  H   UNL     1      67.719   7.893   5.346  1.00  0.00     0.274 HD
HETATM   17  H   UNL     1      68.829   7.139   4.359  1.00  0.00     0.274 HD
ENDBRANCH  13  14
ENDBRANCH   3  13
TORSDOF 3
ENDMDL
MODEL 8
REMARK VINA RESULT:      -4.0      4.921      6.957
REMARK  3 active torsions:
REMARK  status: ('A' for Active; 'I' for Inactive)
REMARK    1  A    between atoms: N_1  and  C_2 
REMARK    2  A    between atoms: C_4  and  C_10 
REMARK    3  A    between atoms: N_5  and  C_10 
ROOT
HETATM    1  C   UNL     1      59.677   7.226   3.948  1.00  0.00     0.030 A 
HETATM    2  C   UNL     1      59.878   6.404   5.067  1.00  0.00     0.038 A 
HETATM    3  C   UNL     1      58.829   6.001   5.910  1.00  0.00    -0.031 A 
HETATM    4  C   UNL     1      58.354   7.613   3.682  1.00  0.00     0.029 A 
HETATM    5  C   UNL     1      57.289   7.208   4.492  1.00  0.00     0.003 A 
HETATM    6  C   UNL     1      57.528   6.407   5.603  1.00  0.00     0.009 A 
ENDROOT
BRANCH   1   7
HETATM    7  N   UNL     1      60.733   7.647   3.160  1.00  0.00    -0.381 N 
HETATM    8  C   UNL     1      61.803   8.488   3.699  1.00  0.00     0.123 C 
HETATM    9  C   UNL     1      61.881   9.785   2.893  1.00  0.00     0.020 C 
HETATM   10  C   UNL     1      62.018   9.508   1.398  1.00  0.00     0.003 C 
HETATM   11  C   UNL     1      60.913   8.573   0.904  1.00  0.00     0.020 C 
HETATM   12  C   UNL     1      60.842   7.300   1.743  1.00  0.00     0.123 C 
ENDBRANCH   1   7
BRANCH   3  13
HETATM   13  C   UNL     1      59.104   5.161   7.128  1.00  0.00     0.268 C 
BRANCH  13  14
HETATM   14  N   UNL     1      59.224   5.990   8.321  1.00  0.00    -0.075 N 
HETATM   15  H   UNL     1      58.299   6.318   8.602  1.00  0.00     0.274 HD
HETATM   16  H   UNL     1      59.822   6.792   8.120  1.00  0.00     0.274 HD
HETATM   17  H   UNL     1      59.634   5.441   9.078  1.00  0.00     0.274 HD
ENDBRANCH  13  14
ENDBRANCH   3  13
TORSDOF 3
ENDMDL
MODEL 9
REMARK VINA RESULT:      -4.0      4.060      5.673
REMARK  3 active torsions:
REMARK  status: ('A' for Active; 'I' for Inactive)
REMARK    1  A    between atoms: N_1  and  C_2 
REMARK    2  A    between atoms: C_4  and  C_10 
REMARK    3  A    between atoms: N_5  and  C_10 
ROOT
HETATM    1  C   UNL     1      61.470   7.094   5.066  1.00  0.00     0.030 A 
HETATM    2  C   UNL     1      61.218   7.818   3.891  1.00  0.00     0.038 A 
HETATM    3  C   UNL     1      62.120   8.763   3.374  1.00  0.00    -0.031 A 
HETATM    4  C   UNL     1      62.699   7.335   5.701  1.00  0.00     0.029 A 
HETATM    5  C   UNL     1      63.624   8.253   5.196  1.00  0.00     0.003 A 
HETATM    6  C   UNL     1      63.333   8.966   4.038  1.00  0.00     0.009 A 
ENDROOT
BRANCH   1   7
HETATM    7  N   UNL     1      60.546   6.203   5.580  1.00  0.00    -0.381 N 
HETATM    8  C   UNL     1      59.263   5.962   4.917  1.00  0.00     0.123 C 
HETATM    9  C   UNL     1      58.125   6.284   5.884  1.00  0.00     0.020 C 
HETATM   10  C   UNL     1      58.280   5.530   7.202  1.00  0.00     0.003 C 
HETATM   11  C   UNL     1      59.660   5.766   7.817  1.00  0.00     0.020 C 
HETATM   12  C   UNL     1      60.775   5.461   6.820  1.00  0.00     0.123 C 
ENDBRANCH   1   7
BRANCH   3  13
HETATM   13  C   UNL     1      61.780   9.552   2.138  1.00  0.00     0.268 C 
BRANCH  13  14
HETATM   14  N   UNL     1      61.578  10.961   2.454  1.00  0.00    -0.075 N 
HETATM   15  H   UNL     1      61.776  11.526   1.628  1.00  0.00     0.274 HD
HETATM   16  H   UNL     1      62.207  11.233   3.211  1.00  0.00     0.274 HD
HETATM   17  H   UNL     1      60.612  11.110   2.745  1.00  0.00     0.274 HD
ENDBRANCH  13  14
ENDBRANCH   3  13
TORSDOF 3
ENDMDL
