MODEL 1
REMARK VINA RESULT:      -5.2      0.000      0.000
REMARK  3 active torsions:
REMARK  status: ('A' for Active; 'I' for Inactive)
REMARK    1  A    between atoms: C_1  and  C_4 
REMARK    2  A    between atoms: C_9  and  C_13 
REMARK    3  A    between atoms: O_10  and  C_13 
ROOT
HETATM    1  C   UNL     1      63.860   8.397   4.982  1.00  0.00    -0.026 A 
HETATM    2  C   UNL     1      65.224   8.679   5.180  1.00  0.00     0.013 A 
HETATM    3  C   UNL     1      63.314   7.342   5.735  1.00  0.00     0.013 A 
HETATM    4  C   UNL     1      66.006   7.943   6.081  1.00  0.00     0.010 A 
HETATM    5  C   UNL     1      64.087   6.612   6.645  1.00  0.00     0.010 A 
HETATM    6  C   UNL     1      65.443   6.904   6.825  1.00  0.00    -0.035 A 
ENDROOT
BRANCH   1   7
HETATM    7  C   UNL     1      63.035   9.181   4.029  1.00  0.00    -0.023 A 
HETATM    8  C   UNL     1      62.684   8.676   2.769  1.00  0.00     0.029 A 
HETATM    9  C   UNL     1      61.923   9.454   1.907  1.00  0.00     0.088 A 
HETATM   10  N   UNL     1      61.475  10.689   2.203  1.00  0.00    -0.375 N 
HETATM   11  C   UNL     1      61.809  11.168   3.418  1.00  0.00     0.088 A 
ATOM     12  HN  UNL     1      60.915  11.232   1.545  1.00  0.00     0.164 HD
HETATM   13  C   UNL     1      62.573  10.468   4.342  1.00  0.00     0.029 A 
ENDBRANCH   1   7
BRANCH   6  14
HETATM   14  C   UNL     1      66.270   6.108   7.798  1.00  0.00     0.202 C 
BRANCH  14  15
HETATM   15  O   UNL     1      67.461   6.808   8.132  1.00  0.00    -0.396 OA
HETATM   16  H   UNL     1      68.143   6.174   8.404  1.00  0.00     0.209 HD
ENDBRANCH  14  15
ENDBRANCH   6  14
TORSDOF 3
ENDMDL
MODEL 2
REMARK VINA RESULT:      -5.1      0.054      1.284
REMARK  3 active torsions:
REMARK  status: ('A' for Active; 'I' for Inactive)
REMARK    1  A    between atoms: C_1  and  C_4 
REMARK    2  A    between atoms: C_9  and  C_13 
REMARK    3  A    between atoms: O_10  and  C_13 
ROOT
HETATM    1  C   UNL     1      63.872   8.361   4.984  1.00  0.00    -0.026 A 
HETATM    2  C   UNL     1      63.330   7.298   5.730  1.00  0.00     0.013 A 
HETATM    3  C   UNL     1      65.231   8.655   5.192  1.00  0.00     0.013 A 
HETATM    4  C   UNL     1      64.104   6.567   6.640  1.00  0.00     0.010 A 
HETATM    5  C   UNL     1      66.013   7.920   6.092  1.00  0.00     0.010 A 
HETATM    6  C   UNL     1      65.455   6.869   6.828  1.00  0.00    -0.035 A 
ENDROOT
BRANCH   1   7
HETATM    7  C   UNL     1      63.048   9.131   4.018  1.00  0.00    -0.023 A 
HETATM    8  C   UNL     1      62.718   8.619   2.755  1.00  0.00     0.029 A 
HETATM    9  C   UNL     1      61.958   9.384   1.882  1.00  0.00     0.088 A 
HETATM   10  N   UNL     1      61.490  10.614   2.170  1.00  0.00    -0.375 N 
HETATM   11  C   UNL     1      61.803  11.100   3.387  1.00  0.00     0.088 A 
ATOM     12  HN  UNL     1      60.931  11.147   1.504  1.00  0.00     0.164 HD
HETATM   13  C   UNL     1      62.566  10.414   4.322  1.00  0.00     0.029 A 
ENDBRANCH   1   7
BRANCH   6  14
HETATM   14  C   UNL     1      66.299   6.091   7.800  1.00  0.00     0.202 C 
BRANCH  14  15
HETATM   15  O   UNL     1      67.487   6.804   8.114  1.00  0.00    -0.396 OA
HETATM   16  H   UNL     1      67.259   7.614   8.598  1.00  0.00     0.209 HD
ENDBRANCH  14  15
ENDBRANCH   6  14
TORSDOF 3
ENDMDL
MODEL 3
REMARK VINA RESULT:      -5.1      0.893      1.533
REMARK  3 active torsions:
REMARK  status: ('A' for Active; 'I' for Inactive)
REMARK    1  A    between atoms: C_1  and  C_4 
REMARK    2  A    between atoms: C_9  and  C_13 
REMARK    3  A    between atoms: O_10  and  C_13 
ROOT
HETATM    1  C   UNL     1      64.264   8.165   5.315  1.00  0.00    -0.026 A 
HETATM    2  C   UNL     1      65.653   8.389   5.362  1.00  0.00     0.013 A 
HETATM    3  C   UNL     1      63.769   7.088   6.073  1.00  0.00     0.013 A 
HETATM    4  C   UNL     1      66.505   7.578   6.123  1.00  0.00     0.010 A 
HETATM    5  C   UNL     1      64.614   6.282   6.844  1.00  0.00     0.010 A 
HETATM    6  C   UNL     1      65.992   6.518   6.874  1.00  0.00    -0.035 A 
ENDROOT
BRANCH   1   7
HETATM    7  C   UNL     1      63.365   9.029   4.509  1.00  0.00    -0.023 A 
HETATM    8  C   UNL     1      62.932  10.279   4.973  1.00  0.00     0.029 A 
HETATM    9  C   UNL     1      62.080  11.044   4.188  1.00  0.00     0.088 A 
HETATM   10  N   UNL     1      61.632  10.667   2.975  1.00  0.00    -0.375 N 
HETATM   11  C   UNL     1      62.056   9.468   2.530  1.00  0.00     0.088 A 
ATOM     12  HN  UNL     1      61.007  11.256   2.425  1.00  0.00     0.164 HD
HETATM   13  C   UNL     1      62.900   8.630   3.247  1.00  0.00     0.029 A 
ENDBRANCH   1   7
BRANCH   6  14
HETATM   14  C   UNL     1      66.896   5.640   7.698  1.00  0.00     0.202 C 
BRANCH  14  15
HETATM   15  O   UNL     1      66.159   4.988   8.724  1.00  0.00    -0.396 OA
HETATM   16  H   UNL     1      66.432   5.334   9.588  1.00  0.00     0.209 HD
ENDBRANCH  14  15
ENDBRANCH   6  14
TORSDOF 3
ENDMDL
MODEL 4
REMARK VINA RESULT:      -4.8      3.717      5.992
REMARK  3 active torsions:
REMARK  status: ('A' for Active; 'I' for Inactive)
REMARK    1  A    between atoms: C_1  and  C_4 
REMARK    2  A    between atoms: C_9  and  C_13 
REMARK    3  A    between atoms: O_10  and  C_13 
ROOT
HETATM    1  C   UNL     1      64.830   7.548   4.861  1.00  0.00    -0.026 A 
HETATM    2  C   UNL     1      64.285   7.032   3.671  1.00  0.00     0.013 A 
HETATM    3  C   UNL     1      64.318   8.778   5.313  1.00  0.00     0.013 A 
HETATM    4  C   UNL     1      63.282   7.710   2.965  1.00  0.00     0.010 A 
HETATM    5  C   UNL     1      63.308   9.453   4.618  1.00  0.00     0.010 A 
HETATM    6  C   UNL     1      62.782   8.926   3.434  1.00  0.00    -0.035 A 
ENDROOT
BRANCH   1   7
HETATM    7  C   UNL     1      65.891   6.825   5.606  1.00  0.00    -0.023 A 
HETATM    8  C   UNL     1      66.640   5.798   5.015  1.00  0.00     0.029 A 
HETATM    9  C   UNL     1      67.612   5.143   5.758  1.00  0.00     0.088 A 
HETATM   10  N   UNL     1      67.904   5.434   7.040  1.00  0.00    -0.375 N 
HETATM   11  C   UNL     1      67.187   6.427   7.604  1.00  0.00     0.088 A 
ATOM     12  HN  UNL     1      68.627   4.933   7.556  1.00  0.00     0.164 HD
HETATM   13  C   UNL     1      66.190   7.132   6.943  1.00  0.00     0.029 A 
ENDBRANCH   1   7
BRANCH   6  14
HETATM   14  C   UNL     1      61.703   9.663   2.688  1.00  0.00     0.202 C 
BRANCH  14  15
HETATM   15  O   UNL     1      61.233  10.768   3.450  1.00  0.00    -0.396 OA
HETATM   16  H   UNL     1      60.285  10.659   3.626  1.00  0.00     0.209 HD
ENDBRANCH  14  15
ENDBRANCH   6  14
TORSDOF 3
ENDMDL
MODEL 5
REMARK VINA RESULT:      -4.8      1.977      2.627
REMARK  3 active torsions:
REMARK  status: ('A' for Active; 'I' for Inactive)
REMARK    1  A    between atoms: C_1  and  C_4 
REMARK    2  A    between atoms: C_9  and  C_13 
REMARK    3  A    between atoms: O_10  and  C_13 
ROOT
HETATM    1  C   UNL     1      63.202   8.010   3.584  1.00  0.00    -0.026 A 
HETATM    2  C   UNL     1      63.492   8.973   4.569  1.00  0.00     0.013 A 
HETATM    3  C   UNL     1      64.161   7.000   3.383  1.00  0.00     0.013 A 
HETATM    4  C   UNL     1      64.678   8.933   5.313  1.00  0.00     0.010 A 
HETATM    5  C   UNL     1      65.342   6.949   4.132  1.00  0.00     0.010 A 
HETATM    6  C   UNL     1      65.614   7.918   5.103  1.00  0.00    -0.035 A 
ENDROOT
BRANCH   1   7
HETATM    7  C   UNL     1      61.943   8.055   2.800  1.00  0.00    -0.023 A 
HETATM    8  C   UNL     1      60.747   7.511   3.292  1.00  0.00     0.029 A 
HETATM    9  C   UNL     1      59.599   7.565   2.514  1.00  0.00     0.088 A 
HETATM   10  N   UNL     1      59.543   8.126   1.292  1.00  0.00    -0.375 N 
HETATM   11  C   UNL     1      60.691   8.655   0.825  1.00  0.00     0.088 A 
ATOM     12  HN  UNL     1      58.679   8.150   0.749  1.00  0.00     0.164 HD
HETATM   13  C   UNL     1      61.890   8.640   1.526  1.00  0.00     0.029 A 
ENDBRANCH   1   7
BRANCH   6  14
HETATM   14  C   UNL     1      66.891   7.861   5.897  1.00  0.00     0.202 C 
BRANCH  14  15
HETATM   15  O   UNL     1      66.886   8.845   6.924  1.00  0.00    -0.396 OA
HETATM   16  H   UNL     1      66.772   8.412   7.785  1.00  0.00     0.209 HD
ENDBRANCH  14  15
ENDBRANCH   6  14
TORSDOF 3
ENDMDL
MODEL 6
REMARK VINA RESULT:      -4.7      3.678      5.996
REMARK  3 active torsions:
REMARK  status: ('A' for Active; 'I' for Inactive)
REMARK    1  A    between atoms: C_1  and  C_4 
REMARK    2  A    between atoms: C_9  and  C_13 
REMARK    3  A    between atoms: O_10  and  C_13 
ROOT
HETATM    1  C   UNL     1      63.864   7.945   4.197  1.00  0.00    -0.026 A 
HETATM    2  C   UNL     1      63.739   7.049   3.118  1.00  0.00     0.013 A 
HETATM    3  C   UNL     1      63.084   9.114   4.145  1.00  0.00     0.013 A 
HETATM    4  C   UNL     1      62.882   7.308   2.041  1.00  0.00     0.010 A 
HETATM    5  C   UNL     1      62.217   9.371   3.076  1.00  0.00     0.010 A 
HETATM    6  C   UNL     1      62.110   8.471   2.011  1.00  0.00    -0.035 A 
ENDROOT
BRANCH   1   7
HETATM    7  C   UNL     1      64.772   7.665   5.338  1.00  0.00    -0.023 A 
HETATM    8  C   UNL     1      66.003   8.321   5.480  1.00  0.00     0.029 A 
HETATM    9  C   UNL     1      66.823   8.014   6.557  1.00  0.00     0.088 A 
HETATM   10  N   UNL     1      66.510   7.114   7.509  1.00  0.00    -0.375 N 
HETATM   11  C   UNL     1      65.323   6.491   7.373  1.00  0.00     0.088 A 
ATOM     12  HN  UNL     1      67.137   6.915   8.289  1.00  0.00     0.164 HD
HETATM   13  C   UNL     1      64.442   6.725   6.326  1.00  0.00     0.029 A 
ENDBRANCH   1   7
BRANCH   6  14
HETATM   14  C   UNL     1      61.183   8.760   0.861  1.00  0.00     0.202 C 
BRANCH  14  15
HETATM   15  O   UNL     1      59.827   8.657   1.274  1.00  0.00    -0.396 OA
HETATM   16  H   UNL     1      59.761   8.034   2.015  1.00  0.00     0.209 HD
ENDBRANCH  14  15
ENDBRANCH   6  14
TORSDOF 3
ENDMDL
MODEL 7
REMARK VINA RESULT:      -4.7      3.688      5.982
REMARK  3 active torsions:
REMARK  status: ('A' for Active; 'I' for Inactive)
REMARK    1  A    between atoms: C_1  and  C_4 
REMARK    2  A    between atoms: C_9  and  C_13 
REMARK    3  A    between atoms: O_10  and  C_13 
ROOT
HETATM    1  C   UNL     1      64.553   7.804   4.390  1.00  0.00    -0.026 A 
HETATM    2  C   UNL     1      63.782   8.960   4.618  1.00  0.00     0.013 A 
HETATM    3  C   UNL     1      64.176   6.993   3.305  1.00  0.00     0.013 A 
HETATM    4  C   UNL     1      62.688   9.288   3.806  1.00  0.00     0.010 A 
HETATM    5  C   UNL     1      63.091   7.323   2.483  1.00  0.00     0.010 A 
HETATM    6  C   UNL     1      62.334   8.473   2.728  1.00  0.00    -0.035 A 
ENDROOT
BRANCH   1   7
HETATM    7  C   UNL     1      65.712   7.463   5.251  1.00  0.00    -0.023 A 
HETATM    8  C   UNL     1      65.561   7.187   6.618  1.00  0.00     0.029 A 
HETATM    9  C   UNL     1      66.679   6.886   7.384  1.00  0.00     0.088 A 
HETATM   10  N   UNL     1      67.933   6.828   6.897  1.00  0.00    -0.375 N 
HETATM   11  C   UNL     1      68.074   7.087   5.582  1.00  0.00     0.088 A 
ATOM     12  HN  UNL     1      68.732   6.602   7.490  1.00  0.00     0.164 HD
HETATM   13  C   UNL     1      67.018   7.405   4.739  1.00  0.00     0.029 A 
ENDBRANCH   1   7
BRANCH   6  14
HETATM   14  C   UNL     1      61.163   8.814   1.847  1.00  0.00     0.202 C 
BRANCH  14  15
HETATM   15  O   UNL     1      59.947   8.375   2.437  1.00  0.00    -0.396 OA
HETATM   16  H   UNL     1      59.406   9.145   2.674  1.00  0.00     0.209 HD
ENDBRANCH  14  15
ENDBRANCH   6  14
TORSDOF 3
ENDMDL
MODEL 8
REMARK VINA RESULT:      -4.7      3.907      6.092
REMARK  3 active torsions:
REMARK  status: ('A' for Active; 'I' for Inactive)
REMARK    1  A    between atoms: C_1  and  C_4 
REMARK    2  A    between atoms: C_9  and  C_13 
REMARK    3  A    between atoms: O_10  and  C_13 
ROOT
HETATM    1  C   UNL     1      62.574   7.794   3.731  1.00  0.00    -0.026 A 
HETATM    2  C   UNL     1      62.775   8.603   2.597  1.00  0.00     0.013 A 
HETATM    3  C   UNL     1      61.348   7.110   3.814  1.00  0.00     0.013 A 
HETATM    4  C   UNL     1      61.801   8.726   1.598  1.00  0.00     0.010 A 
HETATM    5  C   UNL     1      60.377   7.219   2.812  1.00  0.00     0.010 A 
HETATM    6  C   UNL     1      60.593   8.032   1.694  1.00  0.00    -0.035 A 
ENDROOT
BRANCH   1   7
HETATM    7  C   UNL     1      63.610   7.665   4.786  1.00  0.00    -0.023 A 
HETATM    8  C   UNL     1      63.513   6.704   5.803  1.00  0.00     0.029 A 
HETATM    9  C   UNL     1      64.501   6.633   6.775  1.00  0.00     0.088 A 
HETATM   10  N   UNL     1      65.582   7.435   6.811  1.00  0.00    -0.375 N 
HETATM   11  C   UNL     1      65.676   8.353   5.829  1.00  0.00     0.088 A 
ATOM     12  HN  UNL     1      66.290   7.352   7.541  1.00  0.00     0.164 HD
HETATM   13  C   UNL     1      64.734   8.505   4.820  1.00  0.00     0.029 A 
ENDBRANCH   1   7
BRANCH   6  14
HETATM   14  C   UNL     1      59.539   8.152   0.627  1.00  0.00     0.202 C 
BRANCH  14  15
HETATM   15  O   UNL     1      58.253   8.315   1.210  1.00  0.00    -0.396 OA
HETATM   16  H   UNL     1      58.161   9.222   1.541  1.00  0.00     0.209 HD
ENDBRANCH  14  15
ENDBRANCH   6  14
TORSDOF 3
ENDMDL
MODEL 9
REMARK VINA RESULT:      -4.1      4.334      6.520
REMARK  3 active torsions:
REMARK  status: ('A' for Active; 'I' for Inactive)
REMARK    1  A    between atoms: C_1  and  C_4 
REMARK    2  A    between atoms: C_9  and  C_13 
REMARK    3  A    between atoms: O_10  and  C_13 
ROOT
HETATM    1  C   UNL     1      61.073   8.370   3.145  1.00  0.00    -0.026 A 
HETATM    2  C   UNL     1      60.004   7.631   3.684  1.00  0.00     0.013 A 
HETATM    3  C   UNL     1      61.074   8.561   1.751  1.00  0.00     0.013 A 
HETATM    4  C   UNL     1      58.988   7.105   2.875  1.00  0.00     0.010 A 
HETATM    5  C   UNL     1      60.055   8.048   0.939  1.00  0.00     0.010 A 
HETATM    6  C   UNL     1      59.003   7.312   1.493  1.00  0.00    -0.035 A 
ENDROOT
BRANCH   1   7
HETATM    7  C   UNL     1      62.146   8.926   4.007  1.00  0.00    -0.023 A 
HETATM    8  C   UNL     1      62.092  10.239   4.497  1.00  0.00     0.029 A 
HETATM    9  C   UNL     1      63.127  10.718   5.288  1.00  0.00     0.088 A 
HETATM   10  N   UNL     1      64.206   9.992   5.639  1.00  0.00    -0.375 N 
HETATM   11  C   UNL     1      64.250   8.728   5.172  1.00  0.00     0.088 A 
ATOM     12  HN  UNL     1      64.947  10.376   6.224  1.00  0.00     0.164 HD
HETATM   13  C   UNL     1      63.268   8.165   4.368  1.00  0.00     0.029 A 
ENDBRANCH   1   7
BRANCH   6  14
HETATM   14  C   UNL     1      57.917   6.757   0.612  1.00  0.00     0.202 C 
BRANCH  14  15
HETATM   15  O   UNL     1      56.635   7.104   1.119  1.00  0.00    -0.396 OA
HETATM   16  H   UNL     1      56.739   7.676   1.895  1.00  0.00     0.209 HD
ENDBRANCH  14  15
ENDBRANCH   6  14
TORSDOF 3
ENDMDL
