MODEL 1
REMARK VINA RESULT:      -5.5      0.000      0.000
REMARK  3 active torsions:
REMARK  status: ('A' for Active; 'I' for Inactive)
REMARK    1  A    between atoms: C_1  and  C_5 
REMARK    2  A    between atoms: C_6  and  C_12 
REMARK    3  A    between atoms: O_7  and  C_12 
ROOT
HETATM    1  C   UNL     1      64.251   8.108   4.271  1.00  0.00    -0.025 A 
HETATM    2  C   UNL     1      64.139   9.231   5.115  1.00  0.00     0.021 A 
HETATM    3  C   UNL     1      63.073  10.143   5.015  1.00  0.00    -0.034 A 
HETATM    4  C   UNL     1      63.225   7.918   3.328  1.00  0.00     0.012 A 
HETATM    5  C   UNL     1      62.148   8.806   3.230  1.00  0.00     0.002 A 
HETATM    6  C   UNL     1      62.076   9.917   4.065  1.00  0.00     0.009 A 
ENDROOT
BRANCH   1   7
HETATM    7  C   UNL     1      65.408   7.183   4.365  1.00  0.00    -0.023 A 
HETATM    8  C   UNL     1      65.527   6.054   3.543  1.00  0.00     0.029 A 
HETATM    9  C   UNL     1      66.635   5.227   3.670  1.00  0.00     0.088 A 
HETATM   10  N   UNL     1      67.630   5.429   4.557  1.00  0.00    -0.375 N 
HETATM   11  C   UNL     1      67.510   6.514   5.348  1.00  0.00     0.088 A 
ATOM     12  HN  UNL     1      68.428   4.798   4.626  1.00  0.00     0.164 HD
HETATM   13  C   UNL     1      66.446   7.402   5.285  1.00  0.00     0.029 A 
ENDBRANCH   1   7
BRANCH   3  14
HETATM   14  C   UNL     1      63.033  11.352   5.911  1.00  0.00     0.202 C 
BRANCH  14  15
HETATM   15  O   UNL     1      64.313  11.600   6.478  1.00  0.00    -0.396 OA
HETATM   16  H   UNL     1      64.404  12.547   6.668  1.00  0.00     0.209 HD
ENDBRANCH  14  15
ENDBRANCH   3  14
TORSDOF 3
ENDMDL
MODEL 2
REMARK VINA RESULT:      -5.5      3.063      5.144
REMARK  3 active torsions:
REMARK  status: ('A' for Active; 'I' for Inactive)
REMARK    1  A    between atoms: C_1  and  C_5 
REMARK    2  A    between atoms: C_6  and  C_12 
REMARK    3  A    between atoms: O_7  and  C_12 
ROOT
HETATM    1  C   UNL     1      63.395   8.387   4.807  1.00  0.00    -0.025 A 
HETATM    2  C   UNL     1      64.767   8.472   5.117  1.00  0.00     0.021 A 
HETATM    3  C   UNL     1      65.391   7.587   6.015  1.00  0.00    -0.034 A 
HETATM    4  C   UNL     1      62.668   7.351   5.420  1.00  0.00     0.012 A 
HETATM    5  C   UNL     1      63.279   6.451   6.301  1.00  0.00     0.002 A 
HETATM    6  C   UNL     1      64.633   6.572   6.602  1.00  0.00     0.009 A 
ENDROOT
BRANCH   1   7
HETATM    7  C   UNL     1      62.749   9.359   3.891  1.00  0.00    -0.023 A 
HETATM    8  C   UNL     1      62.408  10.656   4.301  1.00  0.00     0.029 A 
HETATM    9  C   UNL     1      61.811  11.526   3.399  1.00  0.00     0.088 A 
HETATM   10  N   UNL     1      61.517  11.205   2.122  1.00  0.00    -0.375 N 
HETATM   11  C   UNL     1      61.842   9.957   1.734  1.00  0.00     0.088 A 
ATOM     12  HN  UNL     1      61.074  11.869   1.488  1.00  0.00     0.164 HD
HETATM   13  C   UNL     1      62.451   9.024   2.560  1.00  0.00     0.029 A 
ENDBRANCH   1   7
BRANCH   3  14
HETATM   14  C   UNL     1      66.850   7.758   6.345  1.00  0.00     0.202 C 
BRANCH  14  15
HETATM   15  O   UNL     1      67.028   8.771   7.326  1.00  0.00    -0.396 OA
HETATM   16  H   UNL     1      66.549   9.570   7.056  1.00  0.00     0.209 HD
ENDBRANCH  14  15
ENDBRANCH   3  14
TORSDOF 3
ENDMDL
MODEL 3
REMARK VINA RESULT:      -5.3      2.345      2.855
REMARK  3 active torsions:
REMARK  status: ('A' for Active; 'I' for Inactive)
REMARK    1  A    between atoms: C_1  and  C_5 
REMARK    2  A    between atoms: C_6  and  C_12 
REMARK    3  A    between atoms: O_7  and  C_12 
ROOT
HETATM    1  C   UNL     1      63.198   8.226   3.476  1.00  0.00    -0.025 A 
HETATM    2  C   UNL     1      62.729   9.549   3.359  1.00  0.00     0.021 A 
HETATM    3  C   UNL     1      62.091  10.020   2.196  1.00  0.00    -0.034 A 
HETATM    4  C   UNL     1      62.977   7.374   2.380  1.00  0.00     0.012 A 
HETATM    5  C   UNL     1      62.328   7.822   1.224  1.00  0.00     0.002 A 
HETATM    6  C   UNL     1      61.892   9.141   1.130  1.00  0.00     0.009 A 
ENDROOT
BRANCH   1   7
HETATM    7  C   UNL     1      63.907   7.764   4.695  1.00  0.00    -0.023 A 
HETATM    8  C   UNL     1      63.389   6.755   5.520  1.00  0.00     0.029 A 
HETATM    9  C   UNL     1      64.099   6.358   6.646  1.00  0.00     0.088 A 
HETATM   10  N   UNL     1      65.280   6.891   7.021  1.00  0.00    -0.375 N 
HETATM   11  C   UNL     1      65.772   7.862   6.227  1.00  0.00     0.088 A 
ATOM     12  HN  UNL     1      65.772   6.577   7.857  1.00  0.00     0.164 HD
HETATM   13  C   UNL     1      65.140   8.316   5.078  1.00  0.00     0.029 A 
ENDBRANCH   1   7
BRANCH   3  14
HETATM   14  C   UNL     1      61.656  11.459   2.109  1.00  0.00     0.202 C 
BRANCH  14  15
HETATM   15  O   UNL     1      61.821  12.111   3.361  1.00  0.00    -0.396 OA
HETATM   16  H   UNL     1      61.642  13.058   3.258  1.00  0.00     0.209 HD
ENDBRANCH  14  15
ENDBRANCH   3  14
TORSDOF 3
ENDMDL
MODEL 4
REMARK VINA RESULT:      -5.3      2.585      3.400
REMARK  3 active torsions:
REMARK  status: ('A' for Active; 'I' for Inactive)
REMARK    1  A    between atoms: C_1  and  C_5 
REMARK    2  A    between atoms: C_6  and  C_12 
REMARK    3  A    between atoms: O_7  and  C_12 
ROOT
HETATM    1  C   UNL     1      63.434   9.037   4.661  1.00  0.00    -0.025 A 
HETATM    2  C   UNL     1      62.959   8.747   3.366  1.00  0.00     0.021 A 
HETATM    3  C   UNL     1      62.150   9.643   2.644  1.00  0.00    -0.034 A 
HETATM    4  C   UNL     1      63.082  10.287   5.201  1.00  0.00     0.012 A 
HETATM    5  C   UNL     1      62.294  11.197   4.487  1.00  0.00     0.002 A 
HETATM    6  C   UNL     1      61.824  10.874   3.217  1.00  0.00     0.009 A 
ENDROOT
BRANCH   1   7
HETATM    7  C   UNL     1      64.250   8.059   5.421  1.00  0.00    -0.023 A 
HETATM    8  C   UNL     1      65.628   8.230   5.616  1.00  0.00     0.029 A 
HETATM    9  C   UNL     1      66.341   7.285   6.341  1.00  0.00     0.088 A 
HETATM   10  N   UNL     1      65.793   6.177   6.882  1.00  0.00    -0.375 N 
HETATM   11  C   UNL     1      64.469   6.015   6.689  1.00  0.00     0.088 A 
ATOM     12  HN  UNL     1      66.348   5.502   7.406  1.00  0.00     0.164 HD
HETATM   13  C   UNL     1      63.674   6.910   5.989  1.00  0.00     0.029 A 
ENDBRANCH   1   7
BRANCH   3  14
HETATM   14  C   UNL     1      61.631   9.258   1.284  1.00  0.00     0.202 C 
BRANCH  14  15
HETATM   15  O   UNL     1      60.261   8.888   1.355  1.00  0.00    -0.396 OA
HETATM   16  H   UNL     1      59.987   8.498   0.510  1.00  0.00     0.209 HD
ENDBRANCH  14  15
ENDBRANCH   3  14
TORSDOF 3
ENDMDL
MODEL 5
REMARK VINA RESULT:      -4.7      4.065      4.830
REMARK  3 active torsions:
REMARK  status: ('A' for Active; 'I' for Inactive)
REMARK    1  A    between atoms: C_1  and  C_5 
REMARK    2  A    between atoms: C_6  and  C_12 
REMARK    3  A    between atoms: O_7  and  C_12 
ROOT
HETATM    1  C   UNL     1      61.436   7.839   3.121  1.00  0.00    -0.025 A 
HETATM    2  C   UNL     1      61.410   9.248   3.124  1.00  0.00     0.021 A 
HETATM    3  C   UNL     1      61.825  10.010   2.016  1.00  0.00    -0.034 A 
HETATM    4  C   UNL     1      61.874   7.214   1.940  1.00  0.00     0.012 A 
HETATM    5  C   UNL     1      62.272   7.957   0.824  1.00  0.00     0.002 A 
HETATM    6  C   UNL     1      62.255   9.349   0.863  1.00  0.00     0.009 A 
ENDROOT
BRANCH   1   7
HETATM    7  C   UNL     1      61.034   7.058   4.317  1.00  0.00    -0.023 A 
HETATM    8  C   UNL     1      61.912   6.830   5.386  1.00  0.00     0.029 A 
HETATM    9  C   UNL     1      61.481   6.097   6.484  1.00  0.00     0.088 A 
HETATM   10  N   UNL     1      60.247   5.564   6.598  1.00  0.00    -0.375 N 
HETATM   11  C   UNL     1      59.408   5.783   5.567  1.00  0.00     0.088 A 
ATOM     12  HN  UNL     1      59.965   5.027   7.418  1.00  0.00     0.164 HD
HETATM   13  C   UNL     1      59.746   6.512   4.436  1.00  0.00     0.029 A 
ENDBRANCH   1   7
BRANCH   3  14
HETATM   14  C   UNL     1      61.823  11.513   2.094  1.00  0.00     0.202 C 
BRANCH  14  15
HETATM   15  O   UNL     1      61.902  11.946   3.446  1.00  0.00    -0.396 OA
HETATM   16  H   UNL     1      61.358  11.367   4.003  1.00  0.00     0.209 HD
ENDBRANCH  14  15
ENDBRANCH   3  14
TORSDOF 3
ENDMDL
MODEL 6
REMARK VINA RESULT:      -4.7      2.882      5.119
REMARK  3 active torsions:
REMARK  status: ('A' for Active; 'I' for Inactive)
REMARK    1  A    between atoms: C_1  and  C_5 
REMARK    2  A    between atoms: C_6  and  C_12 
REMARK    3  A    between atoms: O_7  and  C_12 
ROOT
HETATM    1  C   UNL     1      65.370   7.811   5.302  1.00  0.00    -0.025 A 
HETATM    2  C   UNL     1      65.285   7.205   6.572  1.00  0.00     0.021 A 
HETATM    3  C   UNL     1      66.387   6.573   7.178  1.00  0.00    -0.034 A 
HETATM    4  C   UNL     1      66.624   7.782   4.667  1.00  0.00     0.012 A 
HETATM    5  C   UNL     1      67.733   7.174   5.265  1.00  0.00     0.002 A 
HETATM    6  C   UNL     1      67.614   6.566   6.512  1.00  0.00     0.009 A 
ENDROOT
BRANCH   1   7
HETATM    7  C   UNL     1      64.184   8.433   4.664  1.00  0.00    -0.023 A 
HETATM    8  C   UNL     1      63.567   7.875   3.535  1.00  0.00     0.029 A 
HETATM    9  C   UNL     1      62.456   8.497   2.983  1.00  0.00     0.088 A 
HETATM   10  N   UNL     1      61.914   9.637   3.459  1.00  0.00    -0.375 N 
HETATM   11  C   UNL     1      62.512  10.172   4.541  1.00  0.00     0.088 A 
ATOM     12  HN  UNL     1      61.098  10.068   3.025  1.00  0.00     0.164 HD
HETATM   13  C   UNL     1      63.618   9.616   5.168  1.00  0.00     0.029 A 
ENDBRANCH   1   7
BRANCH   3  14
HETATM   14  C   UNL     1      66.224   5.898   8.514  1.00  0.00     0.202 C 
BRANCH  14  15
HETATM   15  O   UNL     1      66.831   6.668   9.543  1.00  0.00    -0.396 OA
HETATM   16  H   UNL     1      67.076   6.086  10.279  1.00  0.00     0.209 HD
ENDBRANCH  14  15
ENDBRANCH   3  14
TORSDOF 3
ENDMDL
MODEL 7
REMARK VINA RESULT:      -4.6      3.151      5.566
REMARK  3 active torsions:
REMARK  status: ('A' for Active; 'I' for Inactive)
REMARK    1  A    between atoms: C_1  and  C_5 
REMARK    2  A    between atoms: C_6  and  C_12 
REMARK    3  A    between atoms: O_7  and  C_12 
ROOT
HETATM    1  C   UNL     1      64.999   7.817   4.668  1.00  0.00    -0.025 A 
HETATM    2  C   UNL     1      65.400   6.618   4.046  1.00  0.00     0.021 A 
HETATM    3  C   UNL     1      66.564   5.926   4.427  1.00  0.00    -0.034 A 
HETATM    4  C   UNL     1      65.808   8.289   5.718  1.00  0.00     0.012 A 
HETATM    5  C   UNL     1      66.958   7.602   6.120  1.00  0.00     0.002 A 
HETATM    6  C   UNL     1      67.339   6.430   5.474  1.00  0.00     0.009 A 
ENDROOT
BRANCH   1   7
HETATM    7  C   UNL     1      63.791   8.553   4.220  1.00  0.00    -0.023 A 
HETATM    8  C   UNL     1      63.031   8.136   3.118  1.00  0.00     0.029 A 
HETATM    9  C   UNL     1      61.906   8.859   2.747  1.00  0.00     0.088 A 
HETATM   10  N   UNL     1      61.480   9.971   3.381  1.00  0.00    -0.375 N 
HETATM   11  C   UNL     1      62.215  10.370   4.438  1.00  0.00     0.088 A 
ATOM     12  HN  UNL     1      60.650  10.480   3.079  1.00  0.00     0.164 HD
HETATM   13  C   UNL     1      63.346   9.706   4.888  1.00  0.00     0.029 A 
ENDBRANCH   1   7
BRANCH   3  14
HETATM   14  C   UNL     1      66.969   4.675   3.693  1.00  0.00     0.202 C 
BRANCH  14  15
HETATM   15  O   UNL     1      67.594   4.997   2.458  1.00  0.00    -0.396 OA
HETATM   16  H   UNL     1      66.922   5.287   1.822  1.00  0.00     0.209 HD
ENDBRANCH  14  15
ENDBRANCH   3  14
TORSDOF 3
ENDMDL
MODEL 8
REMARK VINA RESULT:      -4.6     10.609     10.910
REMARK  3 active torsions:
REMARK  status: ('A' for Active; 'I' for Inactive)
REMARK    1  A    between atoms: C_1  and  C_5 
REMARK    2  A    between atoms: C_6  and  C_12 
REMARK    3  A    between atoms: O_7  and  C_12 
ROOT
HETATM    1  C   UNL     1      58.609   2.685  10.561  1.00  0.00    -0.025 A 
HETATM    2  C   UNL     1      58.558   4.032  10.148  1.00  0.00     0.021 A 
HETATM    3  C   UNL     1      58.972   4.442   8.868  1.00  0.00    -0.034 A 
HETATM    4  C   UNL     1      59.072   1.749   9.619  1.00  0.00     0.012 A 
HETATM    5  C   UNL     1      59.470   2.139   8.335  1.00  0.00     0.002 A 
HETATM    6  C   UNL     1      59.426   3.481   7.963  1.00  0.00     0.009 A 
ENDROOT
BRANCH   1   7
HETATM    7  C   UNL     1      58.208   2.282  11.931  1.00  0.00    -0.023 A 
HETATM    8  C   UNL     1      59.139   1.828  12.876  1.00  0.00     0.029 A 
HETATM    9  C   UNL     1      58.708   1.470  14.146  1.00  0.00     0.088 A 
HETATM   10  N   UNL     1      57.422   1.519  14.549  1.00  0.00    -0.375 N 
HETATM   11  C   UNL     1      56.530   1.952  13.637  1.00  0.00     0.088 A 
ATOM     12  HN  UNL     1      57.141   1.244  15.490  1.00  0.00     0.164 HD
HETATM   13  C   UNL     1      56.869   2.342  12.349  1.00  0.00     0.029 A 
ENDBRANCH   1   7
BRANCH   3  14
HETATM   14  C   UNL     1      58.942   5.901   8.500  1.00  0.00     0.202 C 
BRANCH  14  15
HETATM   15  O   UNL     1      58.606   6.697   9.629  1.00  0.00    -0.396 OA
HETATM   16  H   UNL     1      58.485   7.618   9.351  1.00  0.00     0.209 HD
ENDBRANCH  14  15
ENDBRANCH   3  14
TORSDOF 3
ENDMDL
MODEL 9
REMARK VINA RESULT:      -4.6      3.569      5.586
REMARK  3 active torsions:
REMARK  status: ('A' for Active; 'I' for Inactive)
REMARK    1  A    between atoms: C_1  and  C_5 
REMARK    2  A    between atoms: C_6  and  C_12 
REMARK    3  A    between atoms: O_7  and  C_12 
ROOT
HETATM    1  C   UNL     1      63.423   8.356   4.733  1.00  0.00    -0.025 A 
HETATM    2  C   UNL     1      62.732   7.212   5.179  1.00  0.00     0.021 A 
HETATM    3  C   UNL     1      63.346   6.224   5.971  1.00  0.00    -0.034 A 
HETATM    4  C   UNL     1      64.764   8.487   5.139  1.00  0.00     0.012 A 
HETATM    5  C   UNL     1      65.382   7.522   5.942  1.00  0.00     0.002 A 
HETATM    6  C   UNL     1      64.678   6.392   6.350  1.00  0.00     0.009 A 
ENDROOT
BRANCH   1   7
HETATM    7  C   UNL     1      62.768   9.363   3.863  1.00  0.00    -0.023 A 
HETATM    8  C   UNL     1      62.420  10.638   4.330  1.00  0.00     0.029 A 
HETATM    9  C   UNL     1      61.814  11.543   3.469  1.00  0.00     0.088 A 
HETATM   10  N   UNL     1      61.519  11.277   2.180  1.00  0.00    -0.375 N 
HETATM   11  C   UNL     1      61.852  10.050   1.736  1.00  0.00     0.088 A 
ATOM     12  HN  UNL     1      61.070  11.965   1.577  1.00  0.00     0.164 HD
HETATM   13  C   UNL     1      62.470   9.085   2.519  1.00  0.00     0.029 A 
ENDBRANCH   1   7
BRANCH   3  14
HETATM   14  C   UNL     1      62.571   4.998   6.376  1.00  0.00     0.202 C 
BRANCH  14  15
HETATM   15  O   UNL     1      61.458   4.799   5.515  1.00  0.00    -0.396 OA
HETATM   16  H   UNL     1      61.088   3.916   5.664  1.00  0.00     0.209 HD
ENDBRANCH  14  15
ENDBRANCH   3  14
TORSDOF 3
ENDMDL
