MODEL 1
REMARK VINA RESULT:      -5.5      0.000      0.000
REMARK  3 active torsions:
REMARK  status: ('A' for Active; 'I' for Inactive)
REMARK    1  A    between atoms: C_1  and  C_5 
REMARK    2  A    between atoms: C_6  and  C_12 
REMARK    3  A    between atoms: N_7  and  C_12 
ROOT
HETATM    1  C   UNL     1      63.427   8.377   4.812  1.00  0.00    -0.025 A 
HETATM    2  C   UNL     1      64.791   8.475   5.149  1.00  0.00     0.021 A 
HETATM    3  C   UNL     1      65.407   7.599   6.066  1.00  0.00    -0.032 A 
HETATM    4  C   UNL     1      62.698   7.333   5.408  1.00  0.00     0.012 A 
HETATM    5  C   UNL     1      63.293   6.450   6.316  1.00  0.00     0.001 A 
HETATM    6  C   UNL     1      64.638   6.587   6.648  1.00  0.00     0.009 A 
ENDROOT
BRANCH   1   7
HETATM    7  C   UNL     1      62.788   9.355   3.898  1.00  0.00    -0.023 A 
HETATM    8  C   UNL     1      62.458  10.652   4.316  1.00  0.00     0.029 A 
HETATM    9  C   UNL     1      61.820  11.517   3.434  1.00  0.00     0.088 A 
HETATM   10  N   UNL     1      61.499  11.193   2.167  1.00  0.00    -0.375 N 
HETATM   11  C   UNL     1      61.826   9.950   1.767  1.00  0.00     0.088 A 
ATOM     12  HN  UNL     1      61.033  11.853   1.545  1.00  0.00     0.164 HD
HETATM   13  C   UNL     1      62.453   9.014   2.580  1.00  0.00     0.029 A 
ENDBRANCH   1   7
BRANCH   3  14
HETATM   14  C   UNL     1      66.871   7.756   6.410  1.00  0.00     0.270 C 
BRANCH  14  15
HETATM   15  N   UNL     1      67.233   6.950   7.576  1.00  0.00    -0.075 N 
HETATM   16  C   UNL     1      68.073   5.823   7.201  1.00  0.00     0.267 C 
HETATM   17  H   UNL     1      66.382   6.598   8.015  1.00  0.00     0.277 HD
HETATM   18  H   UNL     1      67.756   7.539   8.225  1.00  0.00     0.277 HD
ENDBRANCH  14  15
ENDBRANCH   3  14
TORSDOF 3
ENDMDL
MODEL 2
REMARK VINA RESULT:      -5.4      1.381      6.218
REMARK  3 active torsions:
REMARK  status: ('A' for Active; 'I' for Inactive)
REMARK    1  A    between atoms: C_1  and  C_5 
REMARK    2  A    between atoms: C_6  and  C_12 
REMARK    3  A    between atoms: N_7  and  C_12 
ROOT
HETATM    1  C   UNL     1      63.491   8.999   4.613  1.00  0.00    -0.025 A 
HETATM    2  C   UNL     1      62.986   8.688   3.336  1.00  0.00     0.021 A 
HETATM    3  C   UNL     1      62.139   9.562   2.626  1.00  0.00    -0.032 A 
HETATM    4  C   UNL     1      63.141  10.250   5.149  1.00  0.00     0.012 A 
HETATM    5  C   UNL     1      62.305  11.135   4.457  1.00  0.00     0.001 A 
HETATM    6  C   UNL     1      61.802  10.790   3.205  1.00  0.00     0.009 A 
ENDROOT
BRANCH   1   7
HETATM    7  C   UNL     1      64.324   8.031   5.368  1.00  0.00    -0.023 A 
HETATM    8  C   UNL     1      63.763   6.922   6.018  1.00  0.00     0.029 A 
HETATM    9  C   UNL     1      64.581   6.068   6.749  1.00  0.00     0.088 A 
HETATM   10  N   UNL     1      65.913   6.228   6.871  1.00  0.00    -0.375 N 
HETATM   11  C   UNL     1      66.448   7.288   6.238  1.00  0.00     0.088 A 
ATOM     12  HN  UNL     1      66.484   5.580   7.414  1.00  0.00     0.164 HD
HETATM   13  C   UNL     1      65.710   8.201   5.495  1.00  0.00     0.029 A 
ENDBRANCH   1   7
BRANCH   3  14
HETATM   14  C   UNL     1      61.606   9.176   1.264  1.00  0.00     0.270 C 
BRANCH  14  15
HETATM   15  N   UNL     1      60.192   8.809   1.329  1.00  0.00    -0.075 N 
HETATM   16  C   UNL     1      59.868   7.776   0.358  1.00  0.00     0.267 C 
HETATM   17  H   UNL     1      59.625   9.635   1.136  1.00  0.00     0.277 HD
HETATM   18  H   UNL     1      59.995   8.447   2.262  1.00  0.00     0.277 HD
ENDBRANCH  14  15
ENDBRANCH   3  14
TORSDOF 3
ENDMDL
MODEL 3
REMARK VINA RESULT:      -5.4      1.329      6.140
REMARK  3 active torsions:
REMARK  status: ('A' for Active; 'I' for Inactive)
REMARK    1  A    between atoms: C_1  and  C_5 
REMARK    2  A    between atoms: C_6  and  C_12 
REMARK    3  A    between atoms: N_7  and  C_12 
ROOT
HETATM    1  C   UNL     1      64.621   7.514   4.408  1.00  0.00    -0.025 A 
HETATM    2  C   UNL     1      63.852   8.684   4.552  1.00  0.00     0.021 A 
HETATM    3  C   UNL     1      62.847   9.044   3.631  1.00  0.00    -0.032 A 
HETATM    4  C   UNL     1      64.322   6.685   3.313  1.00  0.00     0.012 A 
HETATM    5  C   UNL     1      63.324   7.022   2.391  1.00  0.00     0.001 A 
HETATM    6  C   UNL     1      62.595   8.198   2.546  1.00  0.00     0.009 A 
ENDROOT
BRANCH   1   7
HETATM    7  C   UNL     1      65.720   7.195   5.353  1.00  0.00    -0.023 A 
HETATM    8  C   UNL     1      65.491   7.039   6.727  1.00  0.00     0.029 A 
HETATM    9  C   UNL     1      66.561   6.784   7.578  1.00  0.00     0.088 A 
HETATM   10  N   UNL     1      67.836   6.660   7.161  1.00  0.00    -0.375 N 
HETATM   11  C   UNL     1      68.050   6.800   5.840  1.00  0.00     0.088 A 
ATOM     12  HN  UNL     1      68.598   6.469   7.812  1.00  0.00     0.164 HD
HETATM   13  C   UNL     1      67.047   7.068   4.917  1.00  0.00     0.029 A 
ENDBRANCH   1   7
BRANCH   3  14
HETATM   14  C   UNL     1      62.058  10.321   3.817  1.00  0.00     0.270 C 
BRANCH  14  15
HETATM   15  N   UNL     1      61.293  10.655   2.616  1.00  0.00    -0.075 N 
HETATM   16  C   UNL     1      61.753  11.901   2.024  1.00  0.00     0.267 C 
HETATM   17  H   UNL     1      60.308  10.749   2.865  1.00  0.00     0.277 HD
HETATM   18  H   UNL     1      61.421   9.907   1.934  1.00  0.00     0.277 HD
ENDBRANCH  14  15
ENDBRANCH   3  14
TORSDOF 3
ENDMDL
MODEL 4
REMARK VINA RESULT:      -4.9      2.162      3.614
REMARK  3 active torsions:
REMARK  status: ('A' for Active; 'I' for Inactive)
REMARK    1  A    between atoms: C_1  and  C_5 
REMARK    2  A    between atoms: C_6  and  C_12 
REMARK    3  A    between atoms: N_7  and  C_12 
ROOT
HETATM    1  C   UNL     1      63.091   8.335   4.744  1.00  0.00    -0.025 A 
HETATM    2  C   UNL     1      62.270   7.297   5.226  1.00  0.00     0.021 A 
HETATM    3  C   UNL     1      62.765   6.263   6.045  1.00  0.00    -0.032 A 
HETATM    4  C   UNL     1      64.437   8.322   5.147  1.00  0.00     0.012 A 
HETATM    5  C   UNL     1      64.946   7.307   5.965  1.00  0.00     0.001 A 
HETATM    6  C   UNL     1      64.116   6.280   6.406  1.00  0.00     0.009 A 
ENDROOT
BRANCH   1   7
HETATM    7  C   UNL     1      62.560   9.373   3.826  1.00  0.00    -0.023 A 
HETATM    8  C   UNL     1      62.329   9.111   2.468  1.00  0.00     0.029 A 
HETATM    9  C   UNL     1      61.872  10.129   1.639  1.00  0.00     0.088 A 
HETATM   10  N   UNL     1      61.617  11.381   2.063  1.00  0.00    -0.375 N 
HETATM   11  C   UNL     1      61.831  11.627   3.368  1.00  0.00     0.088 A 
ATOM     12  HN  UNL     1      61.279  12.105   1.428  1.00  0.00     0.164 HD
HETATM   13  C   UNL     1      62.297  10.677   4.269  1.00  0.00     0.029 A 
ENDBRANCH   1   7
BRANCH   3  14
HETATM   14  C   UNL     1      61.849   5.158   6.523  1.00  0.00     0.270 C 
BRANCH  14  15
HETATM   15  N   UNL     1      60.474   5.633   6.672  1.00  0.00    -0.075 N 
HETATM   16  C   UNL     1      59.838   5.055   7.845  1.00  0.00     0.267 C 
HETATM   17  H   UNL     1      59.941   5.370   5.842  1.00  0.00     0.277 HD
HETATM   18  H   UNL     1      60.492   6.647   6.782  1.00  0.00     0.277 HD
ENDBRANCH  14  15
ENDBRANCH   3  14
TORSDOF 3
ENDMDL
MODEL 5
REMARK VINA RESULT:      -4.7      1.697      3.003
REMARK  3 active torsions:
REMARK  status: ('A' for Active; 'I' for Inactive)
REMARK    1  A    between atoms: C_1  and  C_5 
REMARK    2  A    between atoms: C_6  and  C_12 
REMARK    3  A    between atoms: N_7  and  C_12 
ROOT
HETATM    1  C   UNL     1      65.409   7.724   5.388  1.00  0.00    -0.025 A 
HETATM    2  C   UNL     1      65.250   6.922   6.534  1.00  0.00     0.021 A 
HETATM    3  C   UNL     1      66.337   6.282   7.163  1.00  0.00    -0.032 A 
HETATM    4  C   UNL     1      66.718   7.895   4.906  1.00  0.00     0.012 A 
HETATM    5  C   UNL     1      67.811   7.272   5.520  1.00  0.00     0.001 A 
HETATM    6  C   UNL     1      67.620   6.466   6.639  1.00  0.00     0.009 A 
ENDROOT
BRANCH   1   7
HETATM    7  C   UNL     1      64.240   8.330   4.704  1.00  0.00    -0.023 A 
HETATM    8  C   UNL     1      63.716   7.792   3.520  1.00  0.00     0.029 A 
HETATM    9  C   UNL     1      62.646   8.421   2.893  1.00  0.00     0.088 A 
HETATM   10  N   UNL     1      62.053   9.535   3.363  1.00  0.00    -0.375 N 
HETATM   11  C   UNL     1      62.553  10.043   4.504  1.00  0.00     0.088 A 
ATOM     12  HN  UNL     1      61.267   9.970   2.879  1.00  0.00     0.164 HD
HETATM   13  C   UNL     1      63.625   9.491   5.194  1.00  0.00     0.029 A 
ENDBRANCH   1   7
BRANCH   3  14
HETATM   14  C   UNL     1      66.115   5.415   8.382  1.00  0.00     0.270 C 
BRANCH  14  15
HETATM   15  N   UNL     1      66.807   4.132   8.258  1.00  0.00    -0.075 N 
HETATM   16  C   UNL     1      66.098   3.232   7.362  1.00  0.00     0.267 C 
HETATM   17  H   UNL     1      66.873   3.700   9.179  1.00  0.00     0.277 HD
HETATM   18  H   UNL     1      67.737   4.304   7.873  1.00  0.00     0.277 HD
ENDBRANCH  14  15
ENDBRANCH   3  14
TORSDOF 3
ENDMDL
MODEL 6
REMARK VINA RESULT:      -4.7      2.170      3.310
REMARK  3 active torsions:
REMARK  status: ('A' for Active; 'I' for Inactive)
REMARK    1  A    between atoms: C_1  and  C_5 
REMARK    2  A    between atoms: C_6  and  C_12 
REMARK    3  A    between atoms: N_7  and  C_12 
ROOT
HETATM    1  C   UNL     1      62.181   8.975   3.539  1.00  0.00    -0.025 A 
HETATM    2  C   UNL     1      63.274   8.306   4.122  1.00  0.00     0.021 A 
HETATM    3  C   UNL     1      64.121   8.924   5.064  1.00  0.00    -0.032 A 
HETATM    4  C   UNL     1      61.940  10.293   3.964  1.00  0.00     0.012 A 
HETATM    5  C   UNL     1      62.767  10.922   4.902  1.00  0.00     0.001 A 
HETATM    6  C   UNL     1      63.855  10.243   5.444  1.00  0.00     0.009 A 
ENDROOT
BRANCH   1   7
HETATM    7  C   UNL     1      61.346   8.325   2.498  1.00  0.00    -0.023 A 
HETATM    8  C   UNL     1      61.520   8.598   1.134  1.00  0.00     0.029 A 
HETATM    9  C   UNL     1      60.684   7.996   0.200  1.00  0.00     0.088 A 
HETATM   10  N   UNL     1      59.700   7.136   0.521  1.00  0.00    -0.375 N 
HETATM   11  C   UNL     1      59.542   6.869   1.831  1.00  0.00     0.088 A 
ATOM     12  HN  UNL     1      59.105   6.709  -0.190  1.00  0.00     0.164 HD
HETATM   13  C   UNL     1      60.320   7.431   2.835  1.00  0.00     0.029 A 
ENDBRANCH   1   7
BRANCH   3  14
HETATM   14  C   UNL     1      65.294   8.171   5.650  1.00  0.00     0.270 C 
BRANCH  14  15
HETATM   15  N   UNL     1      64.870   7.273   6.724  1.00  0.00    -0.075 N 
HETATM   16  C   UNL     1      65.996   6.865   7.549  1.00  0.00     0.267 C 
HETATM   17  H   UNL     1      64.441   6.444   6.313  1.00  0.00     0.277 HD
HETATM   18  H   UNL     1      64.202   7.770   7.314  1.00  0.00     0.277 HD
ENDBRANCH  14  15
ENDBRANCH   3  14
TORSDOF 3
ENDMDL
MODEL 7
REMARK VINA RESULT:      -4.6      3.200      6.310
REMARK  3 active torsions:
REMARK  status: ('A' for Active; 'I' for Inactive)
REMARK    1  A    between atoms: C_1  and  C_5 
REMARK    2  A    between atoms: C_6  and  C_12 
REMARK    3  A    between atoms: N_7  and  C_12 
ROOT
HETATM    1  C   UNL     1      61.565   8.574   2.634  1.00  0.00    -0.025 A 
HETATM    2  C   UNL     1      60.297   8.038   2.930  1.00  0.00     0.021 A 
HETATM    3  C   UNL     1      59.433   7.549   1.929  1.00  0.00    -0.032 A 
HETATM    4  C   UNL     1      61.959   8.572   1.286  1.00  0.00     0.012 A 
HETATM    5  C   UNL     1      61.118   8.086   0.278  1.00  0.00     0.001 A 
HETATM    6  C   UNL     1      59.859   7.583   0.597  1.00  0.00     0.009 A 
ENDROOT
BRANCH   1   7
HETATM    7  C   UNL     1      62.425   9.146   3.699  1.00  0.00    -0.023 A 
HETATM    8  C   UNL     1      63.549   8.464   4.187  1.00  0.00     0.029 A 
HETATM    9  C   UNL     1      64.299   9.022   5.217  1.00  0.00     0.088 A 
HETATM   10  N   UNL     1      64.021  10.210   5.786  1.00  0.00    -0.375 N 
HETATM   11  C   UNL     1      62.947  10.865   5.309  1.00  0.00     0.088 A 
ATOM     12  HN  UNL     1      64.594  10.592   6.539  1.00  0.00     0.164 HD
HETATM   13  C   UNL     1      62.133  10.382   4.292  1.00  0.00     0.029 A 
ENDBRANCH   1   7
BRANCH   3  14
HETATM   14  C   UNL     1      58.072   7.000   2.292  1.00  0.00     0.270 C 
BRANCH  14  15
HETATM   15  N   UNL     1      58.078   6.398   3.625  1.00  0.00    -0.075 N 
HETATM   16  C   UNL     1      57.018   6.943   4.458  1.00  0.00     0.267 C 
HETATM   17  H   UNL     1      58.978   6.583   4.069  1.00  0.00     0.277 HD
HETATM   18  H   UNL     1      57.926   5.394   3.526  1.00  0.00     0.277 HD
ENDBRANCH  14  15
ENDBRANCH   3  14
TORSDOF 3
ENDMDL
MODEL 8
REMARK VINA RESULT:      -4.6      1.907      3.259
REMARK  3 active torsions:
REMARK  status: ('A' for Active; 'I' for Inactive)
REMARK    1  A    between atoms: C_1  and  C_5 
REMARK    2  A    between atoms: C_6  and  C_12 
REMARK    3  A    between atoms: N_7  and  C_12 
ROOT
HETATM    1  C   UNL     1      63.728   8.238   4.839  1.00  0.00    -0.025 A 
HETATM    2  C   UNL     1      63.160   7.004   5.209  1.00  0.00     0.021 A 
HETATM    3  C   UNL     1      63.900   5.999   5.862  1.00  0.00    -0.032 A 
HETATM    4  C   UNL     1      65.074   8.448   5.182  1.00  0.00     0.012 A 
HETATM    5  C   UNL     1      65.825   7.464   5.836  1.00  0.00     0.001 A 
HETATM    6  C   UNL     1      65.243   6.244   6.168  1.00  0.00     0.009 A 
ENDROOT
BRANCH   1   7
HETATM    7  C   UNL     1      62.945   9.252   4.090  1.00  0.00    -0.023 A 
HETATM    8  C   UNL     1      62.532   9.038   2.767  1.00  0.00     0.029 A 
HETATM    9  C   UNL     1      61.838  10.036   2.093  1.00  0.00     0.088 A 
HETATM   10  N   UNL     1      61.515  11.224   2.641  1.00  0.00    -0.375 N 
HETATM   11  C   UNL     1      61.906  11.422   3.913  1.00  0.00     0.088 A 
ATOM     12  HN  UNL     1      61.002  11.934   2.119  1.00  0.00     0.164 HD
HETATM   13  C   UNL     1      62.612  10.489   4.661  1.00  0.00     0.029 A 
ENDBRANCH   1   7
BRANCH   3  14
HETATM   14  C   UNL     1      63.252   4.681   6.223  1.00  0.00     0.270 C 
BRANCH  14  15
HETATM   15  N   UNL     1      61.808   4.717   5.994  1.00  0.00    -0.075 N 
HETATM   16  C   UNL     1      61.087   4.023   7.050  1.00  0.00     0.267 C 
HETATM   17  H   UNL     1      61.602   4.268   5.101  1.00  0.00     0.277 HD
HETATM   18  H   UNL     1      61.507   5.691   5.985  1.00  0.00     0.277 HD
ENDBRANCH  14  15
ENDBRANCH   3  14
TORSDOF 3
ENDMDL
MODEL 9
REMARK VINA RESULT:      -4.5      2.345      2.875
REMARK  3 active torsions:
REMARK  status: ('A' for Active; 'I' for Inactive)
REMARK    1  A    between atoms: C_1  and  C_5 
REMARK    2  A    between atoms: C_6  and  C_12 
REMARK    3  A    between atoms: N_7  and  C_12 
ROOT
HETATM    1  C   UNL     1      65.025   7.864   4.654  1.00  0.00    -0.025 A 
HETATM    2  C   UNL     1      65.459   6.741   3.924  1.00  0.00     0.021 A 
HETATM    3  C   UNL     1      66.641   6.043   4.247  1.00  0.00    -0.032 A 
HETATM    4  C   UNL     1      65.807   8.250   5.756  1.00  0.00     0.012 A 
HETATM    5  C   UNL     1      66.981   7.566   6.095  1.00  0.00     0.001 A 
HETATM    6  C   UNL     1      67.398   6.472   5.341  1.00  0.00     0.009 A 
ENDROOT
BRANCH   1   7
HETATM    7  C   UNL     1      63.815   8.623   4.251  1.00  0.00    -0.023 A 
HETATM    8  C   UNL     1      63.399   9.771   4.940  1.00  0.00     0.029 A 
HETATM    9  C   UNL     1      62.234  10.422   4.551  1.00  0.00     0.088 A 
HETATM   10  N   UNL     1      61.461  10.023   3.522  1.00  0.00    -0.375 N 
HETATM   11  C   UNL     1      61.870   8.926   2.857  1.00  0.00     0.088 A 
ATOM     12  HN  UNL     1      60.613  10.526   3.260  1.00  0.00     0.164 HD
HETATM   13  C   UNL     1      63.012   8.205   3.181  1.00  0.00     0.029 A 
ENDBRANCH   1   7
BRANCH   3  14
HETATM   14  C   UNL     1      67.077   4.852   3.423  1.00  0.00     0.270 C 
BRANCH  14  15
HETATM   15  N   UNL     1      67.157   3.640   4.237  1.00  0.00    -0.075 N 
HETATM   16  C   UNL     1      65.873   2.962   4.306  1.00  0.00     0.267 C 
HETATM   17  H   UNL     1      67.450   3.893   5.181  1.00  0.00     0.277 HD
HETATM   18  H   UNL     1      67.833   3.007   3.808  1.00  0.00     0.277 HD
ENDBRANCH  14  15
ENDBRANCH   3  14
TORSDOF 3
ENDMDL
