MODEL 1
REMARK VINA RESULT:      -5.8      0.000      0.000
REMARK  3 active torsions:
REMARK  status: ('A' for Active; 'I' for Inactive)
REMARK    1  A    between atoms: N_1  and  C_2 
REMARK    2  A    between atoms: C_4  and  C_9 
REMARK    3  A    between atoms: C_9  and  O_11 
ROOT
HETATM    1  C   UNL     1      63.164   9.189   4.079  1.00  0.00     0.038 A 
HETATM    2  C   UNL     1      62.726  10.461   4.538  1.00  0.00    -0.008 A 
HETATM    3  C   UNL     1      62.736   8.814   2.783  1.00  0.00     0.030 A 
HETATM    4  C   UNL     1      61.997  11.311   3.670  1.00  0.00     0.011 A 
HETATM    5  C   UNL     1      61.963   9.644   1.963  1.00  0.00     0.002 A 
HETATM    6  C   UNL     1      61.614  10.906   2.395  1.00  0.00     0.001 A 
ENDROOT
BRANCH   1   7
HETATM    7  N   UNL     1      63.905   8.286   4.851  1.00  0.00    -0.377 N 
HETATM    8  C   UNL     1      65.377   8.202   4.769  1.00  0.00     0.150 C 
HETATM    9  C   UNL     1      65.924   7.884   6.182  1.00  0.00     0.254 C 
HETATM   10  N   UNL     1      65.441   6.571   6.670  1.00  0.00    -0.072 N 
HETATM   11  C   UNL     1      63.961   6.547   6.630  1.00  0.00     0.254 C 
HETATM   12  C   UNL     1      65.915   6.323   8.030  1.00  0.00     0.269 C 
HETATM   13  H   UNL     1      65.807   5.836   6.066  1.00  0.00     0.279 HD
HETATM   14  C   UNL     1      63.351   6.974   5.266  1.00  0.00     0.150 C 
ENDBRANCH   1   7
BRANCH   2  15
HETATM   15  C   UNL     1      62.991  10.972   5.941  1.00  0.00     0.205 C 
BRANCH  15  16
HETATM   16  O   UNL     1      64.340  11.387   6.162  1.00  0.00    -0.396 OA
HETATM   17  H   UNL     1      64.359  12.340   6.343  1.00  0.00     0.209 HD
ENDBRANCH  15  16
ENDBRANCH   2  15
TORSDOF 3
ENDMDL
MODEL 2
REMARK VINA RESULT:      -5.7      0.791      1.459
REMARK  3 active torsions:
REMARK  status: ('A' for Active; 'I' for Inactive)
REMARK    1  A    between atoms: N_1  and  C_2 
REMARK    2  A    between atoms: C_4  and  C_9 
REMARK    3  A    between atoms: C_9  and  O_11 
ROOT
HETATM    1  C   UNL     1      62.982   9.198   4.143  1.00  0.00     0.038 A 
HETATM    2  C   UNL     1      62.632  10.527   4.504  1.00  0.00    -0.008 A 
HETATM    3  C   UNL     1      62.616   8.791   2.838  1.00  0.00     0.030 A 
HETATM    4  C   UNL     1      62.051  11.390   3.542  1.00  0.00     0.011 A 
HETATM    5  C   UNL     1      61.985   9.640   1.920  1.00  0.00     0.002 A 
HETATM    6  C   UNL     1      61.726  10.950   2.263  1.00  0.00     0.001 A 
ENDROOT
BRANCH   1   7
HETATM    7  N   UNL     1      63.577   8.277   5.013  1.00  0.00    -0.377 N 
HETATM    8  C   UNL     1      62.834   7.648   6.124  1.00  0.00     0.150 C 
HETATM    9  C   UNL     1      63.342   6.196   6.288  1.00  0.00     0.254 C 
HETATM   10  N   UNL     1      64.778   6.159   6.651  1.00  0.00    -0.072 N 
HETATM   11  C   UNL     1      65.559   6.910   5.641  1.00  0.00     0.254 C 
HETATM   12  C   UNL     1      65.251   4.778   6.733  1.00  0.00     0.269 C 
HETATM   13  H   UNL     1      64.901   6.594   7.565  1.00  0.00     0.279 HD
HETATM   14  C   UNL     1      65.020   8.338   5.349  1.00  0.00     0.150 C 
ENDBRANCH   1   7
BRANCH   2  15
HETATM   15  C   UNL     1      62.842  11.090   5.896  1.00  0.00     0.205 C 
BRANCH  15  16
HETATM   16  O   UNL     1      64.183  11.505   6.159  1.00  0.00    -0.396 OA
HETATM   17  H   UNL     1      64.801  10.865   5.770  1.00  0.00     0.209 HD
ENDBRANCH  15  16
ENDBRANCH   2  15
TORSDOF 3
ENDMDL
MODEL 3
REMARK VINA RESULT:      -4.9      1.933      2.905
REMARK  3 active torsions:
REMARK  status: ('A' for Active; 'I' for Inactive)
REMARK    1  A    between atoms: N_1  and  C_2 
REMARK    2  A    between atoms: C_4  and  C_9 
REMARK    3  A    between atoms: C_9  and  O_11 
ROOT
HETATM    1  C   UNL     1      62.826   9.157   3.933  1.00  0.00     0.038 A 
HETATM    2  C   UNL     1      62.595   8.737   2.595  1.00  0.00    -0.008 A 
HETATM    3  C   UNL     1      62.494  10.501   4.229  1.00  0.00     0.030 A 
HETATM    4  C   UNL     1      61.967   9.617   1.678  1.00  0.00     0.011 A 
HETATM    5  C   UNL     1      61.931  11.375   3.292  1.00  0.00     0.002 A 
HETATM    6  C   UNL     1      61.641  10.925   2.021  1.00  0.00     0.001 A 
ENDROOT
BRANCH   1   7
HETATM    7  N   UNL     1      63.421   8.358   4.916  1.00  0.00    -0.377 N 
HETATM    8  C   UNL     1      62.640   7.735   6.004  1.00  0.00     0.150 C 
HETATM    9  C   UNL     1      63.262   6.353   6.318  1.00  0.00     0.254 C 
HETATM   10  N   UNL     1      64.656   6.480   6.803  1.00  0.00    -0.072 N 
HETATM   11  C   UNL     1      65.454   7.235   5.809  1.00  0.00     0.254 C 
HETATM   12  C   UNL     1      65.244   5.161   7.028  1.00  0.00     0.269 C 
HETATM   13  H   UNL     1      64.655   6.984   7.689  1.00  0.00     0.279 HD
HETATM   14  C   UNL     1      64.816   8.581   5.367  1.00  0.00     0.150 C 
ENDBRANCH   1   7
BRANCH   2  15
HETATM   15  C   UNL     1      62.999   7.372   2.073  1.00  0.00     0.205 C 
BRANCH  15  16
HETATM   16  O   UNL     1      62.103   6.322   2.440  1.00  0.00    -0.396 OA
HETATM   17  H   UNL     1      61.426   6.671   3.042  1.00  0.00     0.209 HD
ENDBRANCH  15  16
ENDBRANCH   2  15
TORSDOF 3
ENDMDL
MODEL 4
REMARK VINA RESULT:      -4.8      1.602      2.050
REMARK  3 active torsions:
REMARK  status: ('A' for Active; 'I' for Inactive)
REMARK    1  A    between atoms: N_1  and  C_2 
REMARK    2  A    between atoms: C_4  and  C_9 
REMARK    3  A    between atoms: C_9  and  O_11 
ROOT
HETATM    1  C   UNL     1      63.116   7.751   2.838  1.00  0.00     0.038 A 
HETATM    2  C   UNL     1      62.465   9.014   2.825  1.00  0.00    -0.008 A 
HETATM    3  C   UNL     1      63.016   6.987   1.650  1.00  0.00     0.030 A 
HETATM    4  C   UNL     1      61.857   9.482   1.633  1.00  0.00     0.011 A 
HETATM    5  C   UNL     1      62.356   7.441   0.502  1.00  0.00     0.002 A 
HETATM    6  C   UNL     1      61.798   8.702   0.483  1.00  0.00     0.001 A 
ENDROOT
BRANCH   1   7
HETATM    7  N   UNL     1      63.761   7.210   3.956  1.00  0.00    -0.377 N 
HETATM    8  C   UNL     1      65.169   6.767   3.916  1.00  0.00     0.150 C 
HETATM    9  C   UNL     1      65.815   7.078   5.288  1.00  0.00     0.254 C 
HETATM   10  N   UNL     1      65.155   6.328   6.382  1.00  0.00    -0.072 N 
HETATM   11  C   UNL     1      63.704   6.622   6.373  1.00  0.00     0.254 C 
HETATM   12  C   UNL     1      65.737   6.688   7.674  1.00  0.00     0.269 C 
HETATM   13  H   UNL     1      65.299   5.329   6.235  1.00  0.00     0.279 HD
HETATM   14  C   UNL     1      63.024   6.441   4.988  1.00  0.00     0.150 C 
ENDBRANCH   1   7
BRANCH   2  15
HETATM   15  C   UNL     1      62.371   9.911   4.044  1.00  0.00     0.205 C 
BRANCH  15  16
HETATM   16  O   UNL     1      61.373  10.928   3.940  1.00  0.00    -0.396 OA
HETATM   17  H   UNL     1      60.555  10.622   4.365  1.00  0.00     0.209 HD
ENDBRANCH  15  16
ENDBRANCH   2  15
TORSDOF 3
ENDMDL
MODEL 5
REMARK VINA RESULT:      -4.7      1.900      2.595
REMARK  3 active torsions:
REMARK  status: ('A' for Active; 'I' for Inactive)
REMARK    1  A    between atoms: N_1  and  C_2 
REMARK    2  A    between atoms: C_4  and  C_9 
REMARK    3  A    between atoms: C_9  and  O_11 
ROOT
HETATM    1  C   UNL     1      63.648   8.897   4.759  1.00  0.00     0.038 A 
HETATM    2  C   UNL     1      63.077   8.571   3.498  1.00  0.00    -0.008 A 
HETATM    3  C   UNL     1      63.309  10.167   5.285  1.00  0.00     0.030 A 
HETATM    4  C   UNL     1      62.146   9.453   2.896  1.00  0.00     0.011 A 
HETATM    5  C   UNL     1      62.433  11.052   4.645  1.00  0.00     0.002 A 
HETATM    6  C   UNL     1      61.829  10.684   3.461  1.00  0.00     0.001 A 
ENDROOT
BRANCH   1   7
HETATM    7  N   UNL     1      64.560   8.086   5.443  1.00  0.00    -0.377 N 
HETATM    8  C   UNL     1      65.993   8.041   5.090  1.00  0.00     0.150 C 
HETATM    9  C   UNL     1      66.809   7.860   6.393  1.00  0.00     0.254 C 
HETATM   10  N   UNL     1      66.487   6.578   7.063  1.00  0.00    -0.072 N 
HETATM   11  C   UNL     1      65.028   6.504   7.306  1.00  0.00     0.254 C 
HETATM   12  C   UNL     1      67.217   6.460   8.323  1.00  0.00     0.269 C 
HETATM   13  H   UNL     1      66.768   5.806   6.458  1.00  0.00     0.279 HD
HETATM   14  C   UNL     1      64.155   6.796   6.054  1.00  0.00     0.150 C 
ENDBRANCH   1   7
BRANCH   2  15
HETATM   15  C   UNL     1      63.422   7.308   2.734  1.00  0.00     0.205 C 
BRANCH  15  16
HETATM   16  O   UNL     1      62.499   6.237   2.938  1.00  0.00    -0.396 OA
HETATM   17  H   UNL     1      61.706   6.387   2.398  1.00  0.00     0.209 HD
ENDBRANCH  15  16
ENDBRANCH   2  15
TORSDOF 3
ENDMDL
MODEL 6
REMARK VINA RESULT:      -4.1      2.892      4.114
REMARK  3 active torsions:
REMARK  status: ('A' for Active; 'I' for Inactive)
REMARK    1  A    between atoms: N_1  and  C_2 
REMARK    2  A    between atoms: C_4  and  C_9 
REMARK    3  A    between atoms: C_9  and  O_11 
ROOT
HETATM    1  C   UNL     1      62.237   8.605   3.372  1.00  0.00     0.038 A 
HETATM    2  C   UNL     1      62.718   8.754   4.702  1.00  0.00    -0.008 A 
HETATM    3  C   UNL     1      61.811   9.791   2.729  1.00  0.00     0.030 A 
HETATM    4  C   UNL     1      62.844  10.048   5.265  1.00  0.00     0.011 A 
HETATM    5  C   UNL     1      61.885  11.055   3.325  1.00  0.00     0.002 A 
HETATM    6  C   UNL     1      62.429  11.189   4.586  1.00  0.00     0.001 A 
ENDROOT
BRANCH   1   7
HETATM    7  N   UNL     1      62.094   7.374   2.721  1.00  0.00    -0.377 N 
HETATM    8  C   UNL     1      62.874   7.025   1.516  1.00  0.00     0.150 C 
HETATM    9  C   UNL     1      63.195   5.512   1.567  1.00  0.00     0.254 C 
HETATM   10  N   UNL     1      61.961   4.692   1.538  1.00  0.00    -0.072 N 
HETATM   11  C   UNL     1      61.069   5.108   2.644  1.00  0.00     0.254 C 
HETATM   12  C   UNL     1      62.286   3.272   1.656  1.00  0.00     0.269 C 
HETATM   13  H   UNL     1      61.486   4.838   0.648  1.00  0.00     0.279 HD
HETATM   14  C   UNL     1      60.807   6.638   2.713  1.00  0.00     0.150 C 
ENDBRANCH   1   7
BRANCH   2  15
HETATM   15  C   UNL     1      63.105   7.579   5.579  1.00  0.00     0.205 C 
BRANCH  15  16
HETATM   16  O   UNL     1      62.871   7.795   6.972  1.00  0.00    -0.396 OA
HETATM   17  H   UNL     1      63.716   7.964   7.418  1.00  0.00     0.209 HD
ENDBRANCH  15  16
ENDBRANCH   2  15
TORSDOF 3
ENDMDL
MODEL 7
REMARK VINA RESULT:      -4.1     11.232     13.370
REMARK  3 active torsions:
REMARK  status: ('A' for Active; 'I' for Inactive)
REMARK    1  A    between atoms: N_1  and  C_2 
REMARK    2  A    between atoms: C_4  and  C_9 
REMARK    3  A    between atoms: C_9  and  O_11 
ROOT
HETATM    1  C   UNL     1      56.968   2.050  13.048  1.00  0.00     0.038 A 
HETATM    2  C   UNL     1      57.972   2.308  12.075  1.00  0.00    -0.008 A 
HETATM    3  C   UNL     1      57.338   1.190  14.110  1.00  0.00     0.030 A 
HETATM    4  C   UNL     1      59.281   1.799  12.261  1.00  0.00     0.011 A 
HETATM    5  C   UNL     1      58.621   0.646  14.243  1.00  0.00     0.002 A 
HETATM    6  C   UNL     1      59.603   0.972  13.332  1.00  0.00     0.001 A 
ENDROOT
BRANCH   1   7
HETATM    7  N   UNL     1      55.653   2.522  12.966  1.00  0.00    -0.377 N 
HETATM    8  C   UNL     1      54.971   3.157  14.112  1.00  0.00     0.150 C 
HETATM    9  C   UNL     1      54.053   4.278  13.570  1.00  0.00     0.254 C 
HETATM   10  N   UNL     1      52.997   3.736  12.683  1.00  0.00    -0.072 N 
HETATM   11  C   UNL     1      53.625   2.957  11.591  1.00  0.00     0.254 C 
HETATM   12  C   UNL     1      52.185   4.819  12.130  1.00  0.00     0.269 C 
HETATM   13  H   UNL     1      52.387   3.125  13.226  1.00  0.00     0.279 HD
HETATM   14  C   UNL     1      54.650   1.893  12.073  1.00  0.00     0.150 C 
ENDBRANCH   1   7
BRANCH   2  15
HETATM   15  C   UNL     1      57.716   3.108  10.813  1.00  0.00     0.205 C 
BRANCH  15  16
HETATM   16  O   UNL     1      58.600   4.217  10.641  1.00  0.00    -0.396 OA
HETATM   17  H   UNL     1      58.302   4.957  11.194  1.00  0.00     0.209 HD
ENDBRANCH  15  16
ENDBRANCH   2  15
TORSDOF 3
ENDMDL
MODEL 8
REMARK VINA RESULT:      -4.1      1.947      2.078
REMARK  3 active torsions:
REMARK  status: ('A' for Active; 'I' for Inactive)
REMARK    1  A    between atoms: N_1  and  C_2 
REMARK    2  A    between atoms: C_4  and  C_9 
REMARK    3  A    between atoms: C_9  and  O_11 
ROOT
HETATM    1  C   UNL     1      62.932   7.869   3.246  1.00  0.00     0.038 A 
HETATM    2  C   UNL     1      62.717   9.040   4.024  1.00  0.00    -0.008 A 
HETATM    3  C   UNL     1      62.530   7.941   1.891  1.00  0.00     0.030 A 
HETATM    4  C   UNL     1      62.226  10.217   3.405  1.00  0.00     0.011 A 
HETATM    5  C   UNL     1      61.989   9.094   1.312  1.00  0.00     0.002 A 
HETATM    6  C   UNL     1      61.861  10.244   2.063  1.00  0.00     0.001 A 
ENDROOT
BRANCH   1   7
HETATM    7  N   UNL     1      63.430   6.666   3.758  1.00  0.00    -0.377 N 
HETATM    8  C   UNL     1      64.865   6.319   3.703  1.00  0.00     0.150 C 
HETATM    9  C   UNL     1      65.224   5.533   4.986  1.00  0.00     0.254 C 
HETATM   10  N   UNL     1      64.473   4.259   5.073  1.00  0.00    -0.072 N 
HETATM   11  C   UNL     1      63.022   4.538   4.981  1.00  0.00     0.254 C 
HETATM   12  C   UNL     1      64.778   3.568   6.324  1.00  0.00     0.269 C 
HETATM   13  H   UNL     1      64.751   3.656   4.299  1.00  0.00     0.279 HD
HETATM   14  C   UNL     1      62.617   5.426   3.773  1.00  0.00     0.150 C 
ENDBRANCH   1   7
BRANCH   2  15
HETATM   15  C   UNL     1      62.978   9.103   5.516  1.00  0.00     0.205 C 
BRANCH  15  16
HETATM   16  O   UNL     1      63.223  10.423   6.006  1.00  0.00    -0.396 OA
HETATM   17  H   UNL     1      63.471  11.001   5.267  1.00  0.00     0.209 HD
ENDBRANCH  15  16
ENDBRANCH   2  15
TORSDOF 3
ENDMDL
MODEL 9
REMARK VINA RESULT:      -4.0      3.390      4.276
REMARK  3 active torsions:
REMARK  status: ('A' for Active; 'I' for Inactive)
REMARK    1  A    between atoms: N_1  and  C_2 
REMARK    2  A    between atoms: C_4  and  C_9 
REMARK    3  A    between atoms: C_9  and  O_11 
ROOT
HETATM    1  C   UNL     1      61.479   8.491   3.374  1.00  0.00     0.038 A 
HETATM    2  C   UNL     1      61.768   8.348   1.989  1.00  0.00    -0.008 A 
HETATM    3  C   UNL     1      61.577   9.803   3.897  1.00  0.00     0.030 A 
HETATM    4  C   UNL     1      62.027   9.497   1.201  1.00  0.00     0.011 A 
HETATM    5  C   UNL     1      61.896  10.918   3.113  1.00  0.00     0.002 A 
HETATM    6  C   UNL     1      62.095  10.770   1.757  1.00  0.00     0.001 A 
ENDROOT
BRANCH   1   7
HETATM    7  N   UNL     1      61.192   7.424   4.232  1.00  0.00    -0.377 N 
HETATM    8  C   UNL     1      62.252   6.596   4.842  1.00  0.00     0.150 C 
HETATM    9  C   UNL     1      61.795   6.193   6.264  1.00  0.00     0.254 C 
HETATM   10  N   UNL     1      60.565   5.366   6.228  1.00  0.00    -0.072 N 
HETATM   11  C   UNL     1      59.507   6.093   5.490  1.00  0.00     0.254 C 
HETATM   12  C   UNL     1      60.116   5.055   7.583  1.00  0.00     0.269 C 
HETATM   13  H   UNL     1      60.769   4.489   5.750  1.00  0.00     0.279 HD
HETATM   14  C   UNL     1      59.949   6.626   4.099  1.00  0.00     0.150 C 
ENDBRANCH   1   7
BRANCH   2  15
HETATM   15  C   UNL     1      61.826   7.005   1.290  1.00  0.00     0.205 C 
BRANCH  15  16
HETATM   16  O   UNL     1      60.645   6.682   0.553  1.00  0.00    -0.396 OA
HETATM   17  H   UNL     1      59.893   6.613   1.163  1.00  0.00     0.209 HD
ENDBRANCH  15  16
ENDBRANCH   2  15
TORSDOF 3
ENDMDL
