MODEL 1
REMARK VINA RESULT:      -5.3      0.000      0.000
REMARK  1 active torsions:
REMARK  status: ('A' for Active; 'I' for Inactive)
REMARK    1  A    between atoms: N_1  and  C_3 
ROOT
HETATM    1  C   UNL     1      62.153   9.761   3.049  1.00  0.00     0.140 A 
HETATM    2  C   UNL     1      62.819   8.575   3.432  1.00  0.00     0.068 A 
HETATM    3  N   UNL     1      61.983  11.839   4.609  1.00  0.00    -0.190 NA
HETATM    4  C   UNL     1      62.063  10.916   3.904  1.00  0.00     0.120 C 
HETATM    5  N   UNL     1      61.584   9.980   1.823  1.00  0.00    -0.356 N 
ATOM      6  HN  UNL     1      61.107  10.857   1.610  1.00  0.00     0.166 HD
HETATM    7  C   UNL     1      62.884   7.602   2.416  1.00  0.00     0.034 A 
HETATM    8  C   UNL     1      61.677   8.998   0.912  1.00  0.00     0.089 A 
HETATM    9  C   UNL     1      62.320   7.803   1.155  1.00  0.00     0.019 A 
ENDROOT
BRANCH   2  10
HETATM   10  N   UNL     1      63.371   8.301   4.673  1.00  0.00    -0.378 N 
HETATM   11  C   UNL     1      62.611   7.695   5.771  1.00  0.00     0.123 C 
HETATM   12  C   UNL     1      63.357   6.465   6.291  1.00  0.00     0.020 C 
HETATM   13  C   UNL     1      64.807   6.780   6.647  1.00  0.00     0.003 C 
HETATM   14  C   UNL     1      65.522   7.462   5.481  1.00  0.00     0.020 C 
HETATM   15  C   UNL     1      64.748   8.691   5.007  1.00  0.00     0.123 C 
ENDBRANCH   2  10
TORSDOF 1
ENDMDL
MODEL 2
REMARK VINA RESULT:      -5.0      1.544      4.920
REMARK  1 active torsions:
REMARK  status: ('A' for Active; 'I' for Inactive)
REMARK    1  A    between atoms: N_1  and  C_3 
ROOT
HETATM    1  C   UNL     1      63.546   7.284   6.109  1.00  0.00     0.140 A 
HETATM    2  C   UNL     1      63.736   8.063   4.946  1.00  0.00     0.068 A 
HETATM    3  N   UNL     1      61.217   6.347   6.800  1.00  0.00    -0.190 NA
HETATM    4  C   UNL     1      62.262   6.756   6.492  1.00  0.00     0.120 C 
HETATM    5  N   UNL     1      64.542   6.885   6.959  1.00  0.00    -0.356 N 
ATOM      6  HN  UNL     1      64.339   6.330   7.790  1.00  0.00     0.166 HD
HETATM    7  C   UNL     1      65.082   8.395   4.694  1.00  0.00     0.034 A 
HETATM    8  C   UNL     1      65.798   7.254   6.656  1.00  0.00     0.089 A 
HETATM    9  C   UNL     1      66.118   7.994   5.539  1.00  0.00     0.019 A 
ENDROOT
BRANCH   2  10
HETATM   10  N   UNL     1      62.750   8.518   4.085  1.00  0.00    -0.378 N 
HETATM   11  C   UNL     1      61.994   9.753   4.317  1.00  0.00     0.123 C 
HETATM   12  C   UNL     1      62.075  10.643   3.074  1.00  0.00     0.020 C 
HETATM   13  C   UNL     1      61.665   9.898   1.807  1.00  0.00     0.003 C 
HETATM   14  C   UNL     1      62.450   8.595   1.659  1.00  0.00     0.020 C 
HETATM   15  C   UNL     1      62.327   7.736   2.916  1.00  0.00     0.123 C 
ENDBRANCH   2  10
TORSDOF 1
ENDMDL
MODEL 3
REMARK VINA RESULT:      -4.9      1.454      4.421
REMARK  1 active torsions:
REMARK  status: ('A' for Active; 'I' for Inactive)
REMARK    1  A    between atoms: N_1  and  C_3 
ROOT
HETATM    1  C   UNL     1      63.322   9.406   4.531  1.00  0.00     0.140 A 
HETATM    2  C   UNL     1      62.972   8.399   3.604  1.00  0.00     0.068 A 
HETATM    3  N   UNL     1      62.030  11.660   4.706  1.00  0.00    -0.190 NA
HETATM    4  C   UNL     1      62.606  10.650   4.638  1.00  0.00     0.120 C 
HETATM    5  N   UNL     1      64.316   9.300   5.466  1.00  0.00    -0.356 N 
ATOM      6  HN  UNL     1      64.528  10.069   6.103  1.00  0.00     0.166 HD
HETATM    7  C   UNL     1      63.729   7.218   3.729  1.00  0.00     0.034 A 
HETATM    8  C   UNL     1      65.002   8.146   5.513  1.00  0.00     0.089 A 
HETATM    9  C   UNL     1      64.742   7.081   4.679  1.00  0.00     0.019 A 
ENDROOT
BRANCH   2  10
HETATM   10  N   UNL     1      62.001   8.484   2.619  1.00  0.00    -0.378 N 
HETATM   11  C   UNL     1      62.237   9.112   1.315  1.00  0.00     0.123 C 
HETATM   12  C   UNL     1      61.846   8.139   0.201  1.00  0.00     0.020 C 
HETATM   13  C   UNL     1      60.429   7.601   0.378  1.00  0.00     0.003 C 
HETATM   14  C   UNL     1      60.235   7.015   1.776  1.00  0.00     0.020 C 
HETATM   15  C   UNL     1      60.625   8.027   2.853  1.00  0.00     0.123 C 
ENDBRANCH   2  10
TORSDOF 1
ENDMDL
MODEL 4
REMARK VINA RESULT:      -4.7      1.282      2.570
REMARK  1 active torsions:
REMARK  status: ('A' for Active; 'I' for Inactive)
REMARK    1  A    between atoms: N_1  and  C_3 
ROOT
HETATM    1  C   UNL     1      62.661   8.845   2.760  1.00  0.00     0.140 A 
HETATM    2  C   UNL     1      62.863   9.241   4.101  1.00  0.00     0.068 A 
HETATM    3  N   UNL     1      63.187   6.439   1.916  1.00  0.00    -0.190 NA
HETATM    4  C   UNL     1      62.942   7.514   2.290  1.00  0.00     0.120 C 
HETATM    5  N   UNL     1      62.123   9.636   1.781  1.00  0.00    -0.356 N 
ATOM      6  HN  UNL     1      62.012   9.295   0.826  1.00  0.00     0.166 HD
HETATM    7  C   UNL     1      62.431  10.552   4.382  1.00  0.00     0.034 A 
HETATM    8  C   UNL     1      61.748  10.879   2.125  1.00  0.00     0.089 A 
HETATM    9  C   UNL     1      61.871  11.376   3.404  1.00  0.00     0.019 A 
ENDROOT
BRANCH   2  10
HETATM   10  N   UNL     1      63.440   8.485   5.108  1.00  0.00    -0.378 N 
HETATM   11  C   UNL     1      62.658   7.700   6.068  1.00  0.00     0.123 C 
HETATM   12  C   UNL     1      63.162   6.255   6.079  1.00  0.00     0.020 C 
HETATM   13  C   UNL     1      64.670   6.174   6.302  1.00  0.00     0.003 C 
HETATM   14  C   UNL     1      65.419   7.060   5.306  1.00  0.00     0.020 C 
HETATM   15  C   UNL     1      64.891   8.493   5.343  1.00  0.00     0.123 C 
ENDBRANCH   2  10
TORSDOF 1
ENDMDL
MODEL 5
REMARK VINA RESULT:      -4.6      1.620      2.094
REMARK  1 active torsions:
REMARK  status: ('A' for Active; 'I' for Inactive)
REMARK    1  A    between atoms: N_1  and  C_3 
ROOT
HETATM    1  C   UNL     1      63.385   8.807   4.248  1.00  0.00     0.140 A 
HETATM    2  C   UNL     1      64.269   7.713   4.377  1.00  0.00     0.068 A 
HETATM    3  N   UNL     1      63.355  10.790   5.935  1.00  0.00    -0.190 NA
HETATM    4  C   UNL     1      63.370   9.911   5.173  1.00  0.00     0.120 C 
HETATM    5  N   UNL     1      62.502   8.986   3.217  1.00  0.00    -0.356 N 
ATOM      6  HN  UNL     1      61.881   9.795   3.185  1.00  0.00     0.166 HD
HETATM    7  C   UNL     1      64.197   6.791   3.314  1.00  0.00     0.034 A 
HETATM    8  C   UNL     1      62.485   8.056   2.248  1.00  0.00     0.089 A 
HETATM    9  C   UNL     1      63.312   6.954   2.247  1.00  0.00     0.019 A 
ENDROOT
BRANCH   2  10
HETATM   10  N   UNL     1      65.146   7.478   5.424  1.00  0.00    -0.378 N 
HETATM   11  C   UNL     1      64.754   6.788   6.657  1.00  0.00     0.123 C 
HETATM   12  C   UNL     1      65.716   5.628   6.922  1.00  0.00     0.020 C 
HETATM   13  C   UNL     1      67.175   6.077   6.905  1.00  0.00     0.003 C 
HETATM   14  C   UNL     1      67.499   6.839   5.620  1.00  0.00     0.020 C 
HETATM   15  C   UNL     1      66.521   7.993   5.407  1.00  0.00     0.123 C 
ENDBRANCH   2  10
TORSDOF 1
ENDMDL
MODEL 6
REMARK VINA RESULT:      -4.5      1.228      2.991
REMARK  1 active torsions:
REMARK  status: ('A' for Active; 'I' for Inactive)
REMARK    1  A    between atoms: N_1  and  C_3 
ROOT
HETATM    1  C   UNL     1      62.176   9.346   2.315  1.00  0.00     0.140 A 
HETATM    2  C   UNL     1      62.524   9.133   3.668  1.00  0.00     0.068 A 
HETATM    3  N   UNL     1      62.114   7.418   0.565  1.00  0.00    -0.190 NA
HETATM    4  C   UNL     1      62.131   8.283   1.345  1.00  0.00     0.120 C 
HETATM    5  N   UNL     1      61.782  10.545   1.784  1.00  0.00    -0.356 N 
ATOM      6  HN  UNL     1      61.553  10.636   0.795  1.00  0.00     0.166 HD
HETATM    7  C   UNL     1      62.407  10.282   4.475  1.00  0.00     0.034 A 
HETATM    8  C   UNL     1      61.708  11.596   2.618  1.00  0.00     0.089 A 
HETATM    9  C   UNL     1      61.999  11.514   3.962  1.00  0.00     0.019 A 
ENDROOT
BRANCH   2  10
HETATM   10  N   UNL     1      62.965   7.947   4.231  1.00  0.00    -0.378 N 
HETATM   11  C   UNL     1      64.359   7.497   4.160  1.00  0.00     0.123 C 
HETATM   12  C   UNL     1      64.865   7.179   5.569  1.00  0.00     0.020 C 
HETATM   13  C   UNL     1      63.943   6.213   6.307  1.00  0.00     0.003 C 
HETATM   14  C   UNL     1      62.499   6.714   6.292  1.00  0.00     0.020 C 
HETATM   15  C   UNL     1      62.035   7.003   4.865  1.00  0.00     0.123 C 
ENDBRANCH   2  10
TORSDOF 1
ENDMDL
MODEL 7
REMARK VINA RESULT:      -4.4      1.836      4.907
REMARK  1 active torsions:
REMARK  status: ('A' for Active; 'I' for Inactive)
REMARK    1  A    between atoms: N_1  and  C_3 
ROOT
HETATM    1  C   UNL     1      64.047   7.210   6.133  1.00  0.00     0.140 A 
HETATM    2  C   UNL     1      64.431   7.718   4.872  1.00  0.00     0.068 A 
HETATM    3  N   UNL     1      61.601   6.493   6.668  1.00  0.00    -0.190 NA
HETATM    4  C   UNL     1      62.698   6.803   6.432  1.00  0.00     0.120 C 
HETATM    5  N   UNL     1      64.899   6.980   7.180  1.00  0.00    -0.356 N 
ATOM      6  HN  UNL     1      64.558   6.620   8.071  1.00  0.00     0.166 HD
HETATM    7  C   UNL     1      65.814   7.959   4.750  1.00  0.00     0.034 A 
HETATM    8  C   UNL     1      66.201   7.247   6.989  1.00  0.00     0.089 A 
HETATM    9  C   UNL     1      66.705   7.726   5.799  1.00  0.00     0.019 A 
ENDROOT
BRANCH   2  10
HETATM   10  N   UNL     1      63.594   8.001   3.805  1.00  0.00    -0.378 N 
HETATM   11  C   UNL     1      63.441   7.110   2.650  1.00  0.00     0.123 C 
HETATM   12  C   UNL     1      61.957   6.811   2.428  1.00  0.00     0.020 C 
HETATM   13  C   UNL     1      61.122   8.085   2.339  1.00  0.00     0.003 C 
HETATM   14  C   UNL     1      61.373   8.992   3.543  1.00  0.00     0.020 C 
HETATM   15  C   UNL     1      62.865   9.273   3.714  1.00  0.00     0.123 C 
ENDBRANCH   2  10
TORSDOF 1
ENDMDL
MODEL 8
REMARK VINA RESULT:      -4.2      2.298      4.758
REMARK  1 active torsions:
REMARK  status: ('A' for Active; 'I' for Inactive)
REMARK    1  A    between atoms: N_1  and  C_3 
ROOT
HETATM    1  C   UNL     1      60.400   6.900   4.381  1.00  0.00     0.140 A 
HETATM    2  C   UNL     1      61.699   7.453   4.410  1.00  0.00     0.068 A 
HETATM    3  N   UNL     1      58.647   7.539   2.564  1.00  0.00    -0.190 NA
HETATM    4  C   UNL     1      59.429   7.242   3.374  1.00  0.00     0.120 C 
HETATM    5  N   UNL     1      59.934   5.942   5.241  1.00  0.00    -0.356 N 
ATOM      6  HN  UNL     1      58.980   5.588   5.174  1.00  0.00     0.166 HD
HETATM    7  C   UNL     1      62.529   6.911   5.412  1.00  0.00     0.034 A 
HETATM    8  C   UNL     1      60.783   5.485   6.177  1.00  0.00     0.089 A 
HETATM    9  C   UNL     1      62.082   5.927   6.296  1.00  0.00     0.019 A 
ENDROOT
BRANCH   2  10
HETATM   10  N   UNL     1      62.192   8.450   3.584  1.00  0.00    -0.378 N 
HETATM   11  C   UNL     1      62.522   8.229   2.172  1.00  0.00     0.123 C 
HETATM   12  C   UNL     1      61.803   9.270   1.311  1.00  0.00     0.020 C 
HETATM   13  C   UNL     1      62.068  10.694   1.790  1.00  0.00     0.003 C 
HETATM   14  C   UNL     1      61.760  10.838   3.281  1.00  0.00     0.020 C 
HETATM   15  C   UNL     1      62.511   9.789   4.098  1.00  0.00     0.123 C 
ENDBRANCH   2  10
TORSDOF 1
ENDMDL
MODEL 9
REMARK VINA RESULT:      -4.1      2.630      4.471
REMARK  1 active torsions:
REMARK  status: ('A' for Active; 'I' for Inactive)
REMARK    1  A    between atoms: N_1  and  C_3 
ROOT
HETATM    1  C   UNL     1      63.685   6.547   5.629  1.00  0.00     0.140 A 
HETATM    2  C   UNL     1      64.854   7.340   5.621  1.00  0.00     0.068 A 
HETATM    3  N   UNL     1      63.603   4.184   6.719  1.00  0.00    -0.190 NA
HETATM    4  C   UNL     1      63.631   5.244   6.238  1.00  0.00     0.120 C 
HETATM    5  N   UNL     1      62.469   6.936   5.132  1.00  0.00    -0.356 N 
ATOM      6  HN  UNL     1      61.663   6.312   5.159  1.00  0.00     0.166 HD
HETATM    7  C   UNL     1      64.671   8.623   5.068  1.00  0.00     0.034 A 
HETATM    8  C   UNL     1      62.380   8.170   4.610  1.00  0.00     0.089 A 
HETATM    9  C   UNL     1      63.441   9.048   4.563  1.00  0.00     0.019 A 
ENDROOT
BRANCH   2  10
HETATM   10  N   UNL     1      66.109   6.968   6.076  1.00  0.00    -0.378 N 
HETATM   11  C   UNL     1      66.623   7.339   7.398  1.00  0.00     0.123 C 
HETATM   12  C   UNL     1      67.095   6.083   8.134  1.00  0.00     0.020 C 
HETATM   13  C   UNL     1      68.075   5.262   7.300  1.00  0.00     0.003 C 
HETATM   14  C   UNL     1      67.499   4.961   5.916  1.00  0.00     0.020 C 
HETATM   15  C   UNL     1      67.056   6.245   5.217  1.00  0.00     0.123 C 
ENDBRANCH   2  10
TORSDOF 1
ENDMDL
