MODEL 1
REMARK VINA RESULT:      -5.3      0.000      0.000
REMARK  3 active torsions:
REMARK  status: ('A' for Active; 'I' for Inactive)
REMARK    1  A    between atoms: C_1  and  N_4 
REMARK    2  A    between atoms: C_5  and  C_11 
REMARK    3  A    between atoms: N_6  and  C_11 
ROOT
HETATM    1  C   UNL     1      64.910   7.680   5.181  1.00  0.00     0.103 A 
HETATM    2  N   UNL     1      64.409   8.854   5.622  1.00  0.00    -0.344 N 
ATOM      3  HN  UNL     1      64.762   9.279   6.480  1.00  0.00     0.167 HD
HETATM    4  C   UNL     1      63.428   9.461   4.905  1.00  0.00     0.036 A 
HETATM    5  C   UNL     1      64.433   7.099   4.004  1.00  0.00     0.048 A 
HETATM    6  C   UNL     1      63.449   7.736   3.256  1.00  0.00     0.006 A 
HETATM    7  C   UNL     1      62.935   8.939   3.711  1.00  0.00     0.027 A 
ENDROOT
BRANCH   1   8
HETATM    8  N   UNL     1      65.989   7.101   5.831  1.00  0.00    -0.367 N 
HETATM    9  C   UNL     1      66.935   6.333   5.028  1.00  0.00     0.124 C 
HETATM   10  C   UNL     1      67.488   5.220   5.926  1.00  0.00     0.020 C 
HETATM   11  C   UNL     1      68.074   5.773   7.230  1.00  0.00     0.003 C 
HETATM   12  C   UNL     1      67.108   6.731   7.933  1.00  0.00     0.020 C 
HETATM   13  C   UNL     1      66.583   7.797   6.970  1.00  0.00     0.124 C 
ENDBRANCH   1   8
BRANCH   4  14
HETATM   14  C   UNL     1      62.899  10.780   5.426  1.00  0.00     0.286 C 
BRANCH  14  15
HETATM   15  N   UNL     1      63.836  11.450   6.333  1.00  0.00    -0.074 N 
HETATM   16  H   UNL     1      63.923  12.432   6.068  1.00  0.00     0.274 HD
HETATM   17  H   UNL     1      64.749  11.000   6.272  1.00  0.00     0.274 HD
HETATM   18  H   UNL     1      63.489  11.386   7.290  1.00  0.00     0.274 HD
ENDBRANCH  14  15
ENDBRANCH   4  14
TORSDOF 3
ENDMDL
MODEL 2
REMARK VINA RESULT:      -5.2      0.675      1.413
REMARK  3 active torsions:
REMARK  status: ('A' for Active; 'I' for Inactive)
REMARK    1  A    between atoms: C_1  and  N_4 
REMARK    2  A    between atoms: C_5  and  C_11 
REMARK    3  A    between atoms: N_6  and  C_11 
ROOT
HETATM    1  C   UNL     1      64.514   7.887   5.115  1.00  0.00     0.103 A 
HETATM    2  N   UNL     1      64.118   9.082   5.604  1.00  0.00    -0.344 N 
ATOM      3  HN  UNL     1      64.514   9.443   6.472  1.00  0.00     0.167 HD
HETATM    4  C   UNL     1      63.183   9.794   4.924  1.00  0.00     0.036 A 
HETATM    5  C   UNL     1      63.978   7.391   3.924  1.00  0.00     0.048 A 
HETATM    6  C   UNL     1      63.043   8.135   3.213  1.00  0.00     0.006 A 
HETATM    7  C   UNL     1      62.636   9.359   3.719  1.00  0.00     0.027 A 
ENDROOT
BRANCH   1   8
HETATM    8  N   UNL     1      65.548   7.197   5.729  1.00  0.00    -0.367 N 
HETATM    9  C   UNL     1      65.321   6.692   7.080  1.00  0.00     0.124 C 
HETATM   10  C   UNL     1      66.673   6.716   7.802  1.00  0.00     0.020 C 
HETATM   11  C   UNL     1      67.753   5.959   7.022  1.00  0.00     0.003 C 
HETATM   12  C   UNL     1      67.813   6.393   5.554  1.00  0.00     0.020 C 
HETATM   13  C   UNL     1      66.426   6.365   4.910  1.00  0.00     0.124 C 
ENDBRANCH   1   8
BRANCH   4  14
HETATM   14  C   UNL     1      62.771  11.131   5.499  1.00  0.00     0.286 C 
BRANCH  14  15
HETATM   15  N   UNL     1      63.740  11.657   6.466  1.00  0.00    -0.074 N 
HETATM   16  H   UNL     1      63.304  12.398   7.016  1.00  0.00     0.274 HD
HETATM   17  H   UNL     1      64.547  12.034   5.969  1.00  0.00     0.274 HD
HETATM   18  H   UNL     1      64.044  10.907   7.086  1.00  0.00     0.274 HD
ENDBRANCH  14  15
ENDBRANCH   4  14
TORSDOF 3
ENDMDL
MODEL 3
REMARK VINA RESULT:      -4.9      2.008      5.387
REMARK  3 active torsions:
REMARK  status: ('A' for Active; 'I' for Inactive)
REMARK    1  A    between atoms: C_1  and  N_4 
REMARK    2  A    between atoms: C_5  and  C_11 
REMARK    3  A    between atoms: N_6  and  C_11 
ROOT
HETATM    1  C   UNL     1      63.383   8.181   4.537  1.00  0.00     0.103 A 
HETATM    2  N   UNL     1      64.698   8.368   4.786  1.00  0.00    -0.344 N 
ATOM      3  HN  UNL     1      65.236   9.045   4.244  1.00  0.00     0.167 HD
HETATM    4  C   UNL     1      65.292   7.642   5.767  1.00  0.00     0.036 A 
HETATM    5  C   UNL     1      62.642   7.259   5.280  1.00  0.00     0.048 A 
HETATM    6  C   UNL     1      63.245   6.536   6.304  1.00  0.00     0.006 A 
HETATM    7  C   UNL     1      64.594   6.729   6.555  1.00  0.00     0.027 A 
ENDROOT
BRANCH   1   8
HETATM    8  N   UNL     1      62.730   8.991   3.621  1.00  0.00    -0.367 N 
HETATM    9  C   UNL     1      62.229   8.369   2.399  1.00  0.00     0.124 C 
HETATM   10  C   UNL     1      62.301   9.428   1.293  1.00  0.00     0.020 C 
HETATM   11  C   UNL     1      61.572  10.718   1.687  1.00  0.00     0.003 C 
HETATM   12  C   UNL     1      61.997  11.219   3.070  1.00  0.00     0.020 C 
HETATM   13  C   UNL     1      61.921  10.103   4.113  1.00  0.00     0.124 C 
ENDBRANCH   1   8
BRANCH   4  14
HETATM   14  C   UNL     1      66.763   7.887   6.022  1.00  0.00     0.286 C 
BRANCH  14  15
HETATM   15  N   UNL     1      67.008   8.635   7.259  1.00  0.00    -0.074 N 
HETATM   16  H   UNL     1      66.284   8.409   7.942  1.00  0.00     0.274 HD
HETATM   17  H   UNL     1      66.988   9.635   7.061  1.00  0.00     0.274 HD
HETATM   18  H   UNL     1      67.921   8.382   7.635  1.00  0.00     0.274 HD
ENDBRANCH  14  15
ENDBRANCH   4  14
TORSDOF 3
ENDMDL
MODEL 4
REMARK VINA RESULT:      -4.9      1.418      5.123
REMARK  3 active torsions:
REMARK  status: ('A' for Active; 'I' for Inactive)
REMARK    1  A    between atoms: C_1  and  N_4 
REMARK    2  A    between atoms: C_5  and  C_11 
REMARK    3  A    between atoms: N_6  and  C_11 
ROOT
HETATM    1  C   UNL     1      65.223   7.930   5.292  1.00  0.00     0.103 A 
HETATM    2  N   UNL     1      65.172   7.510   6.574  1.00  0.00    -0.344 N 
ATOM      3  HN  UNL     1      64.318   7.620   7.122  1.00  0.00     0.167 HD
HETATM    4  C   UNL     1      66.275   6.940   7.124  1.00  0.00     0.036 A 
HETATM    5  C   UNL     1      66.388   7.777   4.538  1.00  0.00     0.048 A 
HETATM    6  C   UNL     1      67.508   7.167   5.092  1.00  0.00     0.006 A 
HETATM    7  C   UNL     1      67.453   6.738   6.409  1.00  0.00     0.027 A 
ENDROOT
BRANCH   1   8
HETATM    8  N   UNL     1      64.077   8.410   4.675  1.00  0.00    -0.367 N 
HETATM    9  C   UNL     1      63.437   7.561   3.676  1.00  0.00     0.124 C 
HETATM   10  C   UNL     1      62.788   8.491   2.644  1.00  0.00     0.020 C 
HETATM   11  C   UNL     1      61.848   9.508   3.300  1.00  0.00     0.003 C 
HETATM   12  C   UNL     1      62.514  10.232   4.474  1.00  0.00     0.020 C 
HETATM   13  C   UNL     1      63.156   9.241   5.446  1.00  0.00     0.124 C 
ENDBRANCH   1   8
BRANCH   4  14
HETATM   14  C   UNL     1      66.176   6.473   8.560  1.00  0.00     0.286 C 
BRANCH  14  15
HETATM   15  N   UNL     1      66.237   5.013   8.688  1.00  0.00    -0.074 N 
HETATM   16  H   UNL     1      67.195   4.698   8.529  1.00  0.00     0.274 HD
HETATM   17  H   UNL     1      65.619   4.585   7.999  1.00  0.00     0.274 HD
HETATM   18  H   UNL     1      65.942   4.741   9.626  1.00  0.00     0.274 HD
ENDBRANCH  14  15
ENDBRANCH   4  14
TORSDOF 3
ENDMDL
MODEL 5
REMARK VINA RESULT:      -4.7      2.338      3.395
REMARK  3 active torsions:
REMARK  status: ('A' for Active; 'I' for Inactive)
REMARK    1  A    between atoms: C_1  and  N_4 
REMARK    2  A    between atoms: C_5  and  C_11 
REMARK    3  A    between atoms: N_6  and  C_11 
ROOT
HETATM    1  C   UNL     1      63.427   8.931   4.573  1.00  0.00     0.103 A 
HETATM    2  N   UNL     1      62.978   8.671   3.326  1.00  0.00    -0.344 N 
ATOM      3  HN  UNL     1      63.197   7.785   2.871  1.00  0.00     0.167 HD
HETATM    4  C   UNL     1      62.232   9.608   2.687  1.00  0.00     0.036 A 
HETATM    5  C   UNL     1      63.125  10.141   5.201  1.00  0.00     0.048 A 
HETATM    6  C   UNL     1      62.335  11.088   4.558  1.00  0.00     0.006 A 
HETATM    7  C   UNL     1      61.878  10.820   3.277  1.00  0.00     0.027 A 
ENDROOT
BRANCH   1   8
HETATM    8  N   UNL     1      64.092   7.946   5.287  1.00  0.00    -0.367 N 
HETATM    9  C   UNL     1      65.491   8.182   5.630  1.00  0.00     0.124 C 
HETATM   10  C   UNL     1      66.185   6.815   5.655  1.00  0.00     0.020 C 
HETATM   11  C   UNL     1      65.469   5.826   6.581  1.00  0.00     0.003 C 
HETATM   12  C   UNL     1      63.964   5.766   6.305  1.00  0.00     0.020 C 
HETATM   13  C   UNL     1      63.349   7.166   6.273  1.00  0.00     0.124 C 
ENDBRANCH   1   8
BRANCH   4  14
HETATM   14  C   UNL     1      61.739   9.277   1.295  1.00  0.00     0.286 C 
BRANCH  14  15
HETATM   15  N   UNL     1      60.348   8.816   1.279  1.00  0.00    -0.074 N 
HETATM   16  H   UNL     1      59.793   9.389   1.916  1.00  0.00     0.274 HD
HETATM   17  H   UNL     1      60.308   7.841   1.577  1.00  0.00     0.274 HD
HETATM   18  H   UNL     1      59.972   8.898   0.335  1.00  0.00     0.274 HD
ENDBRANCH  14  15
ENDBRANCH   4  14
TORSDOF 3
ENDMDL
MODEL 6
REMARK VINA RESULT:      -4.6      1.629      1.730
REMARK  3 active torsions:
REMARK  status: ('A' for Active; 'I' for Inactive)
REMARK    1  A    between atoms: C_1  and  N_4 
REMARK    2  A    between atoms: C_5  and  C_11 
REMARK    3  A    between atoms: N_6  and  C_11 
ROOT
HETATM    1  C   UNL     1      64.317   7.671   4.419  1.00  0.00     0.103 A 
HETATM    2  N   UNL     1      63.715   8.863   4.619  1.00  0.00    -0.344 N 
ATOM      3  HN  UNL     1      63.946   9.429   5.435  1.00  0.00     0.167 HD
HETATM    4  C   UNL     1      62.796   9.295   3.718  1.00  0.00     0.036 A 
HETATM    5  C   UNL     1      64.008   6.894   3.300  1.00  0.00     0.048 A 
HETATM    6  C   UNL     1      63.088   7.351   2.362  1.00  0.00     0.006 A 
HETATM    7  C   UNL     1      62.469   8.573   2.571  1.00  0.00     0.027 A 
ENDROOT
BRANCH   1   8
HETATM    8  N   UNL     1      65.340   7.263   5.262  1.00  0.00    -0.367 N 
HETATM    9  C   UNL     1      66.632   7.929   5.136  1.00  0.00     0.124 C 
HETATM   10  C   UNL     1      67.707   6.897   5.498  1.00  0.00     0.020 C 
HETATM   11  C   UNL     1      67.456   6.266   6.872  1.00  0.00     0.003 C 
HETATM   12  C   UNL     1      66.019   5.759   7.018  1.00  0.00     0.020 C 
HETATM   13  C   UNL     1      65.007   6.834   6.618  1.00  0.00     0.124 C 
ENDBRANCH   1   8
BRANCH   4  14
HETATM   14  C   UNL     1      62.149  10.639   3.972  1.00  0.00     0.286 C 
BRANCH  14  15
HETATM   15  N   UNL     1      61.623  11.256   2.750  1.00  0.00    -0.074 N 
HETATM   16  H   UNL     1      60.742  10.809   2.495  1.00  0.00     0.274 HD
HETATM   17  H   UNL     1      62.295  11.137   1.992  1.00  0.00     0.274 HD
HETATM   18  H   UNL     1      61.465  12.250   2.911  1.00  0.00     0.274 HD
ENDBRANCH  14  15
ENDBRANCH   4  14
TORSDOF 3
ENDMDL
MODEL 7
REMARK VINA RESULT:      -4.6      1.802      5.176
REMARK  3 active torsions:
REMARK  status: ('A' for Active; 'I' for Inactive)
REMARK    1  A    between atoms: C_1  and  N_4 
REMARK    2  A    between atoms: C_5  and  C_11 
REMARK    3  A    between atoms: N_6  and  C_11 
ROOT
HETATM    1  C   UNL     1      63.889   7.416   5.430  1.00  0.00     0.103 A 
HETATM    2  N   UNL     1      64.742   7.540   6.469  1.00  0.00    -0.344 N 
ATOM      3  HN  UNL     1      65.050   8.462   6.779  1.00  0.00     0.167 HD
HETATM    4  C   UNL     1      65.185   6.419   7.094  1.00  0.00     0.036 A 
HETATM    5  C   UNL     1      63.460   6.157   5.005  1.00  0.00     0.048 A 
HETATM    6  C   UNL     1      63.891   5.010   5.664  1.00  0.00     0.006 A 
HETATM    7  C   UNL     1      64.769   5.140   6.729  1.00  0.00     0.027 A 
ENDROOT
BRANCH   1   8
HETATM    8  N   UNL     1      63.335   8.548   4.851  1.00  0.00    -0.367 N 
HETATM    9  C   UNL     1      63.846   9.848   5.275  1.00  0.00     0.124 C 
HETATM   10  C   UNL     1      62.683  10.842   5.179  1.00  0.00     0.020 C 
HETATM   11  C   UNL     1      62.043  10.842   3.786  1.00  0.00     0.003 C 
HETATM   12  C   UNL     1      61.705   9.427   3.309  1.00  0.00     0.020 C 
HETATM   13  C   UNL     1      62.906   8.490   3.456  1.00  0.00     0.124 C 
ENDBRANCH   1   8
BRANCH   4  14
HETATM   14  C   UNL     1      66.133   6.598   8.259  1.00  0.00     0.286 C 
BRANCH  14  15
HETATM   15  N   UNL     1      67.238   7.514   7.957  1.00  0.00    -0.074 N 
HETATM   16  H   UNL     1      67.460   7.461   6.963  1.00  0.00     0.274 HD
HETATM   17  H   UNL     1      68.058   7.249   8.503  1.00  0.00     0.274 HD
HETATM   18  H   UNL     1      66.965   8.467   8.194  1.00  0.00     0.274 HD
ENDBRANCH  14  15
ENDBRANCH   4  14
TORSDOF 3
ENDMDL
MODEL 8
REMARK VINA RESULT:      -4.5      1.968      2.353
REMARK  3 active torsions:
REMARK  status: ('A' for Active; 'I' for Inactive)
REMARK    1  A    between atoms: C_1  and  N_4 
REMARK    2  A    between atoms: C_5  and  C_11 
REMARK    3  A    between atoms: N_6  and  C_11 
ROOT
HETATM    1  C   UNL     1      63.346   8.054   5.070  1.00  0.00     0.103 A 
HETATM    2  N   UNL     1      63.187   9.348   4.718  1.00  0.00    -0.344 N 
ATOM      3  HN  UNL     1      63.866  10.052   5.009  1.00  0.00     0.167 HD
HETATM    4  C   UNL     1      62.109   9.698   3.970  1.00  0.00     0.036 A 
HETATM    5  C   UNL     1      62.422   7.087   4.668  1.00  0.00     0.048 A 
HETATM    6  C   UNL     1      61.334   7.442   3.878  1.00  0.00     0.006 A 
HETATM    7  C   UNL     1      61.172   8.771   3.520  1.00  0.00     0.027 A 
ENDROOT
BRANCH   1   8
HETATM    8  N   UNL     1      64.496   7.655   5.733  1.00  0.00    -0.367 N 
HETATM    9  C   UNL     1      64.502   6.332   6.350  1.00  0.00     0.124 C 
HETATM   10  C   UNL     1      65.404   6.416   7.587  1.00  0.00     0.020 C 
HETATM   11  C   UNL     1      66.797   6.955   7.245  1.00  0.00     0.003 C 
HETATM   12  C   UNL     1      66.728   8.246   6.424  1.00  0.00     0.020 C 
HETATM   13  C   UNL     1      65.794   8.092   5.223  1.00  0.00     0.124 C 
ENDBRANCH   1   8
BRANCH   4  14
HETATM   14  C   UNL     1      61.970  11.156   3.588  1.00  0.00     0.286 C 
BRANCH  14  15
HETATM   15  N   UNL     1      61.521  11.340   2.204  1.00  0.00    -0.074 N 
HETATM   16  H   UNL     1      61.146  10.460   1.848  1.00  0.00     0.274 HD
HETATM   17  H   UNL     1      62.309  11.631   1.626  1.00  0.00     0.274 HD
HETATM   18  H   UNL     1      60.795  12.055   2.173  1.00  0.00     0.274 HD
ENDBRANCH  14  15
ENDBRANCH   4  14
TORSDOF 3
ENDMDL
MODEL 9
REMARK VINA RESULT:      -4.4      2.251      3.075
REMARK  3 active torsions:
REMARK  status: ('A' for Active; 'I' for Inactive)
REMARK    1  A    between atoms: C_1  and  N_4 
REMARK    2  A    between atoms: C_5  and  C_11 
REMARK    3  A    between atoms: N_6  and  C_11 
ROOT
HETATM    1  C   UNL     1      63.293   7.821   3.261  1.00  0.00     0.103 A 
HETATM    2  N   UNL     1      62.916   9.082   3.563  1.00  0.00    -0.344 N 
ATOM      3  HN  UNL     1      63.156   9.493   4.465  1.00  0.00     0.167 HD
HETATM    4  C   UNL     1      62.210   9.794   2.647  1.00  0.00     0.036 A 
HETATM    5  C   UNL     1      62.970   7.257   2.025  1.00  0.00     0.048 A 
HETATM    6  C   UNL     1      62.272   7.997   1.077  1.00  0.00     0.006 A 
HETATM    7  C   UNL     1      61.884   9.290   1.390  1.00  0.00     0.027 A 
ENDROOT
BRANCH   1   8
HETATM    8  N   UNL     1      64.111   7.117   4.132  1.00  0.00    -0.367 N 
HETATM    9  C   UNL     1      63.487   6.481   5.287  1.00  0.00     0.124 C 
HETATM   10  C   UNL     1      64.521   6.490   6.420  1.00  0.00     0.020 C 
HETATM   11  C   UNL     1      65.846   5.851   5.990  1.00  0.00     0.003 C 
HETATM   12  C   UNL     1      66.356   6.422   4.664  1.00  0.00     0.020 C 
HETATM   13  C   UNL     1      65.264   6.400   3.593  1.00  0.00     0.124 C 
ENDBRANCH   1   8
BRANCH   4  14
HETATM   14  C   UNL     1      61.813  11.206   3.018  1.00  0.00     0.286 C 
BRANCH  14  15
HETATM   15  N   UNL     1      61.752  12.102   1.859  1.00  0.00    -0.074 N 
HETATM   16  H   UNL     1      61.625  13.063   2.178  1.00  0.00     0.274 HD
HETATM   17  H   UNL     1      60.969  11.836   1.263  1.00  0.00     0.274 HD
HETATM   18  H   UNL     1      62.621  12.033   1.329  1.00  0.00     0.274 HD
ENDBRANCH  14  15
ENDBRANCH   4  14
TORSDOF 3
ENDMDL
