MODEL 1
REMARK VINA RESULT:      -5.1      0.000      0.000
REMARK  3 active torsions:
REMARK  status: ('A' for Active; 'I' for Inactive)
REMARK    1  A    between atoms: N_1  and  C_2 
REMARK    2  A    between atoms: C_4  and  C_10 
REMARK    3  A    between atoms: O_8  and  C_10 
ROOT
HETATM    1  C   UNL     1      64.352   7.883   4.542  1.00  0.00     0.030 A 
HETATM    2  C   UNL     1      64.179   9.037   5.320  1.00  0.00     0.038 A 
HETATM    3  C   UNL     1      63.218  10.024   5.010  1.00  0.00    -0.033 A 
HETATM    4  C   UNL     1      63.461   7.726   3.464  1.00  0.00     0.029 A 
HETATM    5  C   UNL     1      62.490   8.681   3.149  1.00  0.00     0.003 A 
HETATM    6  C   UNL     1      62.374   9.833   3.914  1.00  0.00     0.009 A 
ENDROOT
BRANCH   1   7
HETATM    7  N   UNL     1      65.321   6.926   4.798  1.00  0.00    -0.381 N 
HETATM    8  C   UNL     1      66.326   7.013   5.859  1.00  0.00     0.123 C 
HETATM    9  C   UNL     1      67.627   6.618   5.170  1.00  0.00     0.021 C 
HETATM   10  C   UNL     1      67.177   5.585   4.155  1.00  0.00     0.021 C 
HETATM   11  C   UNL     1      65.832   6.123   3.677  1.00  0.00     0.123 C 
ENDBRANCH   1   7
BRANCH   3  12
HETATM   12  C   UNL     1      63.126  11.274   5.842  1.00  0.00     0.203 C 
BRANCH  12  13
HETATM   13  O   UNL     1      64.368  11.559   6.470  1.00  0.00    -0.396 OA
HETATM   14  H   UNL     1      64.634  12.469   6.263  1.00  0.00     0.209 HD
ENDBRANCH  12  13
ENDBRANCH   3  12
TORSDOF 3
ENDMDL
MODEL 2
REMARK VINA RESULT:      -5.0      2.195      2.844
REMARK  3 active torsions:
REMARK  status: ('A' for Active; 'I' for Inactive)
REMARK    1  A    between atoms: N_1  and  C_2 
REMARK    2  A    between atoms: C_4  and  C_10 
REMARK    3  A    between atoms: O_8  and  C_10 
ROOT
HETATM    1  C   UNL     1      62.513   8.838   3.126  1.00  0.00     0.030 A 
HETATM    2  C   UNL     1      62.770   9.397   4.386  1.00  0.00     0.038 A 
HETATM    3  C   UNL     1      62.552  10.763   4.669  1.00  0.00    -0.033 A 
HETATM    4  C   UNL     1      61.956   9.706   2.168  1.00  0.00     0.029 A 
HETATM    5  C   UNL     1      61.715  11.057   2.431  1.00  0.00     0.003 A 
HETATM    6  C   UNL     1      62.021  11.588   3.677  1.00  0.00     0.009 A 
ENDROOT
BRANCH   1   7
HETATM    7  N   UNL     1      62.766   7.512   2.810  1.00  0.00    -0.381 N 
HETATM    8  C   UNL     1      63.584   6.601   3.613  1.00  0.00     0.123 C 
HETATM    9  C   UNL     1      64.481   5.912   2.591  1.00  0.00     0.021 C 
HETATM   10  C   UNL     1      63.592   5.813   1.367  1.00  0.00     0.021 C 
HETATM   11  C   UNL     1      62.807   7.121   1.393  1.00  0.00     0.123 C 
ENDBRANCH   1   7
BRANCH   3  12
HETATM   12  C   UNL     1      62.912  11.319   6.020  1.00  0.00     0.203 C 
BRANCH  12  13
HETATM   13  O   UNL     1      64.321  11.347   6.200  1.00  0.00    -0.396 OA
HETATM   14  H   UNL     1      64.526  11.327   7.147  1.00  0.00     0.209 HD
ENDBRANCH  12  13
ENDBRANCH   3  12
TORSDOF 3
ENDMDL
MODEL 3
REMARK VINA RESULT:      -5.0      0.989      1.584
REMARK  3 active torsions:
REMARK  status: ('A' for Active; 'I' for Inactive)
REMARK    1  A    between atoms: N_1  and  C_2 
REMARK    2  A    between atoms: C_4  and  C_10 
REMARK    3  A    between atoms: O_8  and  C_10 
ROOT
HETATM    1  C   UNL     1      65.283   7.655   4.803  1.00  0.00     0.030 A 
HETATM    2  C   UNL     1      64.786   8.826   5.392  1.00  0.00     0.038 A 
HETATM    3  C   UNL     1      63.615   9.467   4.933  1.00  0.00    -0.033 A 
HETATM    4  C   UNL     1      64.509   7.108   3.764  1.00  0.00     0.029 A 
HETATM    5  C   UNL     1      63.337   7.715   3.304  1.00  0.00     0.003 A 
HETATM    6  C   UNL     1      62.894   8.898   3.881  1.00  0.00     0.009 A 
ENDROOT
BRANCH   1   7
HETATM    7  N   UNL     1      66.457   7.036   5.204  1.00  0.00    -0.381 N 
HETATM    8  C   UNL     1      67.099   5.921   4.505  1.00  0.00     0.123 C 
HETATM    9  C   UNL     1      67.447   4.939   5.617  1.00  0.00     0.021 C 
HETATM   10  C   UNL     1      67.777   5.847   6.786  1.00  0.00     0.021 C 
HETATM   11  C   UNL     1      66.774   6.988   6.640  1.00  0.00     0.123 C 
ENDBRANCH   1   7
BRANCH   3  12
HETATM   12  C   UNL     1      63.167  10.760   5.560  1.00  0.00     0.203 C 
BRANCH  12  13
HETATM   13  O   UNL     1      64.234  11.377   6.268  1.00  0.00    -0.396 OA
HETATM   14  H   UNL     1      64.922  10.719   6.453  1.00  0.00     0.209 HD
ENDBRANCH  12  13
ENDBRANCH   3  12
TORSDOF 3
ENDMDL
MODEL 4
REMARK VINA RESULT:      -4.9      2.254      4.778
REMARK  3 active torsions:
REMARK  status: ('A' for Active; 'I' for Inactive)
REMARK    1  A    between atoms: N_1  and  C_2 
REMARK    2  A    between atoms: C_4  and  C_10 
REMARK    3  A    between atoms: O_8  and  C_10 
ROOT
HETATM    1  C   UNL     1      62.919   8.502   4.658  1.00  0.00     0.030 A 
HETATM    2  C   UNL     1      64.309   8.628   4.789  1.00  0.00     0.038 A 
HETATM    3  C   UNL     1      65.062   7.834   5.681  1.00  0.00    -0.033 A 
HETATM    4  C   UNL     1      62.316   7.486   5.421  1.00  0.00     0.029 A 
HETATM    5  C   UNL     1      63.043   6.675   6.297  1.00  0.00     0.003 A 
HETATM    6  C   UNL     1      64.413   6.855   6.435  1.00  0.00     0.009 A 
ENDROOT
BRANCH   1   7
HETATM    7  N   UNL     1      62.153   9.305   3.826  1.00  0.00    -0.381 N 
HETATM    8  C   UNL     1      61.793   8.978   2.445  1.00  0.00     0.123 C 
HETATM    9  C   UNL     1      62.065  10.266   1.678  1.00  0.00     0.021 C 
HETATM   10  C   UNL     1      61.719  11.345   2.685  1.00  0.00     0.021 C 
HETATM   11  C   UNL     1      62.207  10.763   4.008  1.00  0.00     0.123 C 
ENDBRANCH   1   7
BRANCH   3  12
HETATM   12  C   UNL     1      66.542   8.062   5.829  1.00  0.00     0.203 C 
BRANCH  12  13
HETATM   13  O   UNL     1      66.849   8.598   7.108  1.00  0.00    -0.396 OA
HETATM   14  H   UNL     1      66.617   7.952   7.793  1.00  0.00     0.209 HD
ENDBRANCH  12  13
ENDBRANCH   3  12
TORSDOF 3
ENDMDL
MODEL 5
REMARK VINA RESULT:      -4.7      2.091      2.568
REMARK  3 active torsions:
REMARK  status: ('A' for Active; 'I' for Inactive)
REMARK    1  A    between atoms: N_1  and  C_2 
REMARK    2  A    between atoms: C_4  and  C_10 
REMARK    3  A    between atoms: O_8  and  C_10 
ROOT
HETATM    1  C   UNL     1      63.260   7.832   3.306  1.00  0.00     0.030 A 
HETATM    2  C   UNL     1      62.815   9.139   3.554  1.00  0.00     0.038 A 
HETATM    3  C   UNL     1      62.145   9.909   2.579  1.00  0.00    -0.033 A 
HETATM    4  C   UNL     1      62.939   7.299   2.044  1.00  0.00     0.029 A 
HETATM    5  C   UNL     1      62.261   8.037   1.070  1.00  0.00     0.003 A 
HETATM    6  C   UNL     1      61.872   9.344   1.332  1.00  0.00     0.009 A 
ENDROOT
BRANCH   1   7
HETATM    7  N   UNL     1      63.964   7.076   4.230  1.00  0.00    -0.381 N 
HETATM    8  C   UNL     1      63.866   7.221   5.683  1.00  0.00     0.123 C 
HETATM    9  C   UNL     1      65.315   7.213   6.155  1.00  0.00     0.021 C 
HETATM   10  C   UNL     1      65.986   6.263   5.182  1.00  0.00     0.021 C 
HETATM   11  C   UNL     1      65.293   6.567   3.857  1.00  0.00     0.123 C 
ENDBRANCH   1   7
BRANCH   3  12
HETATM   12  C   UNL     1      61.752  11.331   2.881  1.00  0.00     0.203 C 
BRANCH  12  13
HETATM   13  O   UNL     1      62.084  12.190   1.799  1.00  0.00    -0.396 OA
HETATM   14  H   UNL     1      61.684  11.852   0.983  1.00  0.00     0.209 HD
ENDBRANCH  12  13
ENDBRANCH   3  12
TORSDOF 3
ENDMDL
MODEL 6
REMARK VINA RESULT:      -4.7      2.453      3.280
REMARK  3 active torsions:
REMARK  status: ('A' for Active; 'I' for Inactive)
REMARK    1  A    between atoms: N_1  and  C_2 
REMARK    2  A    between atoms: C_4  and  C_10 
REMARK    3  A    between atoms: O_8  and  C_10 
ROOT
HETATM    1  C   UNL     1      63.640   8.607   4.476  1.00  0.00     0.030 A 
HETATM    2  C   UNL     1      63.092   8.438   3.196  1.00  0.00     0.038 A 
HETATM    3  C   UNL     1      62.187   9.362   2.631  1.00  0.00    -0.033 A 
HETATM    4  C   UNL     1      63.289   9.793   5.146  1.00  0.00     0.029 A 
HETATM    5  C   UNL     1      62.410  10.731   4.599  1.00  0.00     0.003 A 
HETATM    6  C   UNL     1      61.851  10.512   3.347  1.00  0.00     0.009 A 
ENDROOT
BRANCH   1   7
HETATM    7  N   UNL     1      64.491   7.688   5.072  1.00  0.00    -0.381 N 
HETATM    8  C   UNL     1      64.063   6.587   5.937  1.00  0.00     0.123 C 
HETATM    9  C   UNL     1      65.023   6.651   7.118  1.00  0.00     0.021 C 
HETATM   10  C   UNL     1      66.318   7.118   6.482  1.00  0.00     0.021 C 
HETATM   11  C   UNL     1      65.853   8.115   5.426  1.00  0.00     0.123 C 
ENDBRANCH   1   7
BRANCH   3  12
HETATM   12  C   UNL     1      61.579   9.092   1.281  1.00  0.00     0.203 C 
BRANCH  12  13
HETATM   13  O   UNL     1      60.170   8.937   1.379  1.00  0.00    -0.396 OA
HETATM   14  H   UNL     1      59.735   9.747   1.071  1.00  0.00     0.209 HD
ENDBRANCH  12  13
ENDBRANCH   3  12
TORSDOF 3
ENDMDL
MODEL 7
REMARK VINA RESULT:      -4.5      2.489      4.915
REMARK  3 active torsions:
REMARK  status: ('A' for Active; 'I' for Inactive)
REMARK    1  A    between atoms: N_1  and  C_2 
REMARK    2  A    between atoms: C_4  and  C_10 
REMARK    3  A    between atoms: O_8  and  C_10 
ROOT
HETATM    1  C   UNL     1      62.146   8.631   3.097  1.00  0.00     0.030 A 
HETATM    2  C   UNL     1      63.253   8.100   3.775  1.00  0.00     0.038 A 
HETATM    3  C   UNL     1      63.942   8.814   4.779  1.00  0.00    -0.033 A 
HETATM    4  C   UNL     1      61.713   9.901   3.521  1.00  0.00     0.029 A 
HETATM    5  C   UNL     1      62.368  10.619   4.525  1.00  0.00     0.003 A 
HETATM    6  C   UNL     1      63.487  10.081   5.148  1.00  0.00     0.009 A 
ENDROOT
BRANCH   1   7
HETATM    7  N   UNL     1      61.486   7.969   2.073  1.00  0.00    -0.381 N 
HETATM    8  C   UNL     1      61.168   8.549   0.767  1.00  0.00     0.123 C 
HETATM    9  C   UNL     1      59.715   8.155   0.531  1.00  0.00     0.021 C 
HETATM   10  C   UNL     1      59.619   6.792   1.188  1.00  0.00     0.021 C 
HETATM   11  C   UNL     1      60.503   6.933   2.424  1.00  0.00     0.123 C 
ENDBRANCH   1   7
BRANCH   3  12
HETATM   12  C   UNL     1      65.164   8.219   5.423  1.00  0.00     0.203 C 
BRANCH  12  13
HETATM   13  O   UNL     1      65.808   9.166   6.265  1.00  0.00    -0.396 OA
HETATM   14  H   UNL     1      66.404   8.704   6.874  1.00  0.00     0.209 HD
ENDBRANCH  12  13
ENDBRANCH   3  12
TORSDOF 3
ENDMDL
MODEL 8
REMARK VINA RESULT:      -4.3      2.774      5.160
REMARK  3 active torsions:
REMARK  status: ('A' for Active; 'I' for Inactive)
REMARK    1  A    between atoms: N_1  and  C_2 
REMARK    2  A    between atoms: C_4  and  C_10 
REMARK    3  A    between atoms: O_8  and  C_10 
ROOT
HETATM    1  C   UNL     1      61.751   7.928   3.141  1.00  0.00     0.030 A 
HETATM    2  C   UNL     1      61.773   9.169   3.794  1.00  0.00     0.038 A 
HETATM    3  C   UNL     1      62.868   9.596   4.575  1.00  0.00    -0.033 A 
HETATM    4  C   UNL     1      62.918   7.151   3.252  1.00  0.00     0.029 A 
HETATM    5  C   UNL     1      64.022   7.561   4.006  1.00  0.00     0.003 A 
HETATM    6  C   UNL     1      63.994   8.777   4.674  1.00  0.00     0.009 A 
ENDROOT
BRANCH   1   7
HETATM    7  N   UNL     1      60.667   7.466   2.411  1.00  0.00    -0.381 N 
HETATM    8  C   UNL     1      60.566   7.496   0.950  1.00  0.00     0.123 C 
HETATM    9  C   UNL     1      59.165   8.034   0.687  1.00  0.00     0.021 C 
HETATM   10  C   UNL     1      58.358   7.468   1.839  1.00  0.00     0.021 C 
HETATM   11  C   UNL     1      59.328   7.535   3.016  1.00  0.00     0.123 C 
ENDBRANCH   1   7
BRANCH   3  12
HETATM   12  C   UNL     1      62.805  10.909   5.308  1.00  0.00     0.203 C 
BRANCH  12  13
HETATM   13  O   UNL     1      62.216  11.916   4.496  1.00  0.00    -0.396 OA
HETATM   14  H   UNL     1      61.421  12.258   4.932  1.00  0.00     0.209 HD
ENDBRANCH  12  13
ENDBRANCH   3  12
TORSDOF 3
ENDMDL
MODEL 9
REMARK VINA RESULT:      -4.2      2.492      5.042
REMARK  3 active torsions:
REMARK  status: ('A' for Active; 'I' for Inactive)
REMARK    1  A    between atoms: N_1  and  C_2 
REMARK    2  A    between atoms: C_4  and  C_10 
REMARK    3  A    between atoms: O_8  and  C_10 
ROOT
HETATM    1  C   UNL     1      65.070   7.382   5.410  1.00  0.00     0.030 A 
HETATM    2  C   UNL     1      65.197   6.988   6.750  1.00  0.00     0.038 A 
HETATM    3  C   UNL     1      66.406   6.493   7.284  1.00  0.00    -0.033 A 
HETATM    4  C   UNL     1      66.242   7.321   4.635  1.00  0.00     0.029 A 
HETATM    5  C   UNL     1      67.455   6.851   5.146  1.00  0.00     0.003 A 
HETATM    6  C   UNL     1      67.536   6.428   6.466  1.00  0.00     0.009 A 
ENDROOT
BRANCH   1   7
HETATM    7  N   UNL     1      63.880   7.824   4.852  1.00  0.00    -0.381 N 
HETATM    8  C   UNL     1      63.244   7.244   3.667  1.00  0.00     0.123 C 
HETATM    9  C   UNL     1      62.859   8.455   2.825  1.00  0.00     0.021 C 
HETATM   10  C   UNL     1      62.511   9.500   3.867  1.00  0.00     0.021 C 
HETATM   11  C   UNL     1      63.529   9.247   4.975  1.00  0.00     0.123 C 
ENDBRANCH   1   7
BRANCH   3  12
HETATM   12  C   UNL     1      66.463   6.021   8.712  1.00  0.00     0.203 C 
BRANCH  12  13
HETATM   13  O   UNL     1      66.455   4.601   8.779  1.00  0.00    -0.396 OA
HETATM   14  H   UNL     1      66.808   4.237   7.953  1.00  0.00     0.209 HD
ENDBRANCH  12  13
ENDBRANCH   3  12
TORSDOF 3
ENDMDL
