MODEL 1
REMARK VINA RESULT:      -5.0      0.000      0.000
REMARK  2 active torsions:
REMARK  status: ('A' for Active; 'I' for Inactive)
REMARK    1  A    between atoms: C_1  and  C_5 
REMARK    2  A    between atoms: C_6  and  N_7 
ROOT
HETATM    1  C   UNL     1      63.790   8.173   4.878  1.00  0.00    -0.022 A 
HETATM    2  C   UNL     1      65.119   8.518   5.201  1.00  0.00     0.041 A 
HETATM    3  C   UNL     1      65.843   7.853   6.198  1.00  0.00     0.026 A 
HETATM    4  C   UNL     1      63.221   7.096   5.583  1.00  0.00     0.012 A 
HETATM    5  C   UNL     1      63.947   6.395   6.549  1.00  0.00     0.003 A 
HETATM    6  C   UNL     1      65.260   6.759   6.835  1.00  0.00     0.029 A 
ENDROOT
BRANCH   1   7
HETATM    7  C   UNL     1      63.032   8.902   3.836  1.00  0.00    -0.011 A 
HETATM    8  C   UNL     1      62.432  10.142   4.077  1.00  0.00     0.099 A 
HETATM    9  N   UNL     1      61.719  10.862   3.173  1.00  0.00    -0.374 N 
HETATM   10  C   UNL     1      61.596  10.329   1.942  1.00  0.00     0.087 A 
ATOM     11  HN  UNL     1      61.300  11.759   3.414  1.00  0.00     0.164 HD
HETATM   12  C   UNL     1      62.148   9.115   1.578  1.00  0.00     0.018 A 
HETATM   13  C   UNL     1      62.865   8.399   2.537  1.00  0.00     0.015 A 
ENDBRANCH   1   7
BRANCH   3  14
HETATM   14  N   UNL     1      67.203   8.132   6.386  1.00  0.00    -0.399 N 
HETATM   15  H   UNL     1      67.597   8.947   5.997  1.00  0.00     0.156 HD
HETATM   16  H   UNL     1      67.765   7.515   6.908  1.00  0.00     0.156 HD
ENDBRANCH   3  14
TORSDOF 2
ENDMDL
MODEL 2
REMARK VINA RESULT:      -5.0      0.872      5.175
REMARK  2 active torsions:
REMARK  status: ('A' for Active; 'I' for Inactive)
REMARK    1  A    between atoms: C_1  and  C_5 
REMARK    2  A    between atoms: C_6  and  N_7 
ROOT
HETATM    1  C   UNL     1      63.132   8.274   3.449  1.00  0.00    -0.022 A 
HETATM    2  C   UNL     1      62.617   9.587   3.413  1.00  0.00     0.041 A 
HETATM    3  C   UNL     1      61.997  10.115   2.274  1.00  0.00     0.026 A 
HETATM    4  C   UNL     1      62.967   7.491   2.290  1.00  0.00     0.012 A 
HETATM    5  C   UNL     1      62.311   7.991   1.164  1.00  0.00     0.003 A 
HETATM    6  C   UNL     1      61.807   9.289   1.167  1.00  0.00     0.029 A 
ENDROOT
BRANCH   1   7
HETATM    7  C   UNL     1      63.806   7.738   4.654  1.00  0.00    -0.011 A 
HETATM    8  C   UNL     1      64.862   8.407   5.279  1.00  0.00     0.099 A 
HETATM    9  N   UNL     1      65.527   7.973   6.380  1.00  0.00    -0.374 N 
HETATM   10  C   UNL     1      65.119   6.804   6.909  1.00  0.00     0.087 A 
ATOM     11  HN  UNL     1      66.297   8.506   6.786  1.00  0.00     0.164 HD
HETATM   12  C   UNL     1      64.082   6.053   6.388  1.00  0.00     0.018 A 
HETATM   13  C   UNL     1      63.428   6.526   5.249  1.00  0.00     0.015 A 
ENDBRANCH   1   7
BRANCH   3  14
HETATM   14  N   UNL     1      61.373  11.369   2.330  1.00  0.00    -0.399 N 
HETATM   15  H   UNL     1      60.980  11.760   1.516  1.00  0.00     0.156 HD
HETATM   16  H   UNL     1      61.328  11.858   3.183  1.00  0.00     0.156 HD
ENDBRANCH   3  14
TORSDOF 2
ENDMDL
MODEL 3
REMARK VINA RESULT:      -5.0      1.426      5.261
REMARK  2 active torsions:
REMARK  status: ('A' for Active; 'I' for Inactive)
REMARK    1  A    between atoms: C_1  and  C_5 
REMARK    2  A    between atoms: C_6  and  N_7 
ROOT
HETATM    1  C   UNL     1      63.217   9.075   4.379  1.00  0.00    -0.022 A 
HETATM    2  C   UNL     1      62.879   8.708   3.060  1.00  0.00     0.041 A 
HETATM    3  C   UNL     1      62.117   9.535   2.226  1.00  0.00     0.026 A 
HETATM    4  C   UNL     1      62.782  10.338   4.822  1.00  0.00     0.012 A 
HETATM    5  C   UNL     1      62.060  11.191   3.986  1.00  0.00     0.003 A 
HETATM    6  C   UNL     1      61.751  10.799   2.686  1.00  0.00     0.029 A 
ENDROOT
BRANCH   1   7
HETATM    7  C   UNL     1      64.005   8.177   5.255  1.00  0.00    -0.011 A 
HETATM    8  C   UNL     1      63.434   7.083   5.912  1.00  0.00     0.099 A 
HETATM    9  N   UNL     1      64.093   6.224   6.731  1.00  0.00    -0.374 N 
HETATM   10  C   UNL     1      65.409   6.452   6.910  1.00  0.00     0.087 A 
ATOM     11  HN  UNL     1      63.616   5.447   7.188  1.00  0.00     0.164 HD
HETATM   12  C   UNL     1      66.090   7.495   6.310  1.00  0.00     0.018 A 
HETATM   13  C   UNL     1      65.377   8.364   5.482  1.00  0.00     0.015 A 
ENDBRANCH   1   7
BRANCH   3  14
HETATM   14  N   UNL     1      61.927   9.196   0.880  1.00  0.00    -0.399 N 
HETATM   15  H   UNL     1      61.443   9.810   0.281  1.00  0.00     0.156 HD
HETATM   16  H   UNL     1      62.278   8.344   0.533  1.00  0.00     0.156 HD
ENDBRANCH   3  14
TORSDOF 2
ENDMDL
MODEL 4
REMARK VINA RESULT:      -4.9      2.295      4.455
REMARK  2 active torsions:
REMARK  status: ('A' for Active; 'I' for Inactive)
REMARK    1  A    between atoms: C_1  and  C_5 
REMARK    2  A    between atoms: C_6  and  N_7 
ROOT
HETATM    1  C   UNL     1      63.230   8.719   3.966  1.00  0.00    -0.022 A 
HETATM    2  C   UNL     1      63.527   9.472   5.122  1.00  0.00     0.041 A 
HETATM    3  C   UNL     1      63.044  10.772   5.311  1.00  0.00     0.026 A 
HETATM    4  C   UNL     1      62.390   9.322   3.011  1.00  0.00     0.012 A 
HETATM    5  C   UNL     1      61.866  10.601   3.208  1.00  0.00     0.003 A 
HETATM    6  C   UNL     1      62.174  11.311   4.365  1.00  0.00     0.029 A 
ENDROOT
BRANCH   1   7
HETATM    7  C   UNL     1      63.767   7.353   3.772  1.00  0.00    -0.011 A 
HETATM    8  C   UNL     1      64.415   6.652   4.793  1.00  0.00     0.099 A 
HETATM    9  N   UNL     1      64.935   5.403   4.684  1.00  0.00    -0.374 N 
HETATM   10  C   UNL     1      64.802   4.797   3.489  1.00  0.00     0.087 A 
ATOM     11  HN  UNL     1      65.403   4.947   5.467  1.00  0.00     0.164 HD
HETATM   12  C   UNL     1      64.176   5.382   2.404  1.00  0.00     0.018 A 
HETATM   13  C   UNL     1      63.662   6.671   2.551  1.00  0.00     0.015 A 
ENDBRANCH   1   7
BRANCH   3  14
HETATM   14  N   UNL     1      63.244  11.426   6.534  1.00  0.00    -0.399 N 
HETATM   15  H   UNL     1      63.749  12.271   6.564  1.00  0.00     0.156 HD
HETATM   16  H   UNL     1      62.879  11.041   7.364  1.00  0.00     0.156 HD
ENDBRANCH   3  14
TORSDOF 2
ENDMDL
MODEL 5
REMARK VINA RESULT:      -4.8      1.598      1.984
REMARK  2 active torsions:
REMARK  status: ('A' for Active; 'I' for Inactive)
REMARK    1  A    between atoms: C_1  and  C_5 
REMARK    2  A    between atoms: C_6  and  N_7 
ROOT
HETATM    1  C   UNL     1      65.135   7.676   4.790  1.00  0.00    -0.022 A 
HETATM    2  C   UNL     1      65.715   7.763   6.073  1.00  0.00     0.041 A 
HETATM    3  C   UNL     1      66.791   6.956   6.462  1.00  0.00     0.026 A 
HETATM    4  C   UNL     1      65.708   6.758   3.891  1.00  0.00     0.012 A 
HETATM    5  C   UNL     1      66.809   5.979   4.252  1.00  0.00     0.003 A 
HETATM    6  C   UNL     1      67.362   6.097   5.524  1.00  0.00     0.029 A 
ENDROOT
BRANCH   1   7
HETATM    7  C   UNL     1      63.982   8.521   4.403  1.00  0.00    -0.011 A 
HETATM    8  C   UNL     1      63.601   9.648   5.137  1.00  0.00     0.099 A 
HETATM    9  N   UNL     1      62.555  10.463   4.844  1.00  0.00    -0.374 N 
HETATM   10  C   UNL     1      61.839  10.152   3.746  1.00  0.00     0.087 A 
ATOM     11  HN  UNL     1      62.323  11.268   5.425  1.00  0.00     0.164 HD
HETATM   12  C   UNL     1      62.120   9.069   2.935  1.00  0.00     0.018 A 
HETATM   13  C   UNL     1      63.197   8.248   3.273  1.00  0.00     0.015 A 
ENDBRANCH   1   7
BRANCH   3  14
HETATM   14  N   UNL     1      67.427   7.176   7.692  1.00  0.00    -0.399 N 
HETATM   15  H   UNL     1      68.407   7.274   7.728  1.00  0.00     0.156 HD
HETATM   16  H   UNL     1      66.895   7.233   8.518  1.00  0.00     0.156 HD
ENDBRANCH   3  14
TORSDOF 2
ENDMDL
MODEL 6
REMARK VINA RESULT:      -4.7      2.681      4.439
REMARK  2 active torsions:
REMARK  status: ('A' for Active; 'I' for Inactive)
REMARK    1  A    between atoms: C_1  and  C_5 
REMARK    2  A    between atoms: C_6  and  N_7 
ROOT
HETATM    1  C   UNL     1      62.696   8.918   3.597  1.00  0.00    -0.022 A 
HETATM    2  C   UNL     1      63.082   9.470   4.837  1.00  0.00     0.041 A 
HETATM    3  C   UNL     1      62.854  10.813   5.160  1.00  0.00     0.026 A 
HETATM    4  C   UNL     1      62.032   9.772   2.697  1.00  0.00     0.012 A 
HETATM    5  C   UNL     1      61.759  11.102   3.024  1.00  0.00     0.003 A 
HETATM    6  C   UNL     1      62.147  11.610   4.261  1.00  0.00     0.029 A 
ENDROOT
BRANCH   1   7
HETATM    7  C   UNL     1      62.965   7.501   3.263  1.00  0.00    -0.011 A 
HETATM    8  C   UNL     1      61.960   6.629   2.835  1.00  0.00     0.099 A 
HETATM    9  N   UNL     1      62.134   5.320   2.518  1.00  0.00    -0.374 N 
HETATM   10  C   UNL     1      63.388   4.837   2.620  1.00  0.00     0.087 A 
ATOM     11  HN  UNL     1      61.357   4.733   2.217  1.00  0.00     0.164 HD
HETATM   12  C   UNL     1      64.467   5.600   3.025  1.00  0.00     0.018 A 
HETATM   13  C   UNL     1      64.248   6.939   3.353  1.00  0.00     0.015 A 
ENDBRANCH   1   7
BRANCH   3  14
HETATM   14  N   UNL     1      63.123  11.282   6.453  1.00  0.00    -0.399 N 
HETATM   15  H   UNL     1      63.164  12.250   6.627  1.00  0.00     0.156 HD
HETATM   16  H   UNL     1      63.269  10.643   7.188  1.00  0.00     0.156 HD
ENDBRANCH   3  14
TORSDOF 2
ENDMDL
MODEL 7
REMARK VINA RESULT:      -4.6      1.643      2.116
REMARK  2 active torsions:
REMARK  status: ('A' for Active; 'I' for Inactive)
REMARK    1  A    between atoms: C_1  and  C_5 
REMARK    2  A    between atoms: C_6  and  N_7 
ROOT
HETATM    1  C   UNL     1      63.452   8.089   4.561  1.00  0.00    -0.022 A 
HETATM    2  C   UNL     1      62.777   6.932   5.007  1.00  0.00     0.041 A 
HETATM    3  C   UNL     1      63.362   6.022   5.896  1.00  0.00     0.026 A 
HETATM    4  C   UNL     1      64.742   8.314   5.077  1.00  0.00     0.012 A 
HETATM    5  C   UNL     1      65.319   7.438   5.998  1.00  0.00     0.003 A 
HETATM    6  C   UNL     1      64.620   6.311   6.422  1.00  0.00     0.029 A 
ENDROOT
BRANCH   1   7
HETATM    7  C   UNL     1      62.826   9.029   3.603  1.00  0.00    -0.011 A 
HETATM    8  C   UNL     1      62.393  10.303   3.981  1.00  0.00     0.099 A 
HETATM    9  N   UNL     1      61.808  11.212   3.159  1.00  0.00    -0.374 N 
HETATM   10  C   UNL     1      61.647  10.845   1.873  1.00  0.00     0.087 A 
ATOM     11  HN  UNL     1      61.507  12.125   3.499  1.00  0.00     0.164 HD
HETATM   12  C   UNL     1      62.040   9.617   1.376  1.00  0.00     0.018 A 
HETATM   13  C   UNL     1      62.628   8.704   2.253  1.00  0.00     0.015 A 
ENDBRANCH   1   7
BRANCH   3  14
HETATM   14  N   UNL     1      62.605   4.967   6.423  1.00  0.00    -0.399 N 
HETATM   15  H   UNL     1      62.118   5.086   7.270  1.00  0.00     0.156 HD
HETATM   16  H   UNL     1      62.560   4.107   5.945  1.00  0.00     0.156 HD
ENDBRANCH   3  14
TORSDOF 2
ENDMDL
MODEL 8
REMARK VINA RESULT:      -4.4      2.037      5.383
REMARK  2 active torsions:
REMARK  status: ('A' for Active; 'I' for Inactive)
REMARK    1  A    between atoms: C_1  and  C_5 
REMARK    2  A    between atoms: C_6  and  N_7 
ROOT
HETATM    1  C   UNL     1      62.360   8.138   2.832  1.00  0.00    -0.022 A 
HETATM    2  C   UNL     1      61.031   7.948   3.265  1.00  0.00     0.041 A 
HETATM    3  C   UNL     1      59.942   8.018   2.389  1.00  0.00     0.026 A 
HETATM    4  C   UNL     1      62.556   8.372   1.458  1.00  0.00     0.012 A 
HETATM    5  C   UNL     1      61.483   8.400   0.565  1.00  0.00     0.003 A 
HETATM    6  C   UNL     1      60.185   8.199   1.028  1.00  0.00     0.029 A 
ENDROOT
BRANCH   1   7
HETATM    7  C   UNL     1      63.499   8.083   3.777  1.00  0.00    -0.011 A 
HETATM    8  C   UNL     1      63.658   9.010   4.811  1.00  0.00     0.099 A 
HETATM    9  N   UNL     1      64.677   9.023   5.708  1.00  0.00    -0.374 N 
HETATM   10  C   UNL     1      65.600   8.049   5.585  1.00  0.00     0.087 A 
ATOM     11  HN  UNL     1      64.741   9.733   6.437  1.00  0.00     0.164 HD
HETATM   12  C   UNL     1      65.550   7.071   4.610  1.00  0.00     0.018 A 
HETATM   13  C   UNL     1      64.493   7.096   3.699  1.00  0.00     0.015 A 
ENDBRANCH   1   7
BRANCH   3  14
HETATM   14  N   UNL     1      58.657   7.681   2.834  1.00  0.00    -0.399 N 
HETATM   15  H   UNL     1      57.929   7.549   2.183  1.00  0.00     0.156 HD
HETATM   16  H   UNL     1      58.482   7.575   3.797  1.00  0.00     0.156 HD
ENDBRANCH   3  14
TORSDOF 2
ENDMDL
MODEL 9
REMARK VINA RESULT:      -4.4      2.549      6.403
REMARK  2 active torsions:
REMARK  status: ('A' for Active; 'I' for Inactive)
REMARK    1  A    between atoms: C_1  and  C_5 
REMARK    2  A    between atoms: C_6  and  N_7 
ROOT
HETATM    1  C   UNL     1      65.058   6.890   6.554  1.00  0.00    -0.022 A 
HETATM    2  C   UNL     1      63.699   6.534   6.428  1.00  0.00     0.041 A 
HETATM    3  C   UNL     1      62.807   7.260   5.630  1.00  0.00     0.026 A 
HETATM    4  C   UNL     1      65.498   8.001   5.811  1.00  0.00     0.012 A 
HETATM    5  C   UNL     1      64.630   8.708   4.977  1.00  0.00     0.003 A 
HETATM    6  C   UNL     1      63.296   8.322   4.870  1.00  0.00     0.029 A 
ENDROOT
BRANCH   1   7
HETATM    7  C   UNL     1      65.983   6.124   7.420  1.00  0.00    -0.011 A 
HETATM    8  C   UNL     1      65.905   4.734   7.553  1.00  0.00     0.099 A 
HETATM    9  N   UNL     1      66.714   3.970   8.331  1.00  0.00    -0.374 N 
HETATM   10  C   UNL     1      67.673   4.617   9.020  1.00  0.00     0.087 A 
ATOM     11  HN  UNL     1      66.601   2.958   8.390  1.00  0.00     0.164 HD
HETATM   12  C   UNL     1      67.857   5.986   8.968  1.00  0.00     0.018 A 
HETATM   13  C   UNL     1      67.000   6.740   8.165  1.00  0.00     0.015 A 
ENDBRANCH   1   7
BRANCH   3  14
HETATM   14  N   UNL     1      61.505   6.787   5.420  1.00  0.00    -0.399 N 
HETATM   15  H   UNL     1      61.361   5.870   5.091  1.00  0.00     0.156 HD
HETATM   16  H   UNL     1      60.734   7.372   5.603  1.00  0.00     0.156 HD
ENDBRANCH   3  14
TORSDOF 2
ENDMDL
