MODEL 1
REMARK VINA RESULT:      -4.6      0.000      0.000
REMARK  1 active torsions:
REMARK  status: ('A' for Active; 'I' for Inactive)
REMARK    1  A    between atoms: CA_1  and  C_6 
ROOT
HETATM    1  CA  UNL     1      62.444  10.048   3.938  1.00  0.00     0.111 A 
HETATM    2  N   UNL     1      61.628  10.173   2.834  1.00  0.00    -0.350 N 
HETATM    3  C   UNL     1      63.098   8.827   3.854  1.00  0.00     0.057 A 
HETATM    4  C   UNL     1      61.761   9.057   2.050  1.00  0.00     0.050 A 
HETATM    5  C   UNL     1      62.650   8.216   2.649  1.00  0.00     0.034 A 
HETATM    6  S   UNL     1      62.891   6.761   1.740  1.00  0.00    -0.100 SA
HETATM    7  C   UNL     1      61.237   8.563   0.825  1.00  0.00     0.038 A 
HETATM    8  C   UNL     1      61.780   7.325   0.551  1.00  0.00     0.053 A 
HETATM    9  H   UNL     1      61.044  10.942   2.640  1.00  0.00     0.166 HD
ENDROOT
BRANCH   1  10
HETATM   10  C   UNL     1      62.527  11.072   4.945  1.00  0.00     0.226 C 
HETATM   11  O   UNL     1      63.093  10.995   6.024  1.00  0.00    -0.643 OA
HETATM   12  OXT UNL     1      61.882  12.195   4.572  1.00  0.00    -0.643 OA
ENDBRANCH   1  10
TORSDOF 1
ENDMDL
MODEL 2
REMARK VINA RESULT:      -4.4      2.274      3.325
REMARK  1 active torsions:
REMARK  status: ('A' for Active; 'I' for Inactive)
REMARK    1  A    between atoms: CA_1  and  C_6 
ROOT
HETATM    1  CA  UNL     1      63.385   9.753   4.906  1.00  0.00     0.111 A 
HETATM    2  N   UNL     1      64.492   9.193   5.507  1.00  0.00    -0.350 N 
HETATM    3  C   UNL     1      62.976   8.910   3.883  1.00  0.00     0.057 A 
HETATM    4  C   UNL     1      64.784   8.006   4.886  1.00  0.00     0.050 A 
HETATM    5  C   UNL     1      63.878   7.809   3.888  1.00  0.00     0.034 A 
HETATM    6  S   UNL     1      64.160   6.331   3.029  1.00  0.00    -0.100 SA
HETATM    7  C   UNL     1      65.747   6.967   5.003  1.00  0.00     0.038 A 
HETATM    8  C   UNL     1      65.507   6.000   4.049  1.00  0.00     0.053 A 
HETATM    9  H   UNL     1      64.991   9.582   6.261  1.00  0.00     0.166 HD
ENDROOT
BRANCH   1  10
HETATM   10  C   UNL     1      62.830  11.005   5.348  1.00  0.00     0.226 C 
HETATM   11  O   UNL     1      62.059  11.724   4.732  1.00  0.00    -0.643 OA
HETATM   12  OXT UNL     1      63.265  11.339   6.579  1.00  0.00    -0.643 OA
ENDBRANCH   1  10
TORSDOF 1
ENDMDL
MODEL 3
REMARK VINA RESULT:      -4.4      2.107      2.555
REMARK  1 active torsions:
REMARK  status: ('A' for Active; 'I' for Inactive)
REMARK    1  A    between atoms: CA_1  and  C_6 
ROOT
HETATM    1  CA  UNL     1      61.868   9.986   3.628  1.00  0.00     0.111 A 
HETATM    2  N   UNL     1      60.781   9.194   3.324  1.00  0.00    -0.350 N 
HETATM    3  C   UNL     1      62.810   9.196   4.272  1.00  0.00     0.057 A 
HETATM    4  C   UNL     1      61.024   7.916   3.759  1.00  0.00     0.050 A 
HETATM    5  C   UNL     1      62.253   7.889   4.344  1.00  0.00     0.034 A 
HETATM    6  S   UNL     1      62.662   6.313   4.937  1.00  0.00    -0.100 SA
HETATM    7  C   UNL     1      60.357   6.661   3.759  1.00  0.00     0.038 A 
HETATM    8  C   UNL     1      61.151   5.712   4.370  1.00  0.00     0.053 A 
HETATM    9  H   UNL     1      59.963   9.497   2.868  1.00  0.00     0.166 HD
ENDROOT
BRANCH   1  10
HETATM   10  C   UNL     1      61.912  11.382   3.287  1.00  0.00     0.226 C 
HETATM   11  O   UNL     1      61.983  11.862   2.167  1.00  0.00    -0.643 OA
HETATM   12  OXT UNL     1      61.868  12.167   4.382  1.00  0.00    -0.643 OA
ENDBRANCH   1  10
TORSDOF 1
ENDMDL
MODEL 4
REMARK VINA RESULT:      -4.3      3.138      3.998
REMARK  1 active torsions:
REMARK  status: ('A' for Active; 'I' for Inactive)
REMARK    1  A    between atoms: CA_1  and  C_6 
ROOT
HETATM    1  CA  UNL     1      63.928   7.845   5.152  1.00  0.00     0.111 A 
HETATM    2  N   UNL     1      63.570   9.095   5.609  1.00  0.00    -0.350 N 
HETATM    3  C   UNL     1      63.484   7.722   3.843  1.00  0.00     0.057 A 
HETATM    4  C   UNL     1      62.914   9.766   4.610  1.00  0.00     0.050 A 
HETATM    5  C   UNL     1      62.844   8.951   3.521  1.00  0.00     0.034 A 
HETATM    6  S   UNL     1      62.025   9.702   2.192  1.00  0.00    -0.100 SA
HETATM    7  C   UNL     1      62.311  11.039   4.417  1.00  0.00     0.038 A 
HETATM    8  C   UNL     1      61.796  11.121   3.140  1.00  0.00     0.053 A 
HETATM    9  H   UNL     1      63.756   9.449   6.509  1.00  0.00     0.166 HD
ENDROOT
BRANCH   1  10
HETATM   10  C   UNL     1      64.642   6.907   5.977  1.00  0.00     0.226 C 
HETATM   11  O   UNL     1      65.324   5.969   5.598  1.00  0.00    -0.643 OA
HETATM   12  OXT UNL     1      64.479   7.170   7.289  1.00  0.00    -0.643 OA
ENDBRANCH   1  10
TORSDOF 1
ENDMDL
MODEL 5
REMARK VINA RESULT:      -4.3      1.625      2.286
REMARK  1 active torsions:
REMARK  status: ('A' for Active; 'I' for Inactive)
REMARK    1  A    between atoms: CA_1  and  C_6 
ROOT
HETATM    1  CA  UNL     1      62.221   9.885   2.586  1.00  0.00     0.111 A 
HETATM    2  N   UNL     1      62.867   8.986   3.408  1.00  0.00    -0.350 N 
HETATM    3  C   UNL     1      61.976   9.258   1.372  1.00  0.00     0.057 A 
HETATM    4  C   UNL     1      63.025   7.801   2.738  1.00  0.00     0.050 A 
HETATM    5  C   UNL     1      62.494   7.939   1.491  1.00  0.00     0.034 A 
HETATM    6  S   UNL     1      62.647   6.492   0.550  1.00  0.00    -0.100 SA
HETATM    7  C   UNL     1      63.577   6.515   2.990  1.00  0.00     0.038 A 
HETATM    8  C   UNL     1      63.427   5.717   1.875  1.00  0.00     0.053 A 
HETATM    9  H   UNL     1      63.164   9.166   4.329  1.00  0.00     0.166 HD
ENDROOT
BRANCH   1  10
HETATM   10  C   UNL     1      61.904  11.220   3.017  1.00  0.00     0.226 C 
HETATM   11  O   UNL     1      61.676  11.588   4.158  1.00  0.00    -0.643 OA
HETATM   12  OXT UNL     1      61.878  12.086   1.984  1.00  0.00    -0.643 OA
ENDBRANCH   1  10
TORSDOF 1
ENDMDL
MODEL 6
REMARK VINA RESULT:      -4.2      2.092      3.146
REMARK  1 active torsions:
REMARK  status: ('A' for Active; 'I' for Inactive)
REMARK    1  A    between atoms: CA_1  and  C_6 
ROOT
HETATM    1  CA  UNL     1      62.139   9.970   4.041  1.00  0.00     0.111 A 
HETATM    2  N   UNL     1      62.824   9.584   5.173  1.00  0.00    -0.350 N 
HETATM    3  C   UNL     1      61.687   8.826   3.400  1.00  0.00     0.057 A 
HETATM    4  C   UNL     1      62.805   8.216   5.263  1.00  0.00     0.050 A 
HETATM    5  C   UNL     1      62.121   7.726   4.192  1.00  0.00     0.034 A 
HETATM    6  S   UNL     1      62.040   5.996   4.203  1.00  0.00    -0.100 SA
HETATM    7  C   UNL     1      63.292   7.213   6.144  1.00  0.00     0.038 A 
HETATM    8  C   UNL     1      62.935   5.967   5.674  1.00  0.00     0.053 A 
HETATM    9  H   UNL     1      63.256  10.193   5.815  1.00  0.00     0.166 HD
ENDROOT
BRANCH   1  10
HETATM   10  C   UNL     1      61.980  11.354   3.680  1.00  0.00     0.226 C 
HETATM   11  O   UNL     1      61.829  12.297   4.441  1.00  0.00    -0.643 OA
HETATM   12  OXT UNL     1      62.013  11.530   2.345  1.00  0.00    -0.643 OA
ENDBRANCH   1  10
TORSDOF 1
ENDMDL
MODEL 7
REMARK VINA RESULT:      -4.0      4.920      6.115
REMARK  1 active torsions:
REMARK  status: ('A' for Active; 'I' for Inactive)
REMARK    1  A    between atoms: CA_1  and  C_6 
ROOT
HETATM    1  CA  UNL     1      65.171   7.723   5.654  1.00  0.00     0.111 A 
HETATM    2  N   UNL     1      65.020   7.342   6.970  1.00  0.00    -0.350 N 
HETATM    3  C   UNL     1      66.127   6.902   5.074  1.00  0.00     0.057 A 
HETATM    4  C   UNL     1      65.860   6.290   7.229  1.00  0.00     0.050 A 
HETATM    5  C   UNL     1      66.550   6.001   6.092  1.00  0.00     0.034 A 
HETATM    6  S   UNL     1      67.651   4.682   6.310  1.00  0.00    -0.100 SA
HETATM    7  C   UNL     1      66.187   5.452   8.330  1.00  0.00     0.038 A 
HETATM    8  C   UNL     1      67.147   4.537   7.950  1.00  0.00     0.053 A 
HETATM    9  H   UNL     1      64.408   7.759   7.619  1.00  0.00     0.166 HD
ENDROOT
BRANCH   1  10
HETATM   10  C   UNL     1      64.412   8.803   5.081  1.00  0.00     0.226 C 
HETATM   11  O   UNL     1      63.697   8.753   4.093  1.00  0.00    -0.643 OA
HETATM   12  OXT UNL     1      64.570   9.948   5.773  1.00  0.00    -0.643 OA
ENDBRANCH   1  10
TORSDOF 1
ENDMDL
MODEL 8
REMARK VINA RESULT:      -4.0      5.642      6.906
REMARK  1 active torsions:
REMARK  status: ('A' for Active; 'I' for Inactive)
REMARK    1  A    between atoms: CA_1  and  C_6 
ROOT
HETATM    1  CA  UNL     1      65.707   7.446   6.008  1.00  0.00     0.111 A 
HETATM    2  N   UNL     1      65.938   7.647   7.353  1.00  0.00    -0.350 N 
HETATM    3  C   UNL     1      66.388   6.301   5.621  1.00  0.00     0.057 A 
HETATM    4  C   UNL     1      66.746   6.644   7.822  1.00  0.00     0.050 A 
HETATM    5  C   UNL     1      67.040   5.809   6.786  1.00  0.00     0.034 A 
HETATM    6  S   UNL     1      68.067   4.501   7.270  1.00  0.00    -0.100 SA
HETATM    7  C   UNL     1      67.336   6.259   9.056  1.00  0.00     0.038 A 
HETATM    8  C   UNL     1      68.075   5.107   8.881  1.00  0.00     0.053 A 
HETATM    9  H   UNL     1      65.579   8.390   7.889  1.00  0.00     0.166 HD
ENDROOT
BRANCH   1  10
HETATM   10  C   UNL     1      64.882   8.336   5.236  1.00  0.00     0.226 C 
HETATM   11  O   UNL     1      64.677   9.520   5.452  1.00  0.00    -0.643 OA
HETATM   12  OXT UNL     1      64.317   7.709   4.186  1.00  0.00    -0.643 OA
ENDBRANCH   1  10
TORSDOF 1
ENDMDL
MODEL 9
REMARK VINA RESULT:      -3.8      5.883      7.135
REMARK  1 active torsions:
REMARK  status: ('A' for Active; 'I' for Inactive)
REMARK    1  A    between atoms: CA_1  and  C_6 
ROOT
HETATM    1  CA  UNL     1      64.699   6.571   6.753  1.00  0.00     0.111 A 
HETATM    2  N   UNL     1      65.665   7.139   7.555  1.00  0.00    -0.350 N 
HETATM    3  C   UNL     1      64.942   5.206   6.687  1.00  0.00     0.057 A 
HETATM    4  C   UNL     1      66.511   6.156   8.002  1.00  0.00     0.050 A 
HETATM    5  C   UNL     1      66.096   4.967   7.485  1.00  0.00     0.034 A 
HETATM    6  S   UNL     1      67.103   3.649   7.984  1.00  0.00    -0.100 SA
HETATM    7  C   UNL     1      67.661   6.055   8.830  1.00  0.00     0.038 A 
HETATM    8  C   UNL     1      68.072   4.740   8.897  1.00  0.00     0.053 A 
HETATM    9  H   UNL     1      65.737   8.097   7.772  1.00  0.00     0.166 HD
ENDROOT
BRANCH   1  10
HETATM   10  C   UNL     1      63.659   7.354   6.142  1.00  0.00     0.226 C 
HETATM   11  O   UNL     1      63.765   8.082   5.168  1.00  0.00    -0.643 OA
HETATM   12  OXT UNL     1      62.481   7.207   6.779  1.00  0.00    -0.643 OA
ENDBRANCH   1  10
TORSDOF 1
ENDMDL
