MODEL 1
REMARK VINA RESULT:      -5.4      0.000      0.000
REMARK  3 active torsions:
REMARK  status: ('A' for Active; 'I' for Inactive)
REMARK    1  A    between atoms: C_3  and  C_6 
REMARK    2  A    between atoms: C_6  and  C_10 
REMARK    3  A    between atoms: O_7  and  C_10 
ROOT
HETATM    1  O   UNL     1      61.674  10.552   1.879  1.00  0.00    -0.321 OA
HETATM    2  C   UNL     1      61.962  10.895   3.160  1.00  0.00     0.150 A 
HETATM    3  C   UNL     1      62.575   9.852   3.828  1.00  0.00    -0.021 A 
HETATM    4  C   UNL     1      62.667   8.788   2.877  1.00  0.00     0.006 A 
HETATM    5  C   UNL     1      62.105   9.273   1.702  1.00  0.00     0.085 A 
HETATM    6  C   UNL     1      63.163   7.470   2.886  1.00  0.00     0.015 A 
HETATM    7  C   UNL     1      62.007   8.541   0.521  1.00  0.00     0.038 A 
HETATM    8  C   UNL     1      63.076   6.708   1.714  1.00  0.00     0.001 A 
HETATM    9  C   UNL     1      62.509   7.236   0.552  1.00  0.00     0.003 A 
ENDROOT
BRANCH   3  10
HETATM   10  C   UNL     1      63.053   9.842   5.244  1.00  0.00     0.067 C 
BRANCH  10  11
HETATM   11  C   UNL     1      63.081  11.230   5.881  1.00  0.00     0.168 C 
BRANCH  11  12
HETATM   12  O   UNL     1      64.347  11.516   6.467  1.00  0.00    -0.401 OA
HETATM   13  H   UNL     1      64.812  12.174   5.926  1.00  0.00     0.209 HD
ENDBRANCH  11  12
ENDBRANCH  10  11
ENDBRANCH   3  10
TORSDOF 3
ENDMDL
MODEL 2
REMARK VINA RESULT:      -5.1      1.746      3.706
REMARK  3 active torsions:
REMARK  status: ('A' for Active; 'I' for Inactive)
REMARK    1  A    between atoms: C_3  and  C_6 
REMARK    2  A    between atoms: C_6  and  C_10 
REMARK    3  A    between atoms: O_7  and  C_10 
ROOT
HETATM    1  O   UNL     1      64.322   9.934   5.797  1.00  0.00    -0.321 OA
HETATM    2  C   UNL     1      63.229  10.537   5.266  1.00  0.00     0.150 A 
HETATM    3  C   UNL     1      62.717   9.802   4.214  1.00  0.00    -0.021 A 
HETATM    4  C   UNL     1      63.568   8.659   4.095  1.00  0.00     0.006 A 
HETATM    5  C   UNL     1      64.529   8.789   5.090  1.00  0.00     0.085 A 
HETATM    6  C   UNL     1      63.628   7.532   3.252  1.00  0.00     0.015 A 
HETATM    7  C   UNL     1      65.550   7.869   5.318  1.00  0.00     0.038 A 
HETATM    8  C   UNL     1      64.645   6.591   3.454  1.00  0.00     0.001 A 
HETATM    9  C   UNL     1      65.588   6.756   4.471  1.00  0.00     0.003 A 
ENDROOT
BRANCH   3  10
HETATM   10  C   UNL     1      61.518  10.126   3.383  1.00  0.00     0.067 C 
BRANCH  10  11
HETATM   11  C   UNL     1      61.872  10.603   1.975  1.00  0.00     0.168 C 
BRANCH  11  12
HETATM   12  O   UNL     1      62.084  12.011   1.934  1.00  0.00    -0.401 OA
HETATM   13  H   UNL     1      61.252  12.457   1.712  1.00  0.00     0.209 HD
ENDBRANCH  11  12
ENDBRANCH  10  11
ENDBRANCH   3  10
TORSDOF 3
ENDMDL
MODEL 3
REMARK VINA RESULT:      -5.0      1.723      2.333
REMARK  3 active torsions:
REMARK  status: ('A' for Active; 'I' for Inactive)
REMARK    1  A    between atoms: C_3  and  C_6 
REMARK    2  A    between atoms: C_6  and  C_10 
REMARK    3  A    between atoms: O_7  and  C_10 
ROOT
HETATM    1  O   UNL     1      62.221  11.074   4.361  1.00  0.00    -0.321 OA
HETATM    2  C   UNL     1      62.867  10.415   5.355  1.00  0.00     0.150 A 
HETATM    3  C   UNL     1      63.264   9.158   4.942  1.00  0.00    -0.021 A 
HETATM    4  C   UNL     1      62.822   9.042   3.587  1.00  0.00     0.006 A 
HETATM    5  C   UNL     1      62.196  10.244   3.283  1.00  0.00     0.085 A 
HETATM    6  C   UNL     1      62.885   8.050   2.589  1.00  0.00     0.015 A 
HETATM    7  C   UNL     1      61.628  10.540   2.045  1.00  0.00     0.038 A 
HETATM    8  C   UNL     1      62.321   8.317   1.335  1.00  0.00     0.001 A 
HETATM    9  C   UNL     1      61.705   9.542   1.068  1.00  0.00     0.003 A 
ENDROOT
BRANCH   3  10
HETATM   10  C   UNL     1      64.009   8.136   5.739  1.00  0.00     0.067 C 
BRANCH  10  11
HETATM   11  C   UNL     1      65.516   8.154   5.484  1.00  0.00     0.168 C 
BRANCH  11  12
HETATM   12  O   UNL     1      66.211   8.893   6.483  1.00  0.00    -0.401 OA
HETATM   13  H   UNL     1      65.635   9.594   6.826  1.00  0.00     0.209 HD
ENDBRANCH  11  12
ENDBRANCH  10  11
ENDBRANCH   3  10
TORSDOF 3
ENDMDL
MODEL 4
REMARK VINA RESULT:      -5.0      1.779      3.170
REMARK  3 active torsions:
REMARK  status: ('A' for Active; 'I' for Inactive)
REMARK    1  A    between atoms: C_3  and  C_6 
REMARK    2  A    between atoms: C_6  and  C_10 
REMARK    3  A    between atoms: O_7  and  C_10 
ROOT
HETATM    1  O   UNL     1      62.899   7.677   1.946  1.00  0.00    -0.321 OA
HETATM    2  C   UNL     1      63.361   7.037   3.050  1.00  0.00     0.150 A 
HETATM    3  C   UNL     1      63.306   7.858   4.160  1.00  0.00    -0.021 A 
HETATM    4  C   UNL     1      62.768   9.098   3.693  1.00  0.00     0.006 A 
HETATM    5  C   UNL     1      62.533   8.928   2.334  1.00  0.00     0.085 A 
HETATM    6  C   UNL     1      62.456  10.342   4.275  1.00  0.00     0.015 A 
HETATM    7  C   UNL     1      61.999   9.911   1.503  1.00  0.00     0.038 A 
HETATM    8  C   UNL     1      61.920  11.351   3.465  1.00  0.00     0.001 A 
HETATM    9  C   UNL     1      61.694  11.138   2.103  1.00  0.00     0.003 A 
ENDROOT
BRANCH   3  10
HETATM   10  C   UNL     1      63.711   7.518   5.557  1.00  0.00     0.067 C 
BRANCH  10  11
HETATM   11  C   UNL     1      65.201   7.730   5.821  1.00  0.00     0.168 C 
BRANCH  11  12
HETATM   12  O   UNL     1      65.518   9.110   5.975  1.00  0.00    -0.401 OA
HETATM   13  H   UNL     1      64.709   9.607   6.175  1.00  0.00     0.209 HD
ENDBRANCH  11  12
ENDBRANCH  10  11
ENDBRANCH   3  10
TORSDOF 3
ENDMDL
MODEL 5
REMARK VINA RESULT:      -4.6      1.805      4.746
REMARK  3 active torsions:
REMARK  status: ('A' for Active; 'I' for Inactive)
REMARK    1  A    between atoms: C_3  and  C_6 
REMARK    2  A    between atoms: C_6  and  C_10 
REMARK    3  A    between atoms: O_7  and  C_10 
ROOT
HETATM    1  O   UNL     1      63.604   7.677   3.659  1.00  0.00    -0.321 OA
HETATM    2  C   UNL     1      63.119   7.440   2.414  1.00  0.00     0.150 A 
HETATM    3  C   UNL     1      62.387   8.516   1.952  1.00  0.00    -0.021 A 
HETATM    4  C   UNL     1      62.428   9.487   3.001  1.00  0.00     0.006 A 
HETATM    5  C   UNL     1      63.189   8.923   4.017  1.00  0.00     0.085 A 
HETATM    6  C   UNL     1      61.903  10.779   3.198  1.00  0.00     0.015 A 
HETATM    7  C   UNL     1      63.477   9.558   5.224  1.00  0.00     0.038 A 
HETATM    8  C   UNL     1      62.172  11.441   4.402  1.00  0.00     0.001 A 
HETATM    9  C   UNL     1      62.947  10.841   5.397  1.00  0.00     0.003 A 
ENDROOT
BRANCH   3  10
HETATM   10  C   UNL     1      61.705   8.645   0.628  1.00  0.00     0.067 C 
BRANCH  10  11
HETATM   11  C   UNL     1      60.286   8.080   0.625  1.00  0.00     0.168 C 
BRANCH  11  12
HETATM   12  O   UNL     1      59.610   8.342   1.851  1.00  0.00    -0.401 OA
HETATM   13  H   UNL     1      58.991   9.078   1.728  1.00  0.00     0.209 HD
ENDBRANCH  11  12
ENDBRANCH  10  11
ENDBRANCH   3  10
TORSDOF 3
ENDMDL
MODEL 6
REMARK VINA RESULT:      -4.6      3.491      4.834
REMARK  3 active torsions:
REMARK  status: ('A' for Active; 'I' for Inactive)
REMARK    1  A    between atoms: C_3  and  C_6 
REMARK    2  A    between atoms: C_6  and  C_10 
REMARK    3  A    between atoms: O_7  and  C_10 
ROOT
HETATM    1  O   UNL     1      63.556   6.558   6.778  1.00  0.00    -0.321 OA
HETATM    2  C   UNL     1      62.863   7.596   6.245  1.00  0.00     0.150 A 
HETATM    3  C   UNL     1      63.683   8.396   5.472  1.00  0.00    -0.021 A 
HETATM    4  C   UNL     1      64.980   7.799   5.543  1.00  0.00     0.006 A 
HETATM    5  C   UNL     1      64.843   6.676   6.349  1.00  0.00     0.085 A 
HETATM    6  C   UNL     1      66.251   8.088   5.011  1.00  0.00     0.015 A 
HETATM    7  C   UNL     1      65.885   5.806   6.664  1.00  0.00     0.038 A 
HETATM    8  C   UNL     1      67.319   7.233   5.311  1.00  0.00     0.001 A 
HETATM    9  C   UNL     1      67.138   6.111   6.123  1.00  0.00     0.003 A 
ENDROOT
BRANCH   3  10
HETATM   10  C   UNL     1      63.294   9.624   4.713  1.00  0.00     0.067 C 
BRANCH  10  11
HETATM   11  C   UNL     1      63.087  10.845   5.607  1.00  0.00     0.168 C 
BRANCH  11  12
HETATM   12  O   UNL     1      64.301  11.256   6.228  1.00  0.00    -0.401 OA
HETATM   13  H   UNL     1      64.103  11.871   6.951  1.00  0.00     0.209 HD
ENDBRANCH  11  12
ENDBRANCH  10  11
ENDBRANCH   3  10
TORSDOF 3
ENDMDL
MODEL 7
REMARK VINA RESULT:      -4.6      2.858      4.728
REMARK  3 active torsions:
REMARK  status: ('A' for Active; 'I' for Inactive)
REMARK    1  A    between atoms: C_3  and  C_6 
REMARK    2  A    between atoms: C_6  and  C_10 
REMARK    3  A    between atoms: O_7  and  C_10 
ROOT
HETATM    1  O   UNL     1      64.920   9.206   5.920  1.00  0.00    -0.321 OA
HETATM    2  C   UNL     1      65.442   8.040   5.464  1.00  0.00     0.150 A 
HETATM    3  C   UNL     1      64.757   7.589   4.352  1.00  0.00    -0.021 A 
HETATM    4  C   UNL     1      63.734   8.559   4.112  1.00  0.00     0.006 A 
HETATM    5  C   UNL     1      63.884   9.527   5.097  1.00  0.00     0.085 A 
HETATM    6  C   UNL     1      62.700   8.720   3.170  1.00  0.00     0.015 A 
HETATM    7  C   UNL     1      63.079  10.659   5.212  1.00  0.00     0.038 A 
HETATM    8  C   UNL     1      61.872   9.846   3.260  1.00  0.00     0.001 A 
HETATM    9  C   UNL     1      62.060  10.799   4.263  1.00  0.00     0.003 A 
ENDROOT
BRANCH   3  10
HETATM   10  C   UNL     1      65.034   6.354   3.558  1.00  0.00     0.067 C 
BRANCH  10  11
HETATM   11  C   UNL     1      66.183   5.520   4.122  1.00  0.00     0.168 C 
BRANCH  11  12
HETATM   12  O   UNL     1      67.388   5.719   3.390  1.00  0.00    -0.401 OA
HETATM   13  H   UNL     1      67.716   6.618   3.546  1.00  0.00     0.209 HD
ENDBRANCH  11  12
ENDBRANCH  10  11
ENDBRANCH   3  10
TORSDOF 3
ENDMDL
MODEL 8
REMARK VINA RESULT:      -4.4      3.077      4.138
REMARK  3 active torsions:
REMARK  status: ('A' for Active; 'I' for Inactive)
REMARK    1  A    between atoms: C_3  and  C_6 
REMARK    2  A    between atoms: C_6  and  C_10 
REMARK    3  A    between atoms: O_7  and  C_10 
ROOT
HETATM    1  O   UNL     1      64.119   6.872   3.079  1.00  0.00    -0.321 OA
HETATM    2  C   UNL     1      63.228   7.840   3.410  1.00  0.00     0.150 A 
HETATM    3  C   UNL     1      63.689   8.599   4.468  1.00  0.00    -0.021 A 
HETATM    4  C   UNL     1      64.963   8.047   4.809  1.00  0.00     0.006 A 
HETATM    5  C   UNL     1      65.177   6.998   3.925  1.00  0.00     0.085 A 
HETATM    6  C   UNL     1      65.955   8.323   5.771  1.00  0.00     0.015 A 
HETATM    7  C   UNL     1      66.319   6.198   3.919  1.00  0.00     0.038 A 
HETATM    8  C   UNL     1      67.112   7.536   5.792  1.00  0.00     0.001 A 
HETATM    9  C   UNL     1      67.291   6.493   4.881  1.00  0.00     0.003 A 
ENDROOT
BRANCH   3  10
HETATM   10  C   UNL     1      63.006   9.761   5.113  1.00  0.00     0.067 C 
BRANCH  10  11
HETATM   11  C   UNL     1      62.204  10.611   4.129  1.00  0.00     0.168 C 
BRANCH  11  12
HETATM   12  O   UNL     1      62.206  11.987   4.497  1.00  0.00    -0.401 OA
HETATM   13  H   UNL     1      61.384  12.198   4.967  1.00  0.00     0.209 HD
ENDBRANCH  11  12
ENDBRANCH  10  11
ENDBRANCH   3  10
TORSDOF 3
ENDMDL
MODEL 9
REMARK VINA RESULT:      -4.3      2.923      4.669
REMARK  3 active torsions:
REMARK  status: ('A' for Active; 'I' for Inactive)
REMARK    1  A    between atoms: C_3  and  C_6 
REMARK    2  A    between atoms: C_6  and  C_10 
REMARK    3  A    between atoms: O_7  and  C_10 
ROOT
HETATM    1  O   UNL     1      64.913   9.219   5.830  1.00  0.00    -0.321 OA
HETATM    2  C   UNL     1      63.778   9.242   5.087  1.00  0.00     0.150 A 
HETATM    3  C   UNL     1      63.782   8.234   4.142  1.00  0.00    -0.021 A 
HETATM    4  C   UNL     1      65.020   7.542   4.324  1.00  0.00     0.006 A 
HETATM    5  C   UNL     1      65.669   8.184   5.372  1.00  0.00     0.085 A 
HETATM    6  C   UNL     1      65.660   6.445   3.715  1.00  0.00     0.015 A 
HETATM    7  C   UNL     1      66.915   7.807   5.870  1.00  0.00     0.038 A 
HETATM    8  C   UNL     1      66.914   6.045   4.192  1.00  0.00     0.001 A 
HETATM    9  C   UNL     1      67.529   6.714   5.252  1.00  0.00     0.003 A 
ENDROOT
BRANCH   3  10
HETATM   10  C   UNL     1      62.712   7.923   3.146  1.00  0.00     0.067 C 
BRANCH  10  11
HETATM   11  C   UNL     1      61.816   9.120   2.831  1.00  0.00     0.168 C 
BRANCH  11  12
HETATM   12  O   UNL     1      60.550   9.015   3.476  1.00  0.00    -0.401 OA
HETATM   13  H   UNL     1      59.867   8.819   2.816  1.00  0.00     0.209 HD
ENDBRANCH  11  12
ENDBRANCH  10  11
ENDBRANCH   3  10
TORSDOF 3
ENDMDL
