MODEL 1
REMARK VINA RESULT:      -4.0      0.000      0.000
REMARK  2 active torsions:
REMARK  status: ('A' for Active; 'I' for Inactive)
REMARK    1  A    between atoms: C_5  and  C_9 
REMARK    2  A    between atoms: C_9  and  N_11 
ROOT
HETATM    1  N   UNL     1      63.395   7.870   3.267  1.00  0.00    -0.352 N 
HETATM    2  C   UNL     1      64.496   7.559   3.971  1.00  0.00     0.052 A 
HETATM    3  C   UNL     1      64.662   8.385   5.010  1.00  0.00     0.033 A 
HETATM    4  C   UNL     1      63.644   9.301   5.017  1.00  0.00     0.048 A 
HETATM    5  C   UNL     1      62.856   8.946   3.915  1.00  0.00     0.038 A 
HETATM    6  S   UNL     1      66.021   7.981   5.900  1.00  0.00    -0.100 SA
HETATM    7  C   UNL     1      65.458   6.565   3.833  1.00  0.00     0.038 A 
HETATM    8  C   UNL     1      66.406   6.672   4.862  1.00  0.00     0.053 A 
HETATM    9  C   UNL     1      62.899   7.171   2.084  1.00  0.00     0.156 C 
ENDROOT
BRANCH   5  10
HETATM   10  C   UNL     1      61.576   9.636   3.534  1.00  0.00     0.288 C 
BRANCH  10  11
HETATM   11  N   UNL     1      61.776  11.088   3.428  1.00  0.00    -0.074 N 
HETATM   12  C   UNL     1      61.799  11.544   2.034  1.00  0.00     0.267 C 
HETATM   13  H   UNL     1      62.664  11.330   3.868  1.00  0.00     0.277 HD
HETATM   14  H   UNL     1      60.993  11.545   3.894  1.00  0.00     0.277 HD
ENDBRANCH  10  11
ENDBRANCH   5  10
TORSDOF 2
ENDMDL
MODEL 2
REMARK VINA RESULT:      -4.0      2.377      4.422
REMARK  2 active torsions:
REMARK  status: ('A' for Active; 'I' for Inactive)
REMARK    1  A    between atoms: C_5  and  C_9 
REMARK    2  A    between atoms: C_9  and  N_11 
ROOT
HETATM    1  N   UNL     1      63.621   7.556   3.670  1.00  0.00    -0.352 N 
HETATM    2  C   UNL     1      62.929   8.541   3.073  1.00  0.00     0.052 A 
HETATM    3  C   UNL     1      62.716   9.564   3.907  1.00  0.00     0.033 A 
HETATM    4  C   UNL     1      63.276   9.272   5.122  1.00  0.00     0.048 A 
HETATM    5  C   UNL     1      63.848   8.007   4.940  1.00  0.00     0.038 A 
HETATM    6  S   UNL     1      61.875  10.800   3.155  1.00  0.00    -0.100 SA
HETATM    7  C   UNL     1      62.416   8.694   1.790  1.00  0.00     0.038 A 
HETATM    8  C   UNL     1      61.780   9.939   1.675  1.00  0.00     0.053 A 
HETATM    9  C   UNL     1      64.044   6.301   3.054  1.00  0.00     0.156 C 
ENDROOT
BRANCH   5  10
HETATM   10  C   UNL     1      64.634   7.275   5.992  1.00  0.00     0.288 C 
BRANCH  10  11
HETATM   11  N   UNL     1      65.787   8.072   6.433  1.00  0.00    -0.074 N 
HETATM   12  C   UNL     1      66.663   7.325   7.342  1.00  0.00     0.267 C 
HETATM   13  H   UNL     1      65.445   8.904   6.916  1.00  0.00     0.277 HD
HETATM   14  H   UNL     1      66.330   8.319   5.607  1.00  0.00     0.277 HD
ENDBRANCH  10  11
ENDBRANCH   5  10
TORSDOF 2
ENDMDL
MODEL 3
REMARK VINA RESULT:      -3.9      1.288      2.115
REMARK  2 active torsions:
REMARK  status: ('A' for Active; 'I' for Inactive)
REMARK    1  A    between atoms: C_5  and  C_9 
REMARK    2  A    between atoms: C_9  and  N_11 
ROOT
HETATM    1  N   UNL     1      63.372   9.251   4.630  1.00  0.00    -0.352 N 
HETATM    2  C   UNL     1      64.408   8.400   4.705  1.00  0.00     0.052 A 
HETATM    3  C   UNL     1      64.308   7.425   3.794  1.00  0.00     0.033 A 
HETATM    4  C   UNL     1      63.158   7.609   3.071  1.00  0.00     0.048 A 
HETATM    5  C   UNL     1      62.596   8.772   3.613  1.00  0.00     0.038 A 
HETATM    6  S   UNL     1      65.611   6.379   3.873  1.00  0.00    -0.100 SA
HETATM    7  C   UNL     1      65.534   8.347   5.519  1.00  0.00     0.038 A 
HETATM    8  C   UNL     1      66.326   7.244   5.169  1.00  0.00     0.053 A 
HETATM    9  C   UNL     1      63.166  10.437   5.458  1.00  0.00     0.156 C 
ENDROOT
BRANCH   5  10
HETATM   10  C   UNL     1      61.334   9.414   3.107  1.00  0.00     0.288 C 
BRANCH  10  11
HETATM   11  N   UNL     1      61.587  10.157   1.864  1.00  0.00    -0.074 N 
HETATM   12  C   UNL     1      61.785  11.590   2.105  1.00  0.00     0.267 C 
HETATM   13  H   UNL     1      60.788  10.035   1.241  1.00  0.00     0.277 HD
HETATM   14  H   UNL     1      62.442   9.788   1.449  1.00  0.00     0.277 HD
ENDBRANCH  10  11
ENDBRANCH   5  10
TORSDOF 2
ENDMDL
MODEL 4
REMARK VINA RESULT:      -3.9      2.433      4.766
REMARK  2 active torsions:
REMARK  status: ('A' for Active; 'I' for Inactive)
REMARK    1  A    between atoms: C_5  and  C_9 
REMARK    2  A    between atoms: C_9  and  N_11 
ROOT
HETATM    1  N   UNL     1      63.363   9.167   4.375  1.00  0.00    -0.352 N 
HETATM    2  C   UNL     1      62.704   8.855   3.248  1.00  0.00     0.052 A 
HETATM    3  C   UNL     1      63.152   7.710   2.720  1.00  0.00     0.033 A 
HETATM    4  C   UNL     1      64.160   7.221   3.509  1.00  0.00     0.048 A 
HETATM    5  C   UNL     1      64.263   8.154   4.549  1.00  0.00     0.038 A 
HETATM    6  S   UNL     1      62.314   7.309   1.328  1.00  0.00    -0.100 SA
HETATM    7  C   UNL     1      61.671   9.472   2.553  1.00  0.00     0.038 A 
HETATM    8  C   UNL     1      61.331   8.711   1.424  1.00  0.00     0.053 A 
HETATM    9  C   UNL     1      63.125  10.335   5.220  1.00  0.00     0.156 C 
ENDROOT
BRANCH   5  10
HETATM   10  C   UNL     1      65.209   8.024   5.710  1.00  0.00     0.288 C 
BRANCH  10  11
HETATM   11  N   UNL     1      64.600   7.244   6.796  1.00  0.00    -0.074 N 
HETATM   12  C   UNL     1      65.600   6.509   7.580  1.00  0.00     0.267 C 
HETATM   13  H   UNL     1      63.943   6.576   6.392  1.00  0.00     0.277 HD
HETATM   14  H   UNL     1      64.129   7.896   7.423  1.00  0.00     0.277 HD
ENDBRANCH  10  11
ENDBRANCH   5  10
TORSDOF 2
ENDMDL
MODEL 5
REMARK VINA RESULT:      -3.8      2.066      2.941
REMARK  2 active torsions:
REMARK  status: ('A' for Active; 'I' for Inactive)
REMARK    1  A    between atoms: C_5  and  C_9 
REMARK    2  A    between atoms: C_9  and  N_11 
ROOT
HETATM    1  N   UNL     1      62.519   9.350   3.266  1.00  0.00    -0.352 N 
HETATM    2  C   UNL     1      63.447   8.669   3.959  1.00  0.00     0.052 A 
HETATM    3  C   UNL     1      63.729   7.498   3.379  1.00  0.00     0.033 A 
HETATM    4  C   UNL     1      62.964   7.365   2.250  1.00  0.00     0.048 A 
HETATM    5  C   UNL     1      62.220   8.550   2.199  1.00  0.00     0.038 A 
HETATM    6  S   UNL     1      64.903   6.662   4.229  1.00  0.00    -0.100 SA
HETATM    7  C   UNL     1      64.153   8.948   5.123  1.00  0.00     0.038 A 
HETATM    8  C   UNL     1      65.030   7.893   5.415  1.00  0.00     0.053 A 
HETATM    9  C   UNL     1      61.986  10.669   3.600  1.00  0.00     0.156 C 
ENDROOT
BRANCH   5  10
HETATM   10  C   UNL     1      61.260   8.899   1.096  1.00  0.00     0.288 C 
BRANCH  10  11
HETATM   11  N   UNL     1      59.888   8.510   1.454  1.00  0.00    -0.074 N 
HETATM   12  C   UNL     1      59.293   7.602   0.466  1.00  0.00     0.267 C 
HETATM   13  H   UNL     1      59.314   9.351   1.516  1.00  0.00     0.277 HD
HETATM   14  H   UNL     1      59.926   8.019   2.347  1.00  0.00     0.277 HD
ENDBRANCH  10  11
ENDBRANCH   5  10
TORSDOF 2
ENDMDL
MODEL 6
REMARK VINA RESULT:      -3.7      1.902      2.213
REMARK  2 active torsions:
REMARK  status: ('A' for Active; 'I' for Inactive)
REMARK    1  A    between atoms: C_5  and  C_9 
REMARK    2  A    between atoms: C_9  and  N_11 
ROOT
HETATM    1  N   UNL     1      63.232   7.212   5.859  1.00  0.00    -0.352 N 
HETATM    2  C   UNL     1      64.489   7.021   6.291  1.00  0.00     0.052 A 
HETATM    3  C   UNL     1      65.332   7.907   5.751  1.00  0.00     0.033 A 
HETATM    4  C   UNL     1      64.632   8.734   4.913  1.00  0.00     0.048 A 
HETATM    5  C   UNL     1      63.311   8.280   5.009  1.00  0.00     0.038 A 
HETATM    6  S   UNL     1      66.894   7.683   6.309  1.00  0.00    -0.100 SA
HETATM    7  C   UNL     1      65.059   6.109   7.172  1.00  0.00     0.038 A 
HETATM    8  C   UNL     1      66.435   6.355   7.291  1.00  0.00     0.053 A 
HETATM    9  C   UNL     1      62.055   6.441   6.253  1.00  0.00     0.156 C 
ENDROOT
BRANCH   5  10
HETATM   10  C   UNL     1      62.145   8.914   4.302  1.00  0.00     0.288 C 
BRANCH  10  11
HETATM   11  N   UNL     1      62.240  10.379   4.348  1.00  0.00    -0.074 N 
HETATM   12  C   UNL     1      61.889  10.998   3.064  1.00  0.00     0.267 C 
HETATM   13  H   UNL     1      63.197  10.639   4.588  1.00  0.00     0.277 HD
HETATM   14  H   UNL     1      61.578  10.713   5.048  1.00  0.00     0.277 HD
ENDBRANCH  10  11
ENDBRANCH   5  10
TORSDOF 2
ENDMDL
MODEL 7
REMARK VINA RESULT:      -3.6      2.741      4.555
REMARK  2 active torsions:
REMARK  status: ('A' for Active; 'I' for Inactive)
REMARK    1  A    between atoms: C_5  and  C_9 
REMARK    2  A    between atoms: C_9  and  N_11 
ROOT
HETATM    1  N   UNL     1      65.555   6.895   4.107  1.00  0.00    -0.352 N 
HETATM    2  C   UNL     1      64.337   7.199   3.629  1.00  0.00     0.052 A 
HETATM    3  C   UNL     1      63.832   8.282   4.231  1.00  0.00     0.033 A 
HETATM    4  C   UNL     1      64.731   8.735   5.160  1.00  0.00     0.048 A 
HETATM    5  C   UNL     1      65.810   7.849   5.052  1.00  0.00     0.038 A 
HETATM    6  S   UNL     1      62.325   8.674   3.618  1.00  0.00    -0.100 SA
HETATM    7  C   UNL     1      63.532   6.625   2.652  1.00  0.00     0.038 A 
HETATM    8  C   UNL     1      62.340   7.353   2.525  1.00  0.00     0.053 A 
HETATM    9  C   UNL     1      66.404   5.790   3.669  1.00  0.00     0.156 C 
ENDROOT
BRANCH   5  10
HETATM   10  C   UNL     1      67.083   7.967   5.843  1.00  0.00     0.288 C 
BRANCH  10  11
HETATM   11  N   UNL     1      66.798   8.053   7.282  1.00  0.00    -0.074 N 
HETATM   12  C   UNL     1      66.335   6.775   7.834  1.00  0.00     0.267 C 
HETATM   13  H   UNL     1      66.075   8.757   7.432  1.00  0.00     0.277 HD
HETATM   14  H   UNL     1      67.665   8.304   7.757  1.00  0.00     0.277 HD
ENDBRANCH  10  11
ENDBRANCH   5  10
TORSDOF 2
ENDMDL
MODEL 8
REMARK VINA RESULT:      -3.6      3.015      4.291
REMARK  2 active torsions:
REMARK  status: ('A' for Active; 'I' for Inactive)
REMARK    1  A    between atoms: C_5  and  C_9 
REMARK    2  A    between atoms: C_9  and  N_11 
ROOT
HETATM    1  N   UNL     1      65.851   5.867   6.059  1.00  0.00    -0.352 N 
HETATM    2  C   UNL     1      66.606   5.385   7.060  1.00  0.00     0.052 A 
HETATM    3  C   UNL     1      67.146   6.372   7.783  1.00  0.00     0.033 A 
HETATM    4  C   UNL     1      66.754   7.575   7.258  1.00  0.00     0.048 A 
HETATM    5  C   UNL     1      65.931   7.225   6.180  1.00  0.00     0.038 A 
HETATM    6  S   UNL     1      68.067   5.771   9.044  1.00  0.00    -0.100 SA
HETATM    7  C   UNL     1      66.915   4.096   7.477  1.00  0.00     0.038 A 
HETATM    8  C   UNL     1      67.747   4.145   8.606  1.00  0.00     0.053 A 
HETATM    9  C   UNL     1      65.100   5.077   5.086  1.00  0.00     0.156 C 
ENDROOT
BRANCH   5  10
HETATM   10  C   UNL     1      65.209   8.218   5.312  1.00  0.00     0.288 C 
BRANCH  10  11
HETATM   11  N   UNL     1      63.857   8.477   5.825  1.00  0.00    -0.074 N 
HETATM   12  C   UNL     1      63.171   9.535   5.075  1.00  0.00     0.267 C 
HETATM   13  H   UNL     1      63.926   8.759   6.803  1.00  0.00     0.277 HD
HETATM   14  H   UNL     1      63.315   7.619   5.723  1.00  0.00     0.277 HD
ENDBRANCH  10  11
ENDBRANCH   5  10
TORSDOF 2
ENDMDL
MODEL 9
REMARK VINA RESULT:      -3.4      2.903      4.732
REMARK  2 active torsions:
REMARK  status: ('A' for Active; 'I' for Inactive)
REMARK    1  A    between atoms: C_5  and  C_9 
REMARK    2  A    between atoms: C_9  and  N_11 
ROOT
HETATM    1  N   UNL     1      61.373   7.185   4.342  1.00  0.00    -0.352 N 
HETATM    2  C   UNL     1      61.264   7.756   3.132  1.00  0.00     0.052 A 
HETATM    3  C   UNL     1      62.295   8.569   2.879  1.00  0.00     0.033 A 
HETATM    4  C   UNL     1      63.141   8.563   3.957  1.00  0.00     0.048 A 
HETATM    5  C   UNL     1      62.540   7.675   4.858  1.00  0.00     0.038 A 
HETATM    6  S   UNL     1      62.171   9.261   1.361  1.00  0.00    -0.100 SA
HETATM    7  C   UNL     1      60.316   7.656   2.120  1.00  0.00     0.038 A 
HETATM    8  C   UNL     1      60.690   8.462   1.034  1.00  0.00     0.053 A 
HETATM    9  C   UNL     1      60.439   6.232   4.936  1.00  0.00     0.156 C 
ENDROOT
BRANCH   5  10
HETATM   10  C   UNL     1      63.130   7.291   6.187  1.00  0.00     0.288 C 
BRANCH  10  11
HETATM   11  N   UNL     1      64.556   7.640   6.247  1.00  0.00    -0.074 N 
HETATM   12  C   UNL     1      65.318   6.715   7.094  1.00  0.00     0.267 C 
HETATM   13  H   UNL     1      64.648   8.583   6.624  1.00  0.00     0.277 HD
HETATM   14  H   UNL     1      64.932   7.580   5.300  1.00  0.00     0.277 HD
ENDBRANCH  10  11
ENDBRANCH   5  10
TORSDOF 2
ENDMDL
