MODEL 1
REMARK VINA RESULT:      -5.5      0.000      0.000
REMARK  2 active torsions:
REMARK  status: ('A' for Active; 'I' for Inactive)
REMARK    1  A    between atoms: C_1  and  C_2 
REMARK    2  A    between atoms: C_3  and  C_11 
ROOT
HETATM    1  C   UNL     1      65.239   6.757   6.837  1.00  0.00     0.040 A 
HETATM    2  C   UNL     1      63.776   8.094   4.808  1.00  0.00    -0.025 A 
HETATM    3  C   UNL     1      65.826   7.799   6.119  1.00  0.00     0.019 A 
HETATM    4  C   UNL     1      63.922   6.385   6.561  1.00  0.00     0.019 A 
HETATM    5  C   UNL     1      65.101   8.457   5.121  1.00  0.00     0.013 A 
HETATM    6  C   UNL     1      63.211   7.036   5.545  1.00  0.00     0.013 A 
ENDROOT
BRANCH   2   7
HETATM    7  C   UNL     1      63.001   8.825   3.779  1.00  0.00    -0.011 A 
HETATM    8  C   UNL     1      62.396  10.061   4.034  1.00  0.00     0.099 A 
HETATM    9  N   UNL     1      61.705  10.801   3.130  1.00  0.00    -0.374 N 
HETATM   10  C   UNL     1      61.614  10.300   1.884  1.00  0.00     0.087 A 
ATOM     11  HN  UNL     1      61.278  11.692   3.382  1.00  0.00     0.164 HD
HETATM   12  C   UNL     1      62.161   9.087   1.510  1.00  0.00     0.018 A 
HETATM   13  C   UNL     1      62.849   8.345   2.469  1.00  0.00     0.015 A 
ENDBRANCH   2   7
BRANCH   1  14
HETATM   14  C   UNL     1      66.031   6.109   7.914  1.00  0.00     0.209 C 
HETATM   15  O   UNL     1      65.828   4.970   8.294  1.00  0.00    -0.644 OA
HETATM   16  O   UNL     1      66.963   6.918   8.461  1.00  0.00    -0.644 OA
ENDBRANCH   1  14
TORSDOF 2
ENDMDL
MODEL 2
REMARK VINA RESULT:      -5.4      4.032      6.192
REMARK  2 active torsions:
REMARK  status: ('A' for Active; 'I' for Inactive)
REMARK    1  A    between atoms: C_1  and  C_2 
REMARK    2  A    between atoms: C_3  and  C_11 
ROOT
HETATM    1  C   UNL     1      62.549   8.976   2.877  1.00  0.00     0.040 A 
HETATM    2  C   UNL     1      64.244   7.985   4.925  1.00  0.00    -0.025 A 
HETATM    3  C   UNL     1      62.755   9.721   4.038  1.00  0.00     0.019 A 
HETATM    4  C   UNL     1      63.192   7.747   2.721  1.00  0.00     0.019 A 
HETATM    5  C   UNL     1      63.593   9.229   5.045  1.00  0.00     0.013 A 
HETATM    6  C   UNL     1      64.013   7.254   3.744  1.00  0.00     0.013 A 
ENDROOT
BRANCH   2   7
HETATM    7  C   UNL     1      65.163   7.493   5.976  1.00  0.00    -0.011 A 
HETATM    8  C   UNL     1      66.348   8.160   6.307  1.00  0.00     0.099 A 
HETATM    9  N   UNL     1      67.215   7.787   7.282  1.00  0.00    -0.374 N 
HETATM   10  C   UNL     1      66.889   6.691   7.992  1.00  0.00     0.087 A 
ATOM     11  HN  UNL     1      68.071   8.311   7.467  1.00  0.00     0.164 HD
HETATM   12  C   UNL     1      65.751   5.943   7.758  1.00  0.00     0.018 A 
HETATM   13  C   UNL     1      64.892   6.345   6.736  1.00  0.00     0.015 A 
ENDBRANCH   2   7
BRANCH   1  14
HETATM   14  C   UNL     1      61.681   9.550   1.817  1.00  0.00     0.209 C 
HETATM   15  O   UNL     1      61.007   8.867   1.068  1.00  0.00    -0.644 OA
HETATM   16  O   UNL     1      61.746  10.896   1.734  1.00  0.00    -0.644 OA
ENDBRANCH   1  14
TORSDOF 2
ENDMDL
MODEL 3
REMARK VINA RESULT:      -5.2      2.208      2.796
REMARK  2 active torsions:
REMARK  status: ('A' for Active; 'I' for Inactive)
REMARK    1  A    between atoms: C_1  and  C_2 
REMARK    2  A    between atoms: C_3  and  C_11 
ROOT
HETATM    1  C   UNL     1      65.207   8.047   5.032  1.00  0.00     0.040 A 
HETATM    2  C   UNL     1      62.916   7.976   3.361  1.00  0.00    -0.025 A 
HETATM    3  C   UNL     1      65.038   7.008   4.116  1.00  0.00     0.019 A 
HETATM    4  C   UNL     1      64.249   9.059   5.111  1.00  0.00     0.019 A 
HETATM    5  C   UNL     1      63.907   6.978   3.293  1.00  0.00     0.013 A 
HETATM    6  C   UNL     1      63.110   9.009   4.297  1.00  0.00     0.013 A 
ENDROOT
BRANCH   2   7
HETATM    7  C   UNL     1      61.744   7.959   2.455  1.00  0.00    -0.011 A 
HETATM    8  C   UNL     1      60.430   7.908   2.931  1.00  0.00     0.099 A 
HETATM    9  N   UNL     1      59.312   7.927   2.162  1.00  0.00    -0.374 N 
HETATM   10  C   UNL     1      59.497   8.018   0.832  1.00  0.00     0.087 A 
ATOM     11  HN  UNL     1      58.379   7.876   2.571  1.00  0.00     0.164 HD
HETATM   12  C   UNL     1      60.744   8.069   0.239  1.00  0.00     0.018 A 
HETATM   13  C   UNL     1      61.871   8.028   1.059  1.00  0.00     0.015 A 
ENDBRANCH   2   7
BRANCH   1  14
HETATM   14  C   UNL     1      66.439   8.062   5.862  1.00  0.00     0.209 C 
HETATM   15  O   UNL     1      66.607   8.836   6.786  1.00  0.00    -0.644 OA
HETATM   16  O   UNL     1      67.369   7.167   5.464  1.00  0.00    -0.644 OA
ENDBRANCH   1  14
TORSDOF 2
ENDMDL
MODEL 4
REMARK VINA RESULT:      -5.1      3.948      6.355
REMARK  2 active torsions:
REMARK  status: ('A' for Active; 'I' for Inactive)
REMARK    1  A    between atoms: C_1  and  C_2 
REMARK    2  A    between atoms: C_3  and  C_11 
ROOT
HETATM    1  C   UNL     1      62.917   8.760   4.766  1.00  0.00     0.040 A 
HETATM    2  C   UNL     1      64.657   7.208   6.382  1.00  0.00    -0.025 A 
HETATM    3  C   UNL     1      64.248   9.142   4.930  1.00  0.00     0.019 A 
HETATM    4  C   UNL     1      62.449   7.602   5.389  1.00  0.00     0.019 A 
HETATM    5  C   UNL     1      65.104   8.373   5.726  1.00  0.00     0.013 A 
HETATM    6  C   UNL     1      63.308   6.850   6.202  1.00  0.00     0.013 A 
ENDROOT
BRANCH   2   7
HETATM    7  C   UNL     1      65.581   6.377   7.187  1.00  0.00    -0.011 A 
HETATM    8  C   UNL     1      65.417   4.994   7.325  1.00  0.00     0.099 A 
HETATM    9  N   UNL     1      66.244   4.168   8.015  1.00  0.00    -0.374 N 
HETATM   10  C   UNL     1      67.315   4.737   8.598  1.00  0.00     0.087 A 
ATOM     11  HN  UNL     1      66.063   3.167   8.087  1.00  0.00     0.164 HD
HETATM   12  C   UNL     1      67.583   6.092   8.541  1.00  0.00     0.018 A 
HETATM   13  C   UNL     1      66.702   6.914   7.839  1.00  0.00     0.015 A 
ENDBRANCH   2   7
BRANCH   1  14
HETATM   14  C   UNL     1      62.051   9.583   3.883  1.00  0.00     0.209 C 
HETATM   15  O   UNL     1      61.705  10.716   4.162  1.00  0.00    -0.644 OA
HETATM   16  O   UNL     1      61.650   8.939   2.766  1.00  0.00    -0.644 OA
ENDBRANCH   1  14
TORSDOF 2
ENDMDL
MODEL 5
REMARK VINA RESULT:      -5.0      3.910      6.326
REMARK  2 active torsions:
REMARK  status: ('A' for Active; 'I' for Inactive)
REMARK    1  A    between atoms: C_1  and  C_2 
REMARK    2  A    between atoms: C_3  and  C_11 
ROOT
HETATM    1  C   UNL     1      62.785   8.621   4.683  1.00  0.00     0.040 A 
HETATM    2  C   UNL     1      64.749   7.261   6.212  1.00  0.00    -0.025 A 
HETATM    3  C   UNL     1      62.436   7.497   5.433  1.00  0.00     0.019 A 
HETATM    4  C   UNL     1      64.102   9.082   4.701  1.00  0.00     0.019 A 
HETATM    5  C   UNL     1      63.408   6.830   6.187  1.00  0.00     0.013 A 
HETATM    6  C   UNL     1      65.072   8.395   5.443  1.00  0.00     0.013 A 
ENDROOT
BRANCH   2   7
HETATM    7  C   UNL     1      65.762   6.575   7.047  1.00  0.00    -0.011 A 
HETATM    8  C   UNL     1      66.766   7.270   7.730  1.00  0.00     0.099 A 
HETATM    9  N   UNL     1      67.700   6.711   8.540  1.00  0.00    -0.374 N 
HETATM   10  C   UNL     1      67.635   5.376   8.703  1.00  0.00     0.087 A 
ATOM     11  HN  UNL     1      68.414   7.273   9.002  1.00  0.00     0.164 HD
HETATM   12  C   UNL     1      66.696   4.578   8.078  1.00  0.00     0.018 A 
HETATM   13  C   UNL     1      65.763   5.184   7.238  1.00  0.00     0.015 A 
ENDBRANCH   2   7
BRANCH   1  14
HETATM   14  C   UNL     1      61.716   9.322   3.926  1.00  0.00     0.209 C 
HETATM   15  O   UNL     1      60.954   8.749   3.169  1.00  0.00    -0.644 OA
HETATM   16  O   UNL     1      61.701  10.658   4.123  1.00  0.00    -0.644 OA
ENDBRANCH   1  14
TORSDOF 2
ENDMDL
MODEL 6
REMARK VINA RESULT:      -5.0      4.082      6.244
REMARK  2 active torsions:
REMARK  status: ('A' for Active; 'I' for Inactive)
REMARK    1  A    between atoms: C_1  and  C_2 
REMARK    2  A    between atoms: C_3  and  C_11 
ROOT
HETATM    1  C   UNL     1      62.808   8.522   3.145  1.00  0.00     0.040 A 
HETATM    2  C   UNL     1      64.936   7.497   4.715  1.00  0.00    -0.025 A 
HETATM    3  C   UNL     1      63.413   7.313   2.802  1.00  0.00     0.019 A 
HETATM    4  C   UNL     1      63.245   9.218   4.273  1.00  0.00     0.019 A 
HETATM    5  C   UNL     1      64.461   6.810   3.580  1.00  0.00     0.013 A 
HETATM    6  C   UNL     1      64.310   8.717   5.033  1.00  0.00     0.013 A 
ENDROOT
BRANCH   2   7
HETATM    7  C   UNL     1      66.017   6.936   5.557  1.00  0.00    -0.011 A 
HETATM    8  C   UNL     1      66.426   7.540   6.752  1.00  0.00     0.099 A 
HETATM    9  N   UNL     1      67.381   7.062   7.589  1.00  0.00    -0.374 N 
HETATM   10  C   UNL     1      67.966   5.902   7.237  1.00  0.00     0.087 A 
ATOM     11  HN  UNL     1      67.642   7.556   8.442  1.00  0.00     0.164 HD
HETATM   12  C   UNL     1      67.655   5.213   6.080  1.00  0.00     0.018 A 
HETATM   13  C   UNL     1      66.682   5.743   5.233  1.00  0.00     0.015 A 
ENDBRANCH   2   7
BRANCH   1  14
HETATM   14  C   UNL     1      61.674   9.002   2.314  1.00  0.00     0.209 C 
HETATM   15  O   UNL     1      61.718  10.029   1.660  1.00  0.00    -0.644 OA
HETATM   16  O   UNL     1      60.577   8.218   2.390  1.00  0.00    -0.644 OA
ENDBRANCH   1  14
TORSDOF 2
ENDMDL
MODEL 7
REMARK VINA RESULT:      -4.8      4.008      5.228
REMARK  2 active torsions:
REMARK  status: ('A' for Active; 'I' for Inactive)
REMARK    1  A    between atoms: C_1  and  C_2 
REMARK    2  A    between atoms: C_3  and  C_11 
ROOT
HETATM    1  C   UNL     1      63.076   9.662   4.451  1.00  0.00     0.040 A 
HETATM    2  C   UNL     1      63.542   7.269   3.000  1.00  0.00    -0.025 A 
HETATM    3  C   UNL     1      62.344   9.388   3.296  1.00  0.00     0.019 A 
HETATM    4  C   UNL     1      64.029   8.745   4.898  1.00  0.00     0.019 A 
HETATM    5  C   UNL     1      62.576   8.206   2.584  1.00  0.00     0.013 A 
HETATM    6  C   UNL     1      64.268   7.575   4.167  1.00  0.00     0.013 A 
ENDROOT
BRANCH   2   7
HETATM    7  C   UNL     1      63.750   6.001   2.265  1.00  0.00    -0.011 A 
HETATM    8  C   UNL     1      64.146   4.821   2.904  1.00  0.00     0.099 A 
HETATM    9  N   UNL     1      64.318   3.618   2.300  1.00  0.00    -0.374 N 
HETATM   10  C   UNL     1      64.071   3.566   0.978  1.00  0.00     0.087 A 
ATOM     11  HN  UNL     1      64.619   2.795   2.822  1.00  0.00     0.164 HD
HETATM   12  C   UNL     1      63.683   4.663   0.233  1.00  0.00     0.018 A 
HETATM   13  C   UNL     1      63.533   5.888   0.883  1.00  0.00     0.015 A 
ENDBRANCH   2   7
BRANCH   1  14
HETATM   14  C   UNL     1      62.773  10.910   5.198  1.00  0.00     0.209 C 
HETATM   15  O   UNL     1      63.154  11.111   6.337  1.00  0.00    -0.644 OA
HETATM   16  O   UNL     1      61.999  11.777   4.511  1.00  0.00    -0.644 OA
ENDBRANCH   1  14
TORSDOF 2
ENDMDL
MODEL 8
REMARK VINA RESULT:      -4.5      4.272      6.264
REMARK  2 active torsions:
REMARK  status: ('A' for Active; 'I' for Inactive)
REMARK    1  A    between atoms: C_1  and  C_2 
REMARK    2  A    between atoms: C_3  and  C_11 
ROOT
HETATM    1  C   UNL     1      61.707   7.823   2.405  1.00  0.00     0.040 A 
HETATM    2  C   UNL     1      64.166   7.522   3.788  1.00  0.00    -0.025 A 
HETATM    3  C   UNL     1      62.071   8.735   3.396  1.00  0.00     0.019 A 
HETATM    4  C   UNL     1      62.566   6.770   2.088  1.00  0.00     0.019 A 
HETATM    5  C   UNL     1      63.285   8.584   4.074  1.00  0.00     0.013 A 
HETATM    6  C   UNL     1      63.770   6.615   2.787  1.00  0.00     0.013 A 
ENDROOT
BRANCH   2   7
HETATM    7  C   UNL     1      65.469   7.395   4.481  1.00  0.00    -0.011 A 
HETATM    8  C   UNL     1      66.505   6.596   3.986  1.00  0.00     0.099 A 
HETATM    9  N   UNL     1      67.734   6.463   4.547  1.00  0.00    -0.374 N 
HETATM   10  C   UNL     1      67.966   7.176   5.664  1.00  0.00     0.087 A 
ATOM     11  HN  UNL     1      68.445   5.854   4.142  1.00  0.00     0.164 HD
HETATM   12  C   UNL     1      67.023   7.996   6.255  1.00  0.00     0.018 A 
HETATM   13  C   UNL     1      65.765   8.094   5.661  1.00  0.00     0.015 A 
ENDBRANCH   2   7
BRANCH   1  14
HETATM   14  C   UNL     1      60.427   8.040   1.684  1.00  0.00     0.209 C 
HETATM   15  O   UNL     1      60.362   8.576   0.593  1.00  0.00    -0.644 OA
HETATM   16  O   UNL     1      59.341   7.628   2.373  1.00  0.00    -0.644 OA
ENDBRANCH   1  14
TORSDOF 2
ENDMDL
MODEL 9
REMARK VINA RESULT:      -4.4      2.073      2.657
REMARK  2 active torsions:
REMARK  status: ('A' for Active; 'I' for Inactive)
REMARK    1  A    between atoms: C_1  and  C_2 
REMARK    2  A    between atoms: C_3  and  C_11 
ROOT
HETATM    1  C   UNL     1      62.815   5.409   5.791  1.00  0.00     0.040 A 
HETATM    2  C   UNL     1      62.347   7.755   4.267  1.00  0.00    -0.025 A 
HETATM    3  C   UNL     1      62.254   5.317   4.517  1.00  0.00     0.019 A 
HETATM    4  C   UNL     1      63.158   6.659   6.306  1.00  0.00     0.019 A 
HETATM    5  C   UNL     1      62.026   6.477   3.768  1.00  0.00     0.013 A 
HETATM    6  C   UNL     1      62.907   7.816   5.557  1.00  0.00     0.013 A 
ENDROOT
BRANCH   2   7
HETATM    7  C   UNL     1      62.143   8.973   3.450  1.00  0.00    -0.011 A 
HETATM    8  C   UNL     1      61.946  10.235   4.022  1.00  0.00     0.099 A 
HETATM    9  N   UNL     1      61.790  11.395   3.336  1.00  0.00    -0.374 N 
HETATM   10  C   UNL     1      61.847  11.314   1.994  1.00  0.00     0.087 A 
ATOM     11  HN  UNL     1      61.639  12.284   3.814  1.00  0.00     0.164 HD
HETATM   12  C   UNL     1      62.029  10.127   1.310  1.00  0.00     0.018 A 
HETATM   13  C   UNL     1      62.167   8.951   2.047  1.00  0.00     0.015 A 
ENDBRANCH   2   7
BRANCH   1  14
HETATM   14  C   UNL     1      63.074   4.151   6.538  1.00  0.00     0.209 C 
HETATM   15  O   UNL     1      62.232   3.600   7.222  1.00  0.00    -0.644 OA
HETATM   16  O   UNL     1      64.343   3.705   6.422  1.00  0.00    -0.644 OA
ENDBRANCH   1  14
TORSDOF 2
ENDMDL
