MODEL 1
REMARK VINA RESULT:      -4.9      0.000      0.000
REMARK  3 active torsions:
REMARK  status: ('A' for Active; 'I' for Inactive)
REMARK    1  A    between atoms: C_1  and  C_5 
REMARK    2  A    between atoms: N_12  and  C_14 
REMARK    3  A    between atoms: C_13  and  C_14 
ROOT
HETATM    1  C   UNL     1      64.747   7.654   5.151  1.00  0.00    -0.002 A 
HETATM    2  C   UNL     1      64.158   8.907   5.376  1.00  0.00     0.015 A 
HETATM    3  C   UNL     1      64.387   6.953   3.991  1.00  0.00     0.015 A 
HETATM    4  C   UNL     1      63.478   7.495   3.076  1.00  0.00     0.010 A 
HETATM    5  C   UNL     1      63.242   9.450   4.464  1.00  0.00     0.010 A 
HETATM    6  C   UNL     1      62.888   8.745   3.306  1.00  0.00    -0.033 A 
ENDROOT
BRANCH   1   7
HETATM    7  C   UNL     1      65.691   7.107   6.139  1.00  0.00     0.084 A 
HETATM    8  N   UNL     1      65.432   6.968   7.425  1.00  0.00    -0.359 N 
HETATM    9  C   UNL     1      66.519   6.417   8.076  1.00  0.00     0.096 A 
ATOM     10  HN  UNL     1      64.554   7.229   7.875  1.00  0.00     0.166 HD
HETATM   11  C   UNL     1      67.620   6.173   7.288  1.00  0.00     0.069 A 
HETATM   12  S   UNL     1      67.289   6.635   5.675  1.00  0.00    -0.082 SA
ENDBRANCH   1   7
BRANCH   6  13
HETATM   13  C   UNL     1      61.886   9.315   2.328  1.00  0.00     0.270 C 
BRANCH  13  14
HETATM   14  N   UNL     1      61.351  10.592   2.802  1.00  0.00    -0.075 N 
HETATM   15  C   UNL     1      61.753  11.686   1.933  1.00  0.00     0.267 C 
HETATM   16  H   UNL     1      61.701  10.770   3.744  1.00  0.00     0.277 HD
HETATM   17  H   UNL     1      60.332  10.536   2.801  1.00  0.00     0.277 HD
ENDBRANCH  13  14
ENDBRANCH   6  13
TORSDOF 3
ENDMDL
MODEL 2
REMARK VINA RESULT:      -4.8      1.350      2.068
REMARK  3 active torsions:
REMARK  status: ('A' for Active; 'I' for Inactive)
REMARK    1  A    between atoms: C_1  and  C_5 
REMARK    2  A    between atoms: N_12  and  C_14 
REMARK    3  A    between atoms: C_13  and  C_14 
ROOT
HETATM    1  C   UNL     1      64.091   8.014   4.712  1.00  0.00    -0.002 A 
HETATM    2  C   UNL     1      63.933   7.239   3.553  1.00  0.00     0.015 A 
HETATM    3  C   UNL     1      63.380   9.219   4.804  1.00  0.00     0.015 A 
HETATM    4  C   UNL     1      62.524   9.630   3.777  1.00  0.00     0.010 A 
HETATM    5  C   UNL     1      63.080   7.651   2.519  1.00  0.00     0.010 A 
HETATM    6  C   UNL     1      62.371   8.856   2.619  1.00  0.00    -0.033 A 
ENDROOT
BRANCH   1   7
HETATM    7  C   UNL     1      65.008   7.559   5.770  1.00  0.00     0.084 A 
HETATM    8  N   UNL     1      64.624   7.025   6.914  1.00  0.00    -0.359 N 
HETATM    9  C   UNL     1      65.724   6.696   7.682  1.00  0.00     0.096 A 
ATOM     10  HN  UNL     1      63.654   6.877   7.191  1.00  0.00     0.166 HD
HETATM   11  C   UNL     1      66.946   7.017   7.136  1.00  0.00     0.069 A 
HETATM   12  S   UNL     1      66.720   7.744   5.604  1.00  0.00    -0.082 SA
ENDBRANCH   1   7
BRANCH   6  13
HETATM   13  C   UNL     1      61.466   9.316   1.499  1.00  0.00     0.270 C 
BRANCH  13  14
HETATM   14  N   UNL     1      60.130   8.731   1.624  1.00  0.00    -0.075 N 
HETATM   15  C   UNL     1      59.763   7.996   0.424  1.00  0.00     0.267 C 
HETATM   16  H   UNL     1      59.453   9.479   1.775  1.00  0.00     0.277 HD
HETATM   17  H   UNL     1      60.133   8.082   2.411  1.00  0.00     0.277 HD
ENDBRANCH  13  14
ENDBRANCH   6  13
TORSDOF 3
ENDMDL
MODEL 3
REMARK VINA RESULT:      -4.4      2.410      6.349
REMARK  3 active torsions:
REMARK  status: ('A' for Active; 'I' for Inactive)
REMARK    1  A    between atoms: C_1  and  C_5 
REMARK    2  A    between atoms: N_12  and  C_14 
REMARK    3  A    between atoms: C_13  and  C_14 
ROOT
HETATM    1  C   UNL     1      65.008   7.797   5.481  1.00  0.00    -0.002 A 
HETATM    2  C   UNL     1      64.718   6.943   6.555  1.00  0.00     0.015 A 
HETATM    3  C   UNL     1      66.267   7.690   4.872  1.00  0.00     0.015 A 
HETATM    4  C   UNL     1      67.202   6.749   5.315  1.00  0.00     0.010 A 
HETATM    5  C   UNL     1      65.655   6.003   7.004  1.00  0.00     0.010 A 
HETATM    6  C   UNL     1      66.910   5.900   6.392  1.00  0.00    -0.033 A 
ENDROOT
BRANCH   1   7
HETATM    7  C   UNL     1      64.006   8.784   5.047  1.00  0.00     0.084 A 
HETATM    8  N   UNL     1      63.727   9.901   5.692  1.00  0.00    -0.359 N 
HETATM    9  C   UNL     1      62.752  10.612   5.021  1.00  0.00     0.096 A 
ATOM     10  HN  UNL     1      64.168  10.196   6.563  1.00  0.00     0.166 HD
HETATM   11  C   UNL     1      62.262  10.015   3.881  1.00  0.00     0.069 A 
HETATM   12  S   UNL     1      63.052   8.519   3.629  1.00  0.00    -0.082 SA
ENDBRANCH   1   7
BRANCH   6  13
HETATM   13  C   UNL     1      67.933   4.902   6.883  1.00  0.00     0.270 C 
BRANCH  13  14
HETATM   14  N   UNL     1      67.296   3.808   7.617  1.00  0.00    -0.075 N 
HETATM   15  C   UNL     1      67.905   3.625   8.924  1.00  0.00     0.267 C 
HETATM   16  H   UNL     1      67.395   2.946   7.081  1.00  0.00     0.277 HD
HETATM   17  H   UNL     1      66.311   4.038   7.750  1.00  0.00     0.277 HD
ENDBRANCH  13  14
ENDBRANCH   6  13
TORSDOF 3
ENDMDL
MODEL 4
REMARK VINA RESULT:      -4.3      2.582      6.124
REMARK  3 active torsions:
REMARK  status: ('A' for Active; 'I' for Inactive)
REMARK    1  A    between atoms: C_1  and  C_5 
REMARK    2  A    between atoms: N_12  and  C_14 
REMARK    3  A    between atoms: C_13  and  C_14 
ROOT
HETATM    1  C   UNL     1      63.341   7.825   3.405  1.00  0.00    -0.002 A 
HETATM    2  C   UNL     1      64.273   6.793   3.214  1.00  0.00     0.015 A 
HETATM    3  C   UNL     1      63.616   8.791   4.384  1.00  0.00     0.015 A 
HETATM    4  C   UNL     1      64.793   8.737   5.138  1.00  0.00     0.010 A 
HETATM    5  C   UNL     1      65.450   6.733   3.973  1.00  0.00     0.010 A 
HETATM    6  C   UNL     1      65.719   7.702   4.948  1.00  0.00    -0.033 A 
ENDROOT
BRANCH   1   7
HETATM    7  C   UNL     1      62.108   7.847   2.603  1.00  0.00     0.084 A 
HETATM    8  N   UNL     1      61.071   7.055   2.801  1.00  0.00    -0.359 N 
HETATM    9  C   UNL     1      60.073   7.335   1.888  1.00  0.00     0.096 A 
ATOM     10  HN  UNL     1      61.015   6.338   3.524  1.00  0.00     0.166 HD
HETATM   11  C   UNL     1      60.367   8.317   0.970  1.00  0.00     0.069 A 
HETATM   12  S   UNL     1      61.940   8.923   1.259  1.00  0.00    -0.082 SA
ENDBRANCH   1   7
BRANCH   6  13
HETATM   13  C   UNL     1      66.977   7.632   5.783  1.00  0.00     0.270 C 
BRANCH  13  14
HETATM   14  N   UNL     1      66.706   7.981   7.178  1.00  0.00    -0.075 N 
HETATM   15  C   UNL     1      66.419   6.797   7.972  1.00  0.00     0.267 C 
HETATM   16  H   UNL     1      65.901   8.607   7.215  1.00  0.00     0.277 HD
HETATM   17  H   UNL     1      67.533   8.436   7.565  1.00  0.00     0.277 HD
ENDBRANCH  13  14
ENDBRANCH   6  13
TORSDOF 3
ENDMDL
MODEL 5
REMARK VINA RESULT:      -4.1      2.052      6.182
REMARK  3 active torsions:
REMARK  status: ('A' for Active; 'I' for Inactive)
REMARK    1  A    between atoms: C_1  and  C_5 
REMARK    2  A    between atoms: N_12  and  C_14 
REMARK    3  A    between atoms: C_13  and  C_14 
ROOT
HETATM    1  C   UNL     1      63.563   8.162   4.474  1.00  0.00    -0.002 A 
HETATM    2  C   UNL     1      64.965   8.205   4.518  1.00  0.00     0.015 A 
HETATM    3  C   UNL     1      62.889   7.488   5.503  1.00  0.00     0.015 A 
HETATM    4  C   UNL     1      63.594   6.888   6.551  1.00  0.00     0.010 A 
HETATM    5  C   UNL     1      65.674   7.599   5.564  1.00  0.00     0.010 A 
HETATM    6  C   UNL     1      64.994   6.928   6.589  1.00  0.00    -0.033 A 
ENDROOT
BRANCH   1   7
HETATM    7  C   UNL     1      62.852   8.795   3.351  1.00  0.00     0.084 A 
HETATM    8  N   UNL     1      62.417  10.041   3.348  1.00  0.00    -0.359 N 
HETATM    9  C   UNL     1      61.803  10.331   2.145  1.00  0.00     0.096 A 
ATOM     10  HN  UNL     1      62.520  10.697   4.122  1.00  0.00     0.166 HD
HETATM   11  C   UNL     1      61.737   9.290   1.247  1.00  0.00     0.069 A 
HETATM   12  S   UNL     1      62.477   7.902   1.919  1.00  0.00    -0.082 SA
ENDBRANCH   1   7
BRANCH   6  13
HETATM   13  C   UNL     1      65.753   6.254   7.710  1.00  0.00     0.270 C 
BRANCH  13  14
HETATM   14  N   UNL     1      67.017   6.940   7.981  1.00  0.00    -0.075 N 
HETATM   15  C   UNL     1      68.075   5.993   8.293  1.00  0.00     0.267 C 
HETATM   16  H   UNL     1      66.891   7.570   8.773  1.00  0.00     0.277 HD
HETATM   17  H   UNL     1      67.288   7.462   7.147  1.00  0.00     0.277 HD
ENDBRANCH  13  14
ENDBRANCH   6  13
TORSDOF 3
ENDMDL
MODEL 6
REMARK VINA RESULT:      -3.9      2.966      6.059
REMARK  3 active torsions:
REMARK  status: ('A' for Active; 'I' for Inactive)
REMARK    1  A    between atoms: C_1  and  C_5 
REMARK    2  A    between atoms: N_12  and  C_14 
REMARK    3  A    between atoms: C_13  and  C_14 
ROOT
HETATM    1  C   UNL     1      62.887   7.373   5.115  1.00  0.00    -0.002 A 
HETATM    2  C   UNL     1      63.781   8.259   4.495  1.00  0.00     0.015 A 
HETATM    3  C   UNL     1      63.350   6.620   6.204  1.00  0.00     0.015 A 
HETATM    4  C   UNL     1      64.662   6.758   6.668  1.00  0.00     0.010 A 
HETATM    5  C   UNL     1      65.098   8.395   4.954  1.00  0.00     0.010 A 
HETATM    6  C   UNL     1      65.554   7.640   6.043  1.00  0.00    -0.033 A 
ENDROOT
BRANCH   1   7
HETATM    7  C   UNL     1      61.516   7.243   4.596  1.00  0.00     0.084 A 
HETATM    8  N   UNL     1      60.629   6.370   5.035  1.00  0.00    -0.359 N 
HETATM    9  C   UNL     1      59.437   6.511   4.350  1.00  0.00     0.096 A 
ATOM     10  HN  UNL     1      60.798   5.689   5.775  1.00  0.00     0.166 HD
HETATM   11  C   UNL     1      59.432   7.469   3.362  1.00  0.00     0.069 A 
HETATM   12  S   UNL     1      60.962   8.230   3.288  1.00  0.00    -0.082 SA
ENDBRANCH   1   7
BRANCH   6  13
HETATM   13  C   UNL     1      66.980   7.767   6.531  1.00  0.00     0.270 C 
BRANCH  13  14
HETATM   14  N   UNL     1      67.216   6.920   7.700  1.00  0.00    -0.075 N 
HETATM   15  C   UNL     1      68.075   5.794   7.370  1.00  0.00     0.267 C 
HETATM   16  H   UNL     1      66.322   6.566   8.041  1.00  0.00     0.277 HD
HETATM   17  H   UNL     1      67.679   7.479   8.417  1.00  0.00     0.277 HD
ENDBRANCH  13  14
ENDBRANCH   6  13
TORSDOF 3
ENDMDL
MODEL 7
REMARK VINA RESULT:      -3.8      2.186      2.520
REMARK  3 active torsions:
REMARK  status: ('A' for Active; 'I' for Inactive)
REMARK    1  A    between atoms: C_1  and  C_5 
REMARK    2  A    between atoms: N_12  and  C_14 
REMARK    3  A    between atoms: C_13  and  C_14 
ROOT
HETATM    1  C   UNL     1      63.909   6.724   5.191  1.00  0.00    -0.002 A 
HETATM    2  C   UNL     1      62.631   6.822   4.622  1.00  0.00     0.015 A 
HETATM    3  C   UNL     1      64.624   7.908   5.421  1.00  0.00     0.015 A 
HETATM    4  C   UNL     1      64.072   9.154   5.107  1.00  0.00     0.010 A 
HETATM    5  C   UNL     1      62.077   8.069   4.300  1.00  0.00     0.010 A 
HETATM    6  C   UNL     1      62.796   9.249   4.534  1.00  0.00    -0.033 A 
ENDROOT
BRANCH   1   7
HETATM    7  C   UNL     1      64.466   5.397   5.501  1.00  0.00     0.084 A 
HETATM    8  N   UNL     1      65.525   5.188   6.260  1.00  0.00    -0.359 N 
HETATM    9  C   UNL     1      65.782   3.835   6.363  1.00  0.00     0.096 A 
ATOM     10  HN  UNL     1      66.075   5.921   6.708  1.00  0.00     0.166 HD
HETATM   11  C   UNL     1      64.939   3.015   5.648  1.00  0.00     0.069 A 
HETATM   12  S   UNL     1      63.775   3.962   4.827  1.00  0.00    -0.082 SA
ENDBRANCH   1   7
BRANCH   6  13
HETATM   13  C   UNL     1      62.214  10.596   4.170  1.00  0.00     0.270 C 
BRANCH  13  14
HETATM   14  N   UNL     1      61.442  10.521   2.929  1.00  0.00    -0.075 N 
HETATM   15  C   UNL     1      61.787  11.609   2.029  1.00  0.00     0.267 C 
HETATM   16  H   UNL     1      60.448  10.578   3.152  1.00  0.00     0.277 HD
HETATM   17  H   UNL     1      61.658   9.639   2.466  1.00  0.00     0.277 HD
ENDBRANCH  13  14
ENDBRANCH   6  13
TORSDOF 3
ENDMDL
MODEL 8
REMARK VINA RESULT:      -3.8     12.046     14.088
REMARK  3 active torsions:
REMARK  status: ('A' for Active; 'I' for Inactive)
REMARK    1  A    between atoms: C_1  and  C_5 
REMARK    2  A    between atoms: N_12  and  C_14 
REMARK    3  A    between atoms: C_13  and  C_14 
ROOT
HETATM    1  C   UNL     1      57.840   0.409  13.579  1.00  0.00    -0.002 A 
HETATM    2  C   UNL     1      58.888   1.240  13.156  1.00  0.00     0.015 A 
HETATM    3  C   UNL     1      58.087  -0.968  13.680  1.00  0.00     0.015 A 
HETATM    4  C   UNL     1      59.347  -1.496  13.382  1.00  0.00     0.010 A 
HETATM    5  C   UNL     1      60.150   0.712  12.851  1.00  0.00     0.010 A 
HETATM    6  C   UNL     1      60.391  -0.664  12.955  1.00  0.00    -0.033 A 
ENDROOT
BRANCH   1   7
HETATM    7  C   UNL     1      56.522   0.995  13.874  1.00  0.00     0.084 A 
HETATM    8  N   UNL     1      55.652   0.487  14.726  1.00  0.00    -0.359 N 
HETATM    9  C   UNL     1      54.521   1.278  14.783  1.00  0.00     0.096 A 
ATOM     10  HN  UNL     1      55.793  -0.367  15.265  1.00  0.00     0.166 HD
HETATM   11  C   UNL     1      54.517   2.369  13.944  1.00  0.00     0.069 A 
HETATM   12  S   UNL     1      55.979   2.420  13.059  1.00  0.00    -0.082 SA
ENDBRANCH   1   7
BRANCH   6  13
HETATM   13  C   UNL     1      61.744  -1.242  12.608  1.00  0.00     0.270 C 
BRANCH  13  14
HETATM   14  N   UNL     1      62.814  -0.278  12.866  1.00  0.00    -0.075 N 
HETATM   15  C   UNL     1      64.000  -0.585  12.083  1.00  0.00     0.267 C 
HETATM   16  H   UNL     1      63.055  -0.305  13.857  1.00  0.00     0.277 HD
HETATM   17  H   UNL     1      62.484   0.650  12.601  1.00  0.00     0.277 HD
ENDBRANCH  13  14
ENDBRANCH   6  13
TORSDOF 3
ENDMDL
MODEL 9
REMARK VINA RESULT:      -3.7      3.615      6.577
REMARK  3 active torsions:
REMARK  status: ('A' for Active; 'I' for Inactive)
REMARK    1  A    between atoms: C_1  and  C_5 
REMARK    2  A    between atoms: N_12  and  C_14 
REMARK    3  A    between atoms: C_13  and  C_14 
ROOT
HETATM    1  C   UNL     1      60.821   7.832   3.758  1.00  0.00    -0.002 A 
HETATM    2  C   UNL     1      61.419   7.073   4.775  1.00  0.00     0.015 A 
HETATM    3  C   UNL     1      61.548   8.902   3.215  1.00  0.00     0.015 A 
HETATM    4  C   UNL     1      62.840   9.194   3.665  1.00  0.00     0.010 A 
HETATM    5  C   UNL     1      62.711   7.368   5.231  1.00  0.00     0.010 A 
HETATM    6  C   UNL     1      63.433   8.437   4.684  1.00  0.00    -0.033 A 
ENDROOT
BRANCH   1   7
HETATM    7  C   UNL     1      59.455   7.505   3.315  1.00  0.00     0.084 A 
HETATM    8  N   UNL     1      58.975   7.767   2.115  1.00  0.00    -0.359 N 
HETATM    9  C   UNL     1      57.670   7.326   2.014  1.00  0.00     0.096 A 
ATOM     10  HN  UNL     1      59.493   8.230   1.368  1.00  0.00     0.166 HD
HETATM   11  C   UNL     1      57.146   6.761   3.154  1.00  0.00     0.069 A 
HETATM   12  S   UNL     1      58.323   6.769   4.395  1.00  0.00    -0.082 SA
ENDBRANCH   1   7
BRANCH   6  13
HETATM   13  C   UNL     1      64.819   8.773   5.185  1.00  0.00     0.270 C 
BRANCH  13  14
HETATM   14  N   UNL     1      65.584   7.561   5.480  1.00  0.00    -0.075 N 
HETATM   15  C   UNL     1      66.512   7.777   6.578  1.00  0.00     0.267 C 
HETATM   16  H   UNL     1      66.111   7.289   4.649  1.00  0.00     0.277 HD
HETATM   17  H   UNL     1      64.932   6.824   5.749  1.00  0.00     0.277 HD
ENDBRANCH  13  14
ENDBRANCH   6  13
TORSDOF 3
ENDMDL
