MODEL 1
REMARK VINA RESULT:      -5.5      0.000      0.000
REMARK  4 active torsions:
REMARK  status: ('A' for Active; 'I' for Inactive)
REMARK    1  A    between atoms: N_1  and  C_2 
REMARK    2  A    between atoms: C_2  and  C_4 
REMARK    3  A    between atoms: N_6  and  C_13 
REMARK    4  A    between atoms: C_7  and  C_13 
ROOT
HETATM    1  C   UNL     1      63.720   8.755   4.468  1.00  0.00    -0.032 A 
HETATM    2  C   UNL     1      63.040   8.508   3.267  1.00  0.00     0.017 A 
HETATM    3  C   UNL     1      62.125   9.432   2.734  1.00  0.00    -0.032 A 
HETATM    4  C   UNL     1      62.477  10.833   4.689  1.00  0.00     0.001 A 
HETATM    5  C   UNL     1      63.416   9.924   5.183  1.00  0.00     0.009 A 
HETATM    6  C   UNL     1      61.846  10.594   3.462  1.00  0.00     0.009 A 
ENDROOT
BRANCH   1   7
HETATM    7  C   UNL     1      64.890   7.866   4.852  1.00  0.00     0.273 C 
BRANCH   7   8
HETATM    8  N   UNL     1      65.268   7.879   6.270  1.00  0.00    -0.063 N 
HETATM    9  C   UNL     1      64.918   6.628   6.979  1.00  0.00     0.261 C 
HETATM   10  C   UNL     1      65.853   5.433   6.714  1.00  0.00     0.195 C 
HETATM   11  O   UNL     1      67.228   5.772   6.934  1.00  0.00    -0.388 OA
HETATM   12  C   UNL     1      67.604   6.882   6.114  1.00  0.00     0.195 C 
HETATM   13  C   UNL     1      66.727   8.110   6.414  1.00  0.00     0.261 C 
HETATM   14  H   UNL     1      64.737   8.639   6.694  1.00  0.00     0.280 HD
ENDBRANCH   7   8
ENDBRANCH   1   7
BRANCH   3  15
HETATM   15  C   UNL     1      61.567   9.239   1.342  1.00  0.00     0.270 C 
BRANCH  15  16
HETATM   16  N   UNL     1      60.162   8.832   1.343  1.00  0.00    -0.075 N 
HETATM   17  C   UNL     1      59.934   7.785   0.355  1.00  0.00     0.267 C 
HETATM   18  H   UNL     1      59.578   9.638   1.119  1.00  0.00     0.277 HD
HETATM   19  H   UNL     1      59.922   8.472   2.267  1.00  0.00     0.277 HD
ENDBRANCH  15  16
ENDBRANCH   3  15
TORSDOF 4
ENDMDL
MODEL 2
REMARK VINA RESULT:      -5.1      1.782      2.747
REMARK  4 active torsions:
REMARK  status: ('A' for Active; 'I' for Inactive)
REMARK    1  A    between atoms: N_1  and  C_2 
REMARK    2  A    between atoms: C_2  and  C_4 
REMARK    3  A    between atoms: N_6  and  C_13 
REMARK    4  A    between atoms: C_7  and  C_13 
ROOT
HETATM    1  C   UNL     1      65.306   7.663   4.985  1.00  0.00    -0.032 A 
HETATM    2  C   UNL     1      64.457   8.778   5.040  1.00  0.00     0.017 A 
HETATM    3  C   UNL     1      63.381   8.930   4.149  1.00  0.00    -0.032 A 
HETATM    4  C   UNL     1      64.070   6.877   3.044  1.00  0.00     0.001 A 
HETATM    5  C   UNL     1      65.109   6.719   3.964  1.00  0.00     0.009 A 
HETATM    6  C   UNL     1      63.202   7.970   3.146  1.00  0.00     0.009 A 
ENDROOT
BRANCH   1   7
HETATM    7  C   UNL     1      66.269   7.409   6.131  1.00  0.00     0.273 C 
BRANCH   7   8
HETATM    8  N   UNL     1      65.658   7.037   7.413  1.00  0.00    -0.063 N 
HETATM    9  C   UNL     1      64.822   5.818   7.330  1.00  0.00     0.261 C 
HETATM   10  C   UNL     1      65.597   4.487   7.282  1.00  0.00     0.195 C 
HETATM   11  O   UNL     1      66.541   4.381   8.355  1.00  0.00    -0.388 OA
HETATM   12  C   UNL     1      67.454   5.482   8.324  1.00  0.00     0.195 C 
HETATM   13  C   UNL     1      66.705   6.821   8.442  1.00  0.00     0.261 C 
HETATM   14  H   UNL     1      65.052   7.816   7.670  1.00  0.00     0.280 HD
ENDBRANCH   7   8
ENDBRANCH   1   7
BRANCH   3  15
HETATM   15  C   UNL     1      62.362  10.026   4.360  1.00  0.00     0.270 C 
BRANCH  15  16
HETATM   16  N   UNL     1      61.454  10.188   3.225  1.00  0.00    -0.075 N 
HETATM   17  C   UNL     1      61.791  11.388   2.470  1.00  0.00     0.267 C 
HETATM   18  H   UNL     1      60.496  10.265   3.569  1.00  0.00     0.277 HD
HETATM   19  H   UNL     1      61.542   9.376   2.613  1.00  0.00     0.277 HD
ENDBRANCH  15  16
ENDBRANCH   3  15
TORSDOF 4
ENDMDL
MODEL 3
REMARK VINA RESULT:      -4.8      2.805      6.227
REMARK  4 active torsions:
REMARK  status: ('A' for Active; 'I' for Inactive)
REMARK    1  A    between atoms: N_1  and  C_2 
REMARK    2  A    between atoms: C_2  and  C_4 
REMARK    3  A    between atoms: N_6  and  C_13 
REMARK    4  A    between atoms: C_7  and  C_13 
ROOT
HETATM    1  C   UNL     1      62.246   9.169   2.888  1.00  0.00    -0.032 A 
HETATM    2  C   UNL     1      63.266   8.459   3.537  1.00  0.00     0.017 A 
HETATM    3  C   UNL     1      63.821   8.907   4.749  1.00  0.00    -0.032 A 
HETATM    4  C   UNL     1      62.401  10.875   4.614  1.00  0.00     0.001 A 
HETATM    5  C   UNL     1      61.830  10.394   3.433  1.00  0.00     0.009 A 
HETATM    6  C   UNL     1      63.381  10.127   5.275  1.00  0.00     0.009 A 
ENDROOT
BRANCH   1   7
HETATM    7  C   UNL     1      61.496   8.508   1.745  1.00  0.00     0.273 C 
BRANCH   7   8
HETATM    8  N   UNL     1      60.037   8.442   1.888  1.00  0.00    -0.063 N 
HETATM    9  C   UNL     1      59.341   8.118   0.623  1.00  0.00     0.261 C 
HETATM   10  C   UNL     1      59.393   6.637   0.200  1.00  0.00     0.195 C 
HETATM   11  O   UNL     1      58.961   5.766   1.253  1.00  0.00    -0.388 OA
HETATM   12  C   UNL     1      59.756   5.971   2.424  1.00  0.00     0.195 C 
HETATM   13  C   UNL     1      59.662   7.429   2.905  1.00  0.00     0.261 C 
HETATM   14  H   UNL     1      59.743   9.375   2.178  1.00  0.00     0.280 HD
ENDBRANCH   7   8
ENDBRANCH   1   7
BRANCH   3  15
HETATM   15  C   UNL     1      64.764   8.022   5.531  1.00  0.00     0.270 C 
BRANCH  15  16
HETATM   16  N   UNL     1      64.112   7.344   6.652  1.00  0.00    -0.075 N 
HETATM   17  C   UNL     1      63.842   5.951   6.317  1.00  0.00     0.267 C 
HETATM   18  H   UNL     1      63.232   7.815   6.864  1.00  0.00     0.277 HD
HETATM   19  H   UNL     1      64.731   7.375   7.462  1.00  0.00     0.277 HD
ENDBRANCH  15  16
ENDBRANCH   3  15
TORSDOF 4
ENDMDL
MODEL 4
REMARK VINA RESULT:      -4.6      1.505      2.590
REMARK  4 active torsions:
REMARK  status: ('A' for Active; 'I' for Inactive)
REMARK    1  A    between atoms: N_1  and  C_2 
REMARK    2  A    between atoms: C_2  and  C_4 
REMARK    3  A    between atoms: N_6  and  C_13 
REMARK    4  A    between atoms: C_7  and  C_13 
ROOT
HETATM    1  C   UNL     1      64.356   6.789   3.670  1.00  0.00    -0.032 A 
HETATM    2  C   UNL     1      63.709   8.011   3.904  1.00  0.00     0.017 A 
HETATM    3  C   UNL     1      62.743   8.516   3.018  1.00  0.00    -0.032 A 
HETATM    4  C   UNL     1      63.148   6.607   1.567  1.00  0.00     0.001 A 
HETATM    5  C   UNL     1      64.074   6.099   2.480  1.00  0.00     0.009 A 
HETATM    6  C   UNL     1      62.475   7.803   1.843  1.00  0.00     0.009 A 
ENDROOT
BRANCH   1   7
HETATM    7  C   UNL     1      65.175   6.160   4.783  1.00  0.00     0.273 C 
BRANCH   7   8
HETATM    8  N   UNL     1      65.566   7.057   5.877  1.00  0.00    -0.063 N 
HETATM    9  C   UNL     1      65.147   6.570   7.210  1.00  0.00     0.261 C 
HETATM   10  C   UNL     1      66.004   5.433   7.800  1.00  0.00     0.195 C 
HETATM   11  O   UNL     1      67.399   5.761   7.797  1.00  0.00    -0.388 OA
HETATM   12  C   UNL     1      67.835   6.068   6.470  1.00  0.00     0.195 C 
HETATM   13  C   UNL     1      67.038   7.248   5.888  1.00  0.00     0.261 C 
HETATM   14  H   UNL     1      65.087   7.939   5.700  1.00  0.00     0.280 HD
ENDBRANCH   7   8
ENDBRANCH   1   7
BRANCH   3  15
HETATM   15  C   UNL     1      61.915   9.723   3.396  1.00  0.00     0.270 C 
BRANCH  15  16
HETATM   16  N   UNL     1      61.279  10.362   2.243  1.00  0.00    -0.075 N 
HETATM   17  C   UNL     1      61.791  11.715   2.065  1.00  0.00     0.267 C 
HETATM   18  H   UNL     1      60.271  10.401   2.394  1.00  0.00     0.277 HD
HETATM   19  H   UNL     1      61.488   9.817   1.406  1.00  0.00     0.277 HD
ENDBRANCH  15  16
ENDBRANCH   3  15
TORSDOF 4
ENDMDL
MODEL 5
REMARK VINA RESULT:      -4.5      2.780      6.750
REMARK  4 active torsions:
REMARK  status: ('A' for Active; 'I' for Inactive)
REMARK    1  A    between atoms: N_1  and  C_2 
REMARK    2  A    between atoms: C_2  and  C_4 
REMARK    3  A    between atoms: N_6  and  C_13 
REMARK    4  A    between atoms: C_7  and  C_13 
ROOT
HETATM    1  C   UNL     1      65.498   7.360   4.976  1.00  0.00    -0.032 A 
HETATM    2  C   UNL     1      65.366   6.767   6.240  1.00  0.00     0.017 A 
HETATM    3  C   UNL     1      66.485   6.487   7.044  1.00  0.00    -0.032 A 
HETATM    4  C   UNL     1      67.913   7.296   5.251  1.00  0.00     0.001 A 
HETATM    5  C   UNL     1      66.789   7.608   4.483  1.00  0.00     0.009 A 
HETATM    6  C   UNL     1      67.760   6.751   6.531  1.00  0.00     0.009 A 
ENDROOT
BRANCH   1   7
HETATM    7  C   UNL     1      64.260   7.892   4.277  1.00  0.00     0.273 C 
BRANCH   7   8
HETATM    8  N   UNL     1      63.127   8.231   5.146  1.00  0.00    -0.063 N 
HETATM    9  C   UNL     1      63.039   9.676   5.455  1.00  0.00     0.261 C 
HETATM   10  C   UNL     1      62.473  10.560   4.327  1.00  0.00     0.195 C 
HETATM   11  O   UNL     1      61.217  10.070   3.844  1.00  0.00    -0.388 OA
HETATM   12  C   UNL     1      61.353   8.721   3.388  1.00  0.00     0.195 C 
HETATM   13  C   UNL     1      61.850   7.805   4.520  1.00  0.00     0.261 C 
HETATM   14  H   UNL     1      63.287   7.732   6.020  1.00  0.00     0.280 HD
ENDBRANCH   7   8
ENDBRANCH   1   7
BRANCH   3  15
HETATM   15  C   UNL     1      66.304   6.044   8.478  1.00  0.00     0.270 C 
BRANCH  15  16
HETATM   16  N   UNL     1      66.227   4.590   8.620  1.00  0.00    -0.075 N 
HETATM   17  C   UNL     1      67.561   4.022   8.772  1.00  0.00     0.267 C 
HETATM   18  H   UNL     1      65.785   4.194   7.790  1.00  0.00     0.277 HD
HETATM   19  H   UNL     1      65.677   4.368   9.450  1.00  0.00     0.277 HD
ENDBRANCH  15  16
ENDBRANCH   3  15
TORSDOF 4
ENDMDL
MODEL 6
REMARK VINA RESULT:      -4.3      1.267      1.390
REMARK  4 active torsions:
REMARK  status: ('A' for Active; 'I' for Inactive)
REMARK    1  A    between atoms: N_1  and  C_2 
REMARK    2  A    between atoms: C_2  and  C_4 
REMARK    3  A    between atoms: N_6  and  C_13 
REMARK    4  A    between atoms: C_7  and  C_13 
ROOT
HETATM    1  C   UNL     1      63.811   7.664   5.028  1.00  0.00    -0.032 A 
HETATM    2  C   UNL     1      62.653   7.208   4.382  1.00  0.00     0.017 A 
HETATM    3  C   UNL     1      61.722   8.100   3.821  1.00  0.00    -0.032 A 
HETATM    4  C   UNL     1      63.061   9.948   4.660  1.00  0.00     0.001 A 
HETATM    5  C   UNL     1      63.997   9.047   5.174  1.00  0.00     0.009 A 
HETATM    6  C   UNL     1      61.937   9.474   3.974  1.00  0.00     0.009 A 
ENDROOT
BRANCH   1   7
HETATM    7  C   UNL     1      64.909   6.670   5.365  1.00  0.00     0.273 C 
BRANCH   7   8
HETATM    8  N   UNL     1      65.957   7.154   6.271  1.00  0.00    -0.063 N 
HETATM    9  C   UNL     1      65.789   6.683   7.664  1.00  0.00     0.261 C 
HETATM   10  C   UNL     1      66.203   5.222   7.922  1.00  0.00     0.195 C 
HETATM   11  O   UNL     1      67.530   4.952   7.455  1.00  0.00    -0.388 OA
HETATM   12  C   UNL     1      67.636   5.254   6.060  1.00  0.00     0.195 C 
HETATM   13  C   UNL     1      67.294   6.729   5.789  1.00  0.00     0.261 C 
HETATM   14  H   UNL     1      65.877   8.171   6.272  1.00  0.00     0.280 HD
ENDBRANCH   7   8
ENDBRANCH   1   7
BRANCH   3  15
HETATM   15  C   UNL     1      60.597   7.585   2.953  1.00  0.00     0.270 C 
BRANCH  15  16
HETATM   16  N   UNL     1      60.145   8.563   1.964  1.00  0.00    -0.075 N 
HETATM   17  C   UNL     1      60.687   8.245   0.649  1.00  0.00     0.267 C 
HETATM   18  H   UNL     1      60.462   9.492   2.242  1.00  0.00     0.277 HD
HETATM   19  H   UNL     1      59.127   8.540   1.917  1.00  0.00     0.277 HD
ENDBRANCH  15  16
ENDBRANCH   3  15
TORSDOF 4
ENDMDL
MODEL 7
REMARK VINA RESULT:      -4.2      4.222      6.563
REMARK  4 active torsions:
REMARK  status: ('A' for Active; 'I' for Inactive)
REMARK    1  A    between atoms: N_1  and  C_2 
REMARK    2  A    between atoms: C_2  and  C_4 
REMARK    3  A    between atoms: N_6  and  C_13 
REMARK    4  A    between atoms: C_7  and  C_13 
ROOT
HETATM    1  C   UNL     1      60.295   7.700   2.672  1.00  0.00    -0.032 A 
HETATM    2  C   UNL     1      61.011   8.386   3.664  1.00  0.00     0.017 A 
HETATM    3  C   UNL     1      61.907   9.421   3.344  1.00  0.00    -0.032 A 
HETATM    4  C   UNL     1      61.460   9.013   0.989  1.00  0.00     0.001 A 
HETATM    5  C   UNL     1      60.542   8.016   1.327  1.00  0.00     0.009 A 
HETATM    6  C   UNL     1      62.128   9.721   1.995  1.00  0.00     0.009 A 
ENDROOT
BRANCH   1   7
HETATM    7  C   UNL     1      59.148   6.794   3.082  1.00  0.00     0.273 C 
BRANCH   7   8
HETATM    8  N   UNL     1      58.672   6.945   4.463  1.00  0.00    -0.063 N 
HETATM    9  C   UNL     1      57.246   7.332   4.551  1.00  0.00     0.261 C 
HETATM   10  C   UNL     1      56.236   6.197   4.298  1.00  0.00     0.195 C 
HETATM   11  O   UNL     1      56.501   5.054   5.121  1.00  0.00    -0.388 OA
HETATM   12  C   UNL     1      57.833   4.583   4.902  1.00  0.00     0.195 C 
HETATM   13  C   UNL     1      58.864   5.681   5.217  1.00  0.00     0.261 C 
HETATM   14  H   UNL     1      59.227   7.698   4.869  1.00  0.00     0.280 HD
ENDBRANCH   7   8
ENDBRANCH   1   7
BRANCH   3  15
HETATM   15  C   UNL     1      62.505  10.279   4.436  1.00  0.00     0.270 C 
BRANCH  15  16
HETATM   16  N   UNL     1      63.088   9.494   5.523  1.00  0.00    -0.075 N 
HETATM   17  C   UNL     1      64.350   8.899   5.102  1.00  0.00     0.267 C 
HETATM   18  H   UNL     1      62.439   8.753   5.788  1.00  0.00     0.277 HD
HETATM   19  H   UNL     1      63.262  10.108   6.319  1.00  0.00     0.277 HD
ENDBRANCH  15  16
ENDBRANCH   3  15
TORSDOF 4
ENDMDL
MODEL 8
REMARK VINA RESULT:      -4.2     10.028     11.917
REMARK  4 active torsions:
REMARK  status: ('A' for Active; 'I' for Inactive)
REMARK    1  A    between atoms: N_1  and  C_2 
REMARK    2  A    between atoms: C_2  and  C_4 
REMARK    3  A    between atoms: N_6  and  C_13 
REMARK    4  A    between atoms: C_7  and  C_13 
ROOT
HETATM    1  C   UNL     1      58.216   2.547  11.716  1.00  0.00    -0.032 A 
HETATM    2  C   UNL     1      56.884   2.469  12.149  1.00  0.00     0.017 A 
HETATM    3  C   UNL     1      56.540   1.875  13.375  1.00  0.00    -0.032 A 
HETATM    4  C   UNL     1      58.883   1.315  13.704  1.00  0.00     0.001 A 
HETATM    5  C   UNL     1      59.212   1.948  12.503  1.00  0.00     0.009 A 
HETATM    6  C   UNL     1      57.554   1.293  14.144  1.00  0.00     0.009 A 
ENDROOT
BRANCH   1   7
HETATM    7  C   UNL     1      58.559   3.435  10.534  1.00  0.00     0.273 C 
BRANCH   7   8
HETATM    8  N   UNL     1      58.342   2.848   9.206  1.00  0.00    -0.063 N 
HETATM    9  C   UNL     1      57.248   3.498   8.450  1.00  0.00     0.261 C 
HETATM   10  C   UNL     1      57.598   4.860   7.821  1.00  0.00     0.195 C 
HETATM   11  O   UNL     1      58.788   4.791   7.027  1.00  0.00    -0.388 OA
HETATM   12  C   UNL     1      59.885   4.319   7.815  1.00  0.00     0.195 C 
HETATM   13  C   UNL     1      59.584   2.926   8.397  1.00  0.00     0.261 C 
HETATM   14  H   UNL     1      58.077   1.877   9.370  1.00  0.00     0.280 HD
ENDBRANCH   7   8
ENDBRANCH   1   7
BRANCH   3  15
HETATM   15  C   UNL     1      55.132   1.990  13.912  1.00  0.00     0.270 C 
BRANCH  15  16
HETATM   16  N   UNL     1      54.934   3.178  14.743  1.00  0.00    -0.075 N 
HETATM   17  C   UNL     1      54.320   4.247  13.965  1.00  0.00     0.267 C 
HETATM   18  H   UNL     1      55.837   3.495  15.096  1.00  0.00     0.277 HD
HETATM   19  H   UNL     1      54.317   2.939  15.520  1.00  0.00     0.277 HD
ENDBRANCH  15  16
ENDBRANCH   3  15
TORSDOF 4
ENDMDL
MODEL 9
REMARK VINA RESULT:      -4.2      1.750      2.663
REMARK  4 active torsions:
REMARK  status: ('A' for Active; 'I' for Inactive)
REMARK    1  A    between atoms: N_1  and  C_2 
REMARK    2  A    between atoms: C_2  and  C_4 
REMARK    3  A    between atoms: N_6  and  C_13 
REMARK    4  A    between atoms: C_7  and  C_13 
ROOT
HETATM    1  C   UNL     1      62.984   7.009   5.307  1.00  0.00    -0.032 A 
HETATM    2  C   UNL     1      63.218   7.731   4.128  1.00  0.00     0.017 A 
HETATM    3  C   UNL     1      62.189   7.990   3.206  1.00  0.00    -0.032 A 
HETATM    4  C   UNL     1      60.680   6.686   4.596  1.00  0.00     0.001 A 
HETATM    5  C   UNL     1      61.703   6.474   5.524  1.00  0.00     0.009 A 
HETATM    6  C   UNL     1      60.920   7.453   3.450  1.00  0.00     0.009 A 
ENDROOT
BRANCH   1   7
HETATM    7  C   UNL     1      64.047   6.997   6.390  1.00  0.00     0.273 C 
BRANCH   7   8
HETATM    8  N   UNL     1      65.425   6.774   5.936  1.00  0.00    -0.063 N 
HETATM    9  C   UNL     1      66.434   7.473   6.762  1.00  0.00     0.261 C 
HETATM   10  C   UNL     1      66.747   6.816   8.120  1.00  0.00     0.195 C 
HETATM   11  O   UNL     1      67.083   5.430   7.977  1.00  0.00    -0.388 OA
HETATM   12  C   UNL     1      66.023   4.726   7.324  1.00  0.00     0.195 C 
HETATM   13  C   UNL     1      65.741   5.323   5.935  1.00  0.00     0.261 C 
HETATM   14  H   UNL     1      65.472   7.156   4.992  1.00  0.00     0.280 HD
ENDBRANCH   7   8
ENDBRANCH   1   7
BRANCH   3  15
HETATM   15  C   UNL     1      62.417   8.943   2.055  1.00  0.00     0.270 C 
BRANCH  15  16
HETATM   16  N   UNL     1      61.539  10.112   2.100  1.00  0.00    -0.075 N 
HETATM   17  C   UNL     1      61.902  10.979   3.215  1.00  0.00     0.267 C 
HETATM   18  H   UNL     1      60.574   9.803   2.215  1.00  0.00     0.277 HD
HETATM   19  H   UNL     1      61.639  10.635   1.230  1.00  0.00     0.277 HD
ENDBRANCH  15  16
ENDBRANCH   3  15
TORSDOF 4
ENDMDL
