MODEL 1
REMARK VINA RESULT:      -5.5      0.000      0.000
REMARK  4 active torsions:
REMARK  status: ('A' for Active; 'I' for Inactive)
REMARK    1  A    between atoms: N_1  and  C_2 
REMARK    2  A    between atoms: C_2  and  C_4 
REMARK    3  A    between atoms: C_6  and  C_14 
REMARK    4  A    between atoms: O_9  and  C_14 
ROOT
HETATM    1  C   UNL     1      64.108   7.978   4.460  1.00  0.00    -0.032 A 
HETATM    2  C   UNL     1      64.089   9.163   5.214  1.00  0.00     0.018 A 
HETATM    3  C   UNL     1      63.146  10.171   4.960  1.00  0.00    -0.034 A 
HETATM    4  C   UNL     1      62.281   8.859   3.121  1.00  0.00     0.001 A 
HETATM    5  C   UNL     1      63.196   7.843   3.404  1.00  0.00     0.009 A 
HETATM    6  C   UNL     1      62.248  10.013   3.904  1.00  0.00     0.009 A 
ENDROOT
BRANCH   1   7
HETATM    7  C   UNL     1      65.004   6.832   4.872  1.00  0.00     0.273 C 
BRANCH   7   8
HETATM    8  N   UNL     1      65.913   7.009   6.000  1.00  0.00    -0.063 N 
HETATM    9  C   UNL     1      67.321   6.671   5.771  1.00  0.00     0.261 C 
HETATM   10  C   UNL     1      67.704   5.237   6.168  1.00  0.00     0.195 C 
HETATM   11  O   UNL     1      67.320   4.958   7.521  1.00  0.00    -0.388 OA
HETATM   12  C   UNL     1      65.903   5.106   7.670  1.00  0.00     0.195 C 
HETATM   13  C   UNL     1      65.442   6.524   7.300  1.00  0.00     0.261 C 
HETATM   14  H   UNL     1      65.889   8.027   6.064  1.00  0.00     0.280 HD
ENDBRANCH   7   8
ENDBRANCH   1   7
BRANCH   3  15
HETATM   15  C   UNL     1      63.060  11.362   5.879  1.00  0.00     0.202 C 
BRANCH  15  16
HETATM   16  O   UNL     1      64.319  11.585   6.509  1.00  0.00    -0.396 OA
HETATM   17  H   UNL     1      64.524  10.839   7.094  1.00  0.00     0.209 HD
ENDBRANCH  15  16
ENDBRANCH   3  15
TORSDOF 4
ENDMDL
MODEL 2
REMARK VINA RESULT:      -5.3      1.037      1.550
REMARK  4 active torsions:
REMARK  status: ('A' for Active; 'I' for Inactive)
REMARK    1  A    between atoms: N_1  and  C_2 
REMARK    2  A    between atoms: C_2  and  C_4 
REMARK    3  A    between atoms: C_6  and  C_14 
REMARK    4  A    between atoms: O_9  and  C_14 
ROOT
HETATM    1  C   UNL     1      64.937   7.635   4.827  1.00  0.00    -0.032 A 
HETATM    2  C   UNL     1      64.682   8.929   5.311  1.00  0.00     0.018 A 
HETATM    3  C   UNL     1      63.496   9.605   4.988  1.00  0.00    -0.034 A 
HETATM    4  C   UNL     1      62.838   7.732   3.605  1.00  0.00     0.001 A 
HETATM    5  C   UNL     1      64.003   7.049   3.962  1.00  0.00     0.009 A 
HETATM    6  C   UNL     1      62.580   9.000   4.126  1.00  0.00     0.009 A 
ENDROOT
BRANCH   1   7
HETATM    7  C   UNL     1      66.127   6.855   5.338  1.00  0.00     0.273 C 
BRANCH   7   8
HETATM    8  N   UNL     1      65.942   5.914   6.438  1.00  0.00    -0.063 N 
HETATM    9  C   UNL     1      65.817   6.487   7.781  1.00  0.00     0.261 C 
HETATM   10  C   UNL     1      67.137   6.565   8.564  1.00  0.00     0.195 C 
HETATM   11  O   UNL     1      67.787   5.288   8.606  1.00  0.00    -0.388 OA
HETATM   12  C   UNL     1      68.075   4.839   7.277  1.00  0.00     0.195 C 
HETATM   13  C   UNL     1      66.798   4.725   6.431  1.00  0.00     0.261 C 
HETATM   14  H   UNL     1      65.007   5.578   6.202  1.00  0.00     0.280 HD
ENDBRANCH   7   8
ENDBRANCH   1   7
BRANCH   3  15
HETATM   15  C   UNL     1      63.189  10.928   5.641  1.00  0.00     0.202 C 
BRANCH  15  16
HETATM   16  O   UNL     1      64.318  11.380   6.382  1.00  0.00    -0.396 OA
HETATM   17  H   UNL     1      64.888  10.625   6.596  1.00  0.00     0.209 HD
ENDBRANCH  15  16
ENDBRANCH   3  15
TORSDOF 4
ENDMDL
MODEL 3
REMARK VINA RESULT:      -5.3      2.059      2.547
REMARK  4 active torsions:
REMARK  status: ('A' for Active; 'I' for Inactive)
REMARK    1  A    between atoms: N_1  and  C_2 
REMARK    2  A    between atoms: C_2  and  C_4 
REMARK    3  A    between atoms: C_6  and  C_14 
REMARK    4  A    between atoms: O_9  and  C_14 
ROOT
HETATM    1  C   UNL     1      63.172   8.016   3.992  1.00  0.00    -0.032 A 
HETATM    2  C   UNL     1      62.807   9.372   3.988  1.00  0.00     0.018 A 
HETATM    3  C   UNL     1      62.243   9.969   2.849  1.00  0.00    -0.034 A 
HETATM    4  C   UNL     1      62.491   7.876   1.663  1.00  0.00     0.001 A 
HETATM    5  C   UNL     1      63.014   7.277   2.812  1.00  0.00     0.009 A 
HETATM    6  C   UNL     1      62.095   9.213   1.686  1.00  0.00     0.009 A 
ENDROOT
BRANCH   1   7
HETATM    7  C   UNL     1      63.598   7.350   5.281  1.00  0.00     0.273 C 
BRANCH   7   8
HETATM    8  N   UNL     1      64.927   6.753   5.368  1.00  0.00    -0.063 N 
HETATM    9  C   UNL     1      65.150   5.798   6.458  1.00  0.00     0.261 C 
HETATM   10  C   UNL     1      65.752   6.415   7.730  1.00  0.00     0.195 C 
HETATM   11  O   UNL     1      66.948   7.144   7.431  1.00  0.00    -0.388 OA
HETATM   12  C   UNL     1      66.662   8.201   6.508  1.00  0.00     0.195 C 
HETATM   13  C   UNL     1      66.064   7.662   5.200  1.00  0.00     0.261 C 
HETATM   14  H   UNL     1      64.901   6.188   4.518  1.00  0.00     0.280 HD
ENDBRANCH   7   8
ENDBRANCH   1   7
BRANCH   3  15
HETATM   15  C   UNL     1      61.729  11.384   2.925  1.00  0.00     0.202 C 
BRANCH  15  16
HETATM   16  O   UNL     1      62.102  12.103   1.753  1.00  0.00    -0.396 OA
HETATM   17  H   UNL     1      61.618  11.750   0.990  1.00  0.00     0.209 HD
ENDBRANCH  15  16
ENDBRANCH   3  15
TORSDOF 4
ENDMDL
MODEL 4
REMARK VINA RESULT:      -5.2      2.090      2.764
REMARK  4 active torsions:
REMARK  status: ('A' for Active; 'I' for Inactive)
REMARK    1  A    between atoms: N_1  and  C_2 
REMARK    2  A    between atoms: C_2  and  C_4 
REMARK    3  A    between atoms: C_6  and  C_14 
REMARK    4  A    between atoms: O_9  and  C_14 
ROOT
HETATM    1  C   UNL     1      63.709   8.717   4.379  1.00  0.00    -0.032 A 
HETATM    2  C   UNL     1      63.040   8.518   3.161  1.00  0.00     0.018 A 
HETATM    3  C   UNL     1      62.126   9.464   2.671  1.00  0.00    -0.034 A 
HETATM    4  C   UNL     1      62.464  10.785   4.669  1.00  0.00     0.001 A 
HETATM    5  C   UNL     1      63.403   9.859   5.132  1.00  0.00     0.009 A 
HETATM    6  C   UNL     1      61.838  10.594   3.437  1.00  0.00     0.009 A 
ENDROOT
BRANCH   1   7
HETATM    7  C   UNL     1      64.824   7.783   4.793  1.00  0.00     0.273 C 
BRANCH   7   8
HETATM    8  N   UNL     1      65.215   7.719   6.198  1.00  0.00    -0.063 N 
HETATM    9  C   UNL     1      66.625   7.982   6.502  1.00  0.00     0.261 C 
HETATM   10  C   UNL     1      67.502   6.723   6.587  1.00  0.00     0.195 C 
HETATM   11  O   UNL     1      66.946   5.770   7.501  1.00  0.00    -0.388 OA
HETATM   12  C   UNL     1      65.637   5.381   7.070  1.00  0.00     0.195 C 
HETATM   13  C   UNL     1      64.693   6.589   6.970  1.00  0.00     0.261 C 
HETATM   14  H   UNL     1      64.710   8.539   6.538  1.00  0.00     0.280 HD
ENDBRANCH   7   8
ENDBRANCH   1   7
BRANCH   3  15
HETATM   15  C   UNL     1      61.538   9.290   1.294  1.00  0.00     0.202 C 
BRANCH  15  16
HETATM   16  O   UNL     1      60.177   8.880   1.392  1.00  0.00    -0.396 OA
HETATM   17  H   UNL     1      60.068   8.307   2.167  1.00  0.00     0.209 HD
ENDBRANCH  15  16
ENDBRANCH   3  15
TORSDOF 4
ENDMDL
MODEL 5
REMARK VINA RESULT:      -4.9      3.899      6.230
REMARK  4 active torsions:
REMARK  status: ('A' for Active; 'I' for Inactive)
REMARK    1  A    between atoms: N_1  and  C_2 
REMARK    2  A    between atoms: C_2  and  C_4 
REMARK    3  A    between atoms: C_6  and  C_14 
REMARK    4  A    between atoms: O_9  and  C_14 
ROOT
HETATM    1  C   UNL     1      62.193   9.400   2.883  1.00  0.00    -0.032 A 
HETATM    2  C   UNL     1      63.064   8.573   3.611  1.00  0.00     0.018 A 
HETATM    3  C   UNL     1      63.575   8.973   4.855  1.00  0.00    -0.034 A 
HETATM    4  C   UNL     1      62.424  11.087   4.617  1.00  0.00     0.001 A 
HETATM    5  C   UNL     1      61.886  10.667   3.398  1.00  0.00     0.009 A 
HETATM    6  C   UNL     1      63.255  10.239   5.348  1.00  0.00     0.009 A 
ENDROOT
BRANCH   1   7
HETATM    7  C   UNL     1      61.508   8.873   1.642  1.00  0.00     0.273 C 
BRANCH   7   8
HETATM    8  N   UNL     1      60.107   8.470   1.720  1.00  0.00    -0.063 N 
HETATM    9  C   UNL     1      59.735   7.588   2.830  1.00  0.00     0.261 C 
HETATM   10  C   UNL     1      59.759   6.090   2.486  1.00  0.00     0.195 C 
HETATM   11  O   UNL     1      58.969   5.816   1.323  1.00  0.00    -0.388 OA
HETATM   12  C   UNL     1      59.477   6.546   0.200  1.00  0.00     0.195 C 
HETATM   13  C   UNL     1      59.475   8.059   0.463  1.00  0.00     0.261 C 
HETATM   14  H   UNL     1      59.696   9.376   1.948  1.00  0.00     0.280 HD
ENDBRANCH   7   8
ENDBRANCH   1   7
BRANCH   3  15
HETATM   15  C   UNL     1      64.387   8.004   5.675  1.00  0.00     0.202 C 
BRANCH  15  16
HETATM   16  O   UNL     1      63.618   7.532   6.777  1.00  0.00    -0.396 OA
HETATM   17  H   UNL     1      64.108   7.682   7.601  1.00  0.00     0.209 HD
ENDBRANCH  15  16
ENDBRANCH   3  15
TORSDOF 4
ENDMDL
MODEL 6
REMARK VINA RESULT:      -4.8      3.929      4.876
REMARK  4 active torsions:
REMARK  status: ('A' for Active; 'I' for Inactive)
REMARK    1  A    between atoms: N_1  and  C_2 
REMARK    2  A    between atoms: C_2  and  C_4 
REMARK    3  A    between atoms: C_6  and  C_14 
REMARK    4  A    between atoms: O_9  and  C_14 
ROOT
HETATM    1  C   UNL     1      62.505   8.975   2.740  1.00  0.00    -0.032 A 
HETATM    2  C   UNL     1      62.838   9.414   4.031  1.00  0.00     0.018 A 
HETATM    3  C   UNL     1      62.564  10.727   4.445  1.00  0.00    -0.034 A 
HETATM    4  C   UNL     1      61.702  11.214   2.238  1.00  0.00     0.001 A 
HETATM    5  C   UNL     1      61.941   9.895   1.845  1.00  0.00     0.009 A 
HETATM    6  C   UNL     1      62.002  11.625   3.538  1.00  0.00     0.009 A 
ENDROOT
BRANCH   1   7
HETATM    7  C   UNL     1      62.634   7.512   2.379  1.00  0.00     0.273 C 
BRANCH   7   8
HETATM    8  N   UNL     1      61.777   6.536   3.045  1.00  0.00    -0.063 N 
HETATM    9  C   UNL     1      62.271   5.158   3.105  1.00  0.00     0.261 C 
HETATM   10  C   UNL     1      61.777   4.256   1.963  1.00  0.00     0.195 C 
HETATM   11  O   UNL     1      60.349   4.287   1.862  1.00  0.00    -0.388 OA
HETATM   12  C   UNL     1      59.904   5.625   1.607  1.00  0.00     0.195 C 
HETATM   13  C   UNL     1      60.350   6.590   2.715  1.00  0.00     0.261 C 
HETATM   14  H   UNL     1      61.850   6.889   4.000  1.00  0.00     0.280 HD
ENDBRANCH   7   8
ENDBRANCH   1   7
BRANCH   3  15
HETATM   15  C   UNL     1      62.800  11.121   5.881  1.00  0.00     0.202 C 
BRANCH  15  16
HETATM   16  O   UNL     1      64.182  11.400   6.090  1.00  0.00    -0.396 OA
HETATM   17  H   UNL     1      64.315  11.706   7.001  1.00  0.00     0.209 HD
ENDBRANCH  15  16
ENDBRANCH   3  15
TORSDOF 4
ENDMDL
MODEL 7
REMARK VINA RESULT:      -4.6      4.571      5.497
REMARK  4 active torsions:
REMARK  status: ('A' for Active; 'I' for Inactive)
REMARK    1  A    between atoms: N_1  and  C_2 
REMARK    2  A    between atoms: C_2  and  C_4 
REMARK    3  A    between atoms: C_6  and  C_14 
REMARK    4  A    between atoms: O_9  and  C_14 
ROOT
HETATM    1  C   UNL     1      61.620   5.251   6.541  1.00  0.00    -0.032 A 
HETATM    2  C   UNL     1      60.532   6.012   6.998  1.00  0.00     0.018 A 
HETATM    3  C   UNL     1      59.552   5.451   7.832  1.00  0.00    -0.034 A 
HETATM    4  C   UNL     1      60.687   3.320   7.686  1.00  0.00     0.001 A 
HETATM    5  C   UNL     1      61.681   3.894   6.889  1.00  0.00     0.009 A 
HETATM    6  C   UNL     1      59.634   4.098   8.165  1.00  0.00     0.009 A 
ENDROOT
BRANCH   1   7
HETATM    7  C   UNL     1      62.759   5.921   5.805  1.00  0.00     0.273 C 
BRANCH   7   8
HETATM    8  N   UNL     1      63.371   7.116   6.378  1.00  0.00    -0.063 N 
HETATM    9  C   UNL     1      63.034   8.395   5.747  1.00  0.00     0.261 C 
HETATM   10  C   UNL     1      64.030   8.855   4.671  1.00  0.00     0.195 C 
HETATM   11  O   UNL     1      65.369   8.868   5.180  1.00  0.00    -0.388 OA
HETATM   12  C   UNL     1      65.744   7.555   5.612  1.00  0.00     0.195 C 
HETATM   13  C   UNL     1      64.798   7.027   6.701  1.00  0.00     0.261 C 
HETATM   14  H   UNL     1      62.888   7.125   7.277  1.00  0.00     0.280 HD
ENDBRANCH   7   8
ENDBRANCH   1   7
BRANCH   3  15
HETATM   15  C   UNL     1      58.480   6.331   8.421  1.00  0.00     0.202 C 
BRANCH  15  16
HETATM   16  O   UNL     1      58.643   6.420   9.833  1.00  0.00    -0.396 OA
HETATM   17  H   UNL     1      59.570   6.251  10.063  1.00  0.00     0.209 HD
ENDBRANCH  15  16
ENDBRANCH   3  15
TORSDOF 4
ENDMDL
MODEL 8
REMARK VINA RESULT:      -4.3      1.767      5.720
REMARK  4 active torsions:
REMARK  status: ('A' for Active; 'I' for Inactive)
REMARK    1  A    between atoms: N_1  and  C_2 
REMARK    2  A    between atoms: C_2  and  C_4 
REMARK    3  A    between atoms: C_6  and  C_14 
REMARK    4  A    between atoms: O_9  and  C_14 
ROOT
HETATM    1  C   UNL     1      65.285   7.043   4.997  1.00  0.00    -0.032 A 
HETATM    2  C   UNL     1      65.203   6.632   6.337  1.00  0.00     0.018 A 
HETATM    3  C   UNL     1      66.351   6.536   7.140  1.00  0.00    -0.034 A 
HETATM    4  C   UNL     1      67.700   7.173   5.236  1.00  0.00     0.001 A 
HETATM    5  C   UNL     1      66.550   7.304   4.454  1.00  0.00     0.009 A 
HETATM    6  C   UNL     1      67.599   6.802   6.577  1.00  0.00     0.009 A 
ENDROOT
BRANCH   1   7
HETATM    7  C   UNL     1      64.023   7.320   4.211  1.00  0.00     0.273 C 
BRANCH   7   8
HETATM    8  N   UNL     1      62.898   7.970   4.876  1.00  0.00    -0.063 N 
HETATM    9  C   UNL     1      61.584   7.824   4.242  1.00  0.00     0.261 C 
HETATM   10  C   UNL     1      61.205   8.973   3.294  1.00  0.00     0.195 C 
HETATM   11  O   UNL     1      61.323  10.241   3.951  1.00  0.00    -0.388 OA
HETATM   12  C   UNL     1      62.671  10.444   4.390  1.00  0.00     0.195 C 
HETATM   13  C   UNL     1      63.123   9.336   5.354  1.00  0.00     0.261 C 
HETATM   14  H   UNL     1      62.856   7.390   5.715  1.00  0.00     0.280 HD
ENDBRANCH   7   8
ENDBRANCH   1   7
BRANCH   3  15
HETATM   15  C   UNL     1      66.211   6.234   8.609  1.00  0.00     0.202 C 
BRANCH  15  16
HETATM   16  O   UNL     1      66.205   4.826   8.821  1.00  0.00    -0.396 OA
HETATM   17  H   UNL     1      65.418   4.440   8.406  1.00  0.00     0.209 HD
ENDBRANCH  15  16
ENDBRANCH   3  15
TORSDOF 4
ENDMDL
MODEL 9
REMARK VINA RESULT:      -4.1      3.350      4.179
REMARK  4 active torsions:
REMARK  status: ('A' for Active; 'I' for Inactive)
REMARK    1  A    between atoms: N_1  and  C_2 
REMARK    2  A    between atoms: C_2  and  C_4 
REMARK    3  A    between atoms: C_6  and  C_14 
REMARK    4  A    between atoms: O_9  and  C_14 
ROOT
HETATM    1  C   UNL     1      60.835   7.850   2.992  1.00  0.00    -0.032 A 
HETATM    2  C   UNL     1      61.379   8.731   3.941  1.00  0.00     0.018 A 
HETATM    3  C   UNL     1      61.971   9.943   3.552  1.00  0.00    -0.034 A 
HETATM    4  C   UNL     1      61.566   9.365   1.238  1.00  0.00     0.001 A 
HETATM    5  C   UNL     1      60.944   8.179   1.634  1.00  0.00     0.009 A 
HETATM    6  C   UNL     1      62.066  10.249   2.194  1.00  0.00     0.009 A 
ENDROOT
BRANCH   1   7
HETATM    7  C   UNL     1      60.038   6.646   3.444  1.00  0.00     0.273 C 
BRANCH   7   8
HETATM    8  N   UNL     1      60.745   5.471   3.942  1.00  0.00    -0.063 N 
HETATM    9  C   UNL     1      60.808   5.306   5.397  1.00  0.00     0.261 C 
HETATM   10  C   UNL     1      62.076   5.882   6.047  1.00  0.00     0.195 C 
HETATM   11  O   UNL     1      63.256   5.367   5.418  1.00  0.00    -0.388 OA
HETATM   12  C   UNL     1      63.264   5.712   4.028  1.00  0.00     0.195 C 
HETATM   13  C   UNL     1      62.027   5.161   3.303  1.00  0.00     0.261 C 
HETATM   14  H   UNL     1      60.098   4.750   3.619  1.00  0.00     0.280 HD
ENDBRANCH   7   8
ENDBRANCH   1   7
BRANCH   3  15
HETATM   15  C   UNL     1      62.412  10.929   4.602  1.00  0.00     0.202 C 
BRANCH  15  16
HETATM   16  O   UNL     1      62.033  12.249   4.224  1.00  0.00    -0.396 OA
HETATM   17  H   UNL     1      62.828  12.785   4.082  1.00  0.00     0.209 HD
ENDBRANCH  15  16
ENDBRANCH   3  15
TORSDOF 4
ENDMDL
