MODEL 1
REMARK VINA RESULT:      -4.6      0.000      0.000
REMARK  2 active torsions:
REMARK  status: ('A' for Active; 'I' for Inactive)
REMARK    1  A    between atoms: C_5  and  C_10 
REMARK    2  A    between atoms: C_10  and  O_11 
ROOT
HETATM    1  N   UNL     1      62.380  10.318   3.528  1.00  0.00    -0.352 N 
HETATM    2  C   UNL     1      62.524   9.143   2.821  1.00  0.00     0.052 A 
HETATM    3  C   UNL     1      63.123   8.225   3.632  1.00  0.00     0.033 A 
HETATM    4  C   UNL     1      63.370   8.837   4.891  1.00  0.00     0.048 A 
HETATM    5  C   UNL     1      62.916  10.143   4.787  1.00  0.00     0.036 A 
HETATM    6  S   UNL     1      63.355   6.701   2.843  1.00  0.00    -0.100 SA
HETATM    7  C   UNL     1      62.233   8.649   1.519  1.00  0.00     0.038 A 
HETATM    8  C   UNL     1      62.644   7.338   1.411  1.00  0.00     0.053 A 
HETATM    9  C   UNL     1      61.777  11.494   2.946  1.00  0.00     0.156 C 
ENDROOT
BRANCH   5  10
HETATM   10  C   UNL     1      62.962  11.216   5.819  1.00  0.00     0.221 C 
BRANCH  10  11
HETATM   11  O   UNL     1      64.314  11.346   6.230  1.00  0.00    -0.395 OA
HETATM   12  H   UNL     1      64.627  10.500   6.584  1.00  0.00     0.209 HD
ENDBRANCH  10  11
ENDBRANCH   5  10
TORSDOF 2
ENDMDL
MODEL 2
REMARK VINA RESULT:      -4.4      1.355      2.173
REMARK  2 active torsions:
REMARK  status: ('A' for Active; 'I' for Inactive)
REMARK    1  A    between atoms: C_5  and  C_10 
REMARK    2  A    between atoms: C_10  and  O_11 
ROOT
HETATM    1  N   UNL     1      63.319   9.082   4.603  1.00  0.00    -0.352 N 
HETATM    2  C   UNL     1      62.930   8.636   3.358  1.00  0.00     0.052 A 
HETATM    3  C   UNL     1      62.173   9.606   2.771  1.00  0.00     0.033 A 
HETATM    4  C   UNL     1      62.075  10.700   3.673  1.00  0.00     0.048 A 
HETATM    5  C   UNL     1      62.779  10.334   4.809  1.00  0.00     0.036 A 
HETATM    6  S   UNL     1      61.628   9.151   1.191  1.00  0.00    -0.100 SA
HETATM    7  C   UNL     1      63.094   7.475   2.551  1.00  0.00     0.038 A 
HETATM    8  C   UNL     1      62.428   7.636   1.356  1.00  0.00     0.053 A 
HETATM    9  C   UNL     1      64.135   8.281   5.484  1.00  0.00     0.156 C 
ENDROOT
BRANCH   5  10
HETATM   10  C   UNL     1      62.966  11.115   6.065  1.00  0.00     0.221 C 
BRANCH  10  11
HETATM   11  O   UNL     1      64.344  11.446   6.151  1.00  0.00    -0.395 OA
HETATM   12  H   UNL     1      64.449  12.261   6.666  1.00  0.00     0.209 HD
ENDBRANCH  10  11
ENDBRANCH   5  10
TORSDOF 2
ENDMDL
MODEL 3
REMARK VINA RESULT:      -4.0      1.950      2.873
REMARK  2 active torsions:
REMARK  status: ('A' for Active; 'I' for Inactive)
REMARK    1  A    between atoms: C_5  and  C_10 
REMARK    2  A    between atoms: C_10  and  O_11 
ROOT
HETATM    1  N   UNL     1      62.854   9.056   3.421  1.00  0.00    -0.352 N 
HETATM    2  C   UNL     1      63.031   7.865   2.748  1.00  0.00     0.052 A 
HETATM    3  C   UNL     1      62.502   7.996   1.498  1.00  0.00     0.033 A 
HETATM    4  C   UNL     1      61.970   9.308   1.376  1.00  0.00     0.048 A 
HETATM    5  C   UNL     1      62.186   9.933   2.594  1.00  0.00     0.036 A 
HETATM    6  S   UNL     1      62.670   6.552   0.557  1.00  0.00    -0.100 SA
HETATM    7  C   UNL     1      63.590   6.581   2.998  1.00  0.00     0.038 A 
HETATM    8  C   UNL     1      63.448   5.781   1.885  1.00  0.00     0.053 A 
HETATM    9  C   UNL     1      63.308   9.243   4.779  1.00  0.00     0.156 C 
ENDROOT
BRANCH   5  10
HETATM   10  C   UNL     1      61.796  11.313   3.001  1.00  0.00     0.221 C 
BRANCH  10  11
HETATM   11  O   UNL     1      62.029  12.160   1.886  1.00  0.00    -0.395 OA
HETATM   12  H   UNL     1      61.189  12.543   1.590  1.00  0.00     0.209 HD
ENDBRANCH  10  11
ENDBRANCH   5  10
TORSDOF 2
ENDMDL
MODEL 4
REMARK VINA RESULT:      -3.9      1.616      2.218
REMARK  2 active torsions:
REMARK  status: ('A' for Active; 'I' for Inactive)
REMARK    1  A    between atoms: C_5  and  C_10 
REMARK    2  A    between atoms: C_10  and  O_11 
ROOT
HETATM    1  N   UNL     1      62.488   9.043   2.440  1.00  0.00    -0.352 N 
HETATM    2  C   UNL     1      63.101   7.916   2.945  1.00  0.00     0.052 A 
HETATM    3  C   UNL     1      63.350   8.121   4.270  1.00  0.00     0.033 A 
HETATM    4  C   UNL     1      62.885   9.419   4.615  1.00  0.00     0.048 A 
HETATM    5  C   UNL     1      62.375   9.974   3.452  1.00  0.00     0.036 A 
HETATM    6  S   UNL     1      64.122   6.760   5.013  1.00  0.00    -0.100 SA
HETATM    7  C   UNL     1      63.533   6.645   2.474  1.00  0.00     0.038 A 
HETATM    8  C   UNL     1      64.107   5.933   3.504  1.00  0.00     0.053 A 
HETATM    9  C   UNL     1      62.093   9.145   1.055  1.00  0.00     0.156 C 
ENDROOT
BRANCH   5  10
HETATM   10  C   UNL     1      61.786  11.329   3.261  1.00  0.00     0.221 C 
BRANCH  10  11
HETATM   11  O   UNL     1      62.145  12.105   4.394  1.00  0.00    -0.395 OA
HETATM   12  H   UNL     1      62.881  11.678   4.858  1.00  0.00     0.209 HD
ENDBRANCH  10  11
ENDBRANCH   5  10
TORSDOF 2
ENDMDL
MODEL 5
REMARK VINA RESULT:      -3.8      1.808      2.483
REMARK  2 active torsions:
REMARK  status: ('A' for Active; 'I' for Inactive)
REMARK    1  A    between atoms: C_5  and  C_10 
REMARK    2  A    between atoms: C_10  and  O_11 
ROOT
HETATM    1  N   UNL     1      63.220   9.065   4.369  1.00  0.00    -0.352 N 
HETATM    2  C   UNL     1      62.668   8.970   3.109  1.00  0.00     0.052 A 
HETATM    3  C   UNL     1      62.999   7.756   2.585  1.00  0.00     0.033 A 
HETATM    4  C   UNL     1      63.789   7.060   3.540  1.00  0.00     0.048 A 
HETATM    5  C   UNL     1      63.926   7.908   4.627  1.00  0.00     0.036 A 
HETATM    6  S   UNL     1      62.353   7.526   0.995  1.00  0.00    -0.100 SA
HETATM    7  C   UNL     1      61.879   9.771   2.237  1.00  0.00     0.038 A 
HETATM    8  C   UNL     1      61.649   9.096   1.058  1.00  0.00     0.053 A 
HETATM    9  C   UNL     1      63.052  10.238   5.193  1.00  0.00     0.156 C 
ENDROOT
BRANCH   5  10
HETATM   10  C   UNL     1      64.682   7.670   5.889  1.00  0.00     0.221 C 
BRANCH  10  11
HETATM   11  O   UNL     1      63.737   7.295   6.879  1.00  0.00    -0.395 OA
HETATM   12  H   UNL     1      64.035   7.610   7.747  1.00  0.00     0.209 HD
ENDBRANCH  10  11
ENDBRANCH   5  10
TORSDOF 2
ENDMDL
MODEL 6
REMARK VINA RESULT:      -3.8      2.248      3.113
REMARK  2 active torsions:
REMARK  status: ('A' for Active; 'I' for Inactive)
REMARK    1  A    between atoms: C_5  and  C_10 
REMARK    2  A    between atoms: C_10  and  O_11 
ROOT
HETATM    1  N   UNL     1      64.126   7.566   3.846  1.00  0.00    -0.352 N 
HETATM    2  C   UNL     1      63.185   8.315   3.172  1.00  0.00     0.052 A 
HETATM    3  C   UNL     1      62.905   9.422   3.916  1.00  0.00     0.033 A 
HETATM    4  C   UNL     1      63.688   9.372   5.101  1.00  0.00     0.048 A 
HETATM    5  C   UNL     1      64.419   8.197   5.037  1.00  0.00     0.036 A 
HETATM    6  S   UNL     1      61.728  10.444   3.160  1.00  0.00    -0.100 SA
HETATM    7  C   UNL     1      62.451   8.245   1.956  1.00  0.00     0.038 A 
HETATM    8  C   UNL     1      61.623   9.341   1.843  1.00  0.00     0.053 A 
HETATM    9  C   UNL     1      64.637   6.322   3.319  1.00  0.00     0.156 C 
ENDROOT
BRANCH   5  10
HETATM   10  C   UNL     1      65.378   7.656   6.041  1.00  0.00     0.221 C 
BRANCH  10  11
HETATM   11  O   UNL     1      66.217   8.728   6.441  1.00  0.00    -0.395 OA
HETATM   12  H   UNL     1      66.488   8.601   7.363  1.00  0.00     0.209 HD
ENDBRANCH  10  11
ENDBRANCH   5  10
TORSDOF 2
ENDMDL
MODEL 7
REMARK VINA RESULT:      -3.6      4.220      5.268
REMARK  2 active torsions:
REMARK  status: ('A' for Active; 'I' for Inactive)
REMARK    1  A    between atoms: C_5  and  C_10 
REMARK    2  A    between atoms: C_10  and  O_11 
ROOT
HETATM    1  N   UNL     1      66.582   7.330   5.987  1.00  0.00    -0.352 N 
HETATM    2  C   UNL     1      65.289   7.675   5.658  1.00  0.00     0.052 A 
HETATM    3  C   UNL     1      64.440   7.001   6.485  1.00  0.00     0.033 A 
HETATM    4  C   UNL     1      65.219   6.199   7.362  1.00  0.00     0.048 A 
HETATM    5  C   UNL     1      66.544   6.410   7.013  1.00  0.00     0.036 A 
HETATM    6  S   UNL     1      62.778   7.361   6.160  1.00  0.00    -0.100 SA
HETATM    7  C   UNL     1      64.623   8.512   4.718  1.00  0.00     0.038 A 
HETATM    8  C   UNL     1      63.259   8.420   4.891  1.00  0.00     0.053 A 
HETATM    9  C   UNL     1      67.722   7.877   5.290  1.00  0.00     0.156 C 
ENDROOT
BRANCH   5  10
HETATM   10  C   UNL     1      67.760   5.789   7.608  1.00  0.00     0.221 C 
BRANCH  10  11
HETATM   11  O   UNL     1      68.072   6.521   8.784  1.00  0.00    -0.395 OA
HETATM   12  H   UNL     1      68.708   6.020   9.317  1.00  0.00     0.209 HD
ENDBRANCH  10  11
ENDBRANCH   5  10
TORSDOF 2
ENDMDL
MODEL 8
REMARK VINA RESULT:      -3.5      6.184      7.317
REMARK  2 active torsions:
REMARK  status: ('A' for Active; 'I' for Inactive)
REMARK    1  A    between atoms: C_5  and  C_10 
REMARK    2  A    between atoms: C_10  and  O_11 
ROOT
HETATM    1  N   UNL     1      67.140   5.949   8.061  1.00  0.00    -0.352 N 
HETATM    2  C   UNL     1      66.895   6.580   6.859  1.00  0.00     0.052 A 
HETATM    3  C   UNL     1      67.233   5.728   5.850  1.00  0.00     0.033 A 
HETATM    4  C   UNL     1      67.712   4.521   6.428  1.00  0.00     0.048 A 
HETATM    5  C   UNL     1      67.662   4.698   7.802  1.00  0.00     0.036 A 
HETATM    6  S   UNL     1      66.963   6.420   4.286  1.00  0.00    -0.100 SA
HETATM    7  C   UNL     1      66.407   7.836   6.405  1.00  0.00     0.038 A 
HETATM    8  C   UNL     1      66.404   7.869   5.027  1.00  0.00     0.053 A 
HETATM    9  C   UNL     1      66.886   6.590   9.329  1.00  0.00     0.156 C 
ENDROOT
BRANCH   5  10
HETATM   10  C   UNL     1      68.075   3.743   8.867  1.00  0.00     0.221 C 
BRANCH  10  11
HETATM   11  O   UNL     1      67.054   2.762   8.970  1.00  0.00    -0.395 OA
HETATM   12  H   UNL     1      67.194   2.078   8.297  1.00  0.00     0.209 HD
ENDBRANCH  10  11
ENDBRANCH   5  10
TORSDOF 2
ENDMDL
MODEL 9
REMARK VINA RESULT:      -3.5      2.499      3.169
REMARK  2 active torsions:
REMARK  status: ('A' for Active; 'I' for Inactive)
REMARK    1  A    between atoms: C_5  and  C_10 
REMARK    2  A    between atoms: C_10  and  O_11 
ROOT
HETATM    1  N   UNL     1      61.398   7.144   4.314  1.00  0.00    -0.352 N 
HETATM    2  C   UNL     1      61.186   7.699   3.070  1.00  0.00     0.052 A 
HETATM    3  C   UNL     1      62.263   8.475   2.757  1.00  0.00     0.033 A 
HETATM    4  C   UNL     1      63.183   8.414   3.838  1.00  0.00     0.048 A 
HETATM    5  C   UNL     1      62.608   7.597   4.797  1.00  0.00     0.036 A 
HETATM    6  S   UNL     1      62.105   9.226   1.205  1.00  0.00    -0.100 SA
HETATM    7  C   UNL     1      60.182   7.686   2.062  1.00  0.00     0.038 A 
HETATM    8  C   UNL     1      60.565   8.483   1.006  1.00  0.00     0.053 A 
HETATM    9  C   UNL     1      60.435   6.265   4.935  1.00  0.00     0.156 C 
ENDROOT
BRANCH   5  10
HETATM   10  C   UNL     1      63.151   7.225   6.134  1.00  0.00     0.221 C 
BRANCH  10  11
HETATM   11  O   UNL     1      62.558   8.096   7.085  1.00  0.00    -0.395 OA
HETATM   12  H   UNL     1      63.205   8.310   7.775  1.00  0.00     0.209 HD
ENDBRANCH  10  11
ENDBRANCH   5  10
TORSDOF 2
ENDMDL
