MODEL 1
REMARK VINA RESULT:      -5.1      0.000      0.000
REMARK  3 active torsions:
REMARK  status: ('A' for Active; 'I' for Inactive)
REMARK    1  A    between atoms: C_1  and  C_4 
REMARK    2  A    between atoms: C_9  and  C_13 
REMARK    3  A    between atoms: O_11  and  C_13 
ROOT
HETATM    1  C   UNL     1      64.928   7.624   4.942  1.00  0.00    -0.025 A 
HETATM    2  C   UNL     1      64.384   7.057   3.775  1.00  0.00     0.013 A 
HETATM    3  C   UNL     1      64.389   8.853   5.363  1.00  0.00     0.013 A 
HETATM    4  C   UNL     1      63.349   7.679   3.066  1.00  0.00     0.010 A 
HETATM    5  C   UNL     1      63.362   9.485   4.651  1.00  0.00     0.010 A 
HETATM    6  C   UNL     1      62.829   8.902   3.496  1.00  0.00    -0.035 A 
ENDROOT
BRANCH   1   7
HETATM    7  C   UNL     1      66.016   6.957   5.694  1.00  0.00    -0.011 A 
HETATM    8  C   UNL     1      66.507   7.458   6.904  1.00  0.00     0.099 A 
HETATM    9  N   UNL     1      67.489   6.889   7.651  1.00  0.00    -0.374 N 
HETATM   10  C   UNL     1      68.032   5.754   7.170  1.00  0.00     0.087 A 
ATOM     11  HN  UNL     1      67.799   7.300   8.532  1.00  0.00     0.164 HD
HETATM   12  C   UNL     1      67.641   5.167   5.982  1.00  0.00     0.018 A 
HETATM   13  C   UNL     1      66.623   5.774   5.245  1.00  0.00     0.015 A 
ENDBRANCH   1   7
BRANCH   6  14
HETATM   14  C   UNL     1      61.728   9.590   2.736  1.00  0.00     0.202 C 
BRANCH  14  15
HETATM   15  O   UNL     1      61.227  10.699   3.472  1.00  0.00    -0.396 OA
HETATM   16  H   UNL     1      60.918  11.382   2.856  1.00  0.00     0.209 HD
ENDBRANCH  14  15
ENDBRANCH   6  14
TORSDOF 3
ENDMDL
MODEL 2
REMARK VINA RESULT:      -5.0      1.582      1.972
REMARK  3 active torsions:
REMARK  status: ('A' for Active; 'I' for Inactive)
REMARK    1  A    between atoms: C_1  and  C_4 
REMARK    2  A    between atoms: C_9  and  C_13 
REMARK    3  A    between atoms: O_11  and  C_13 
ROOT
HETATM    1  C   UNL     1      63.764   8.433   4.798  1.00  0.00    -0.025 A 
HETATM    2  C   UNL     1      63.427   8.033   3.491  1.00  0.00     0.013 A 
HETATM    3  C   UNL     1      63.289   9.687   5.220  1.00  0.00     0.013 A 
HETATM    4  C   UNL     1      62.650   8.839   2.650  1.00  0.00     0.010 A 
HETATM    5  C   UNL     1      62.522  10.502   4.379  1.00  0.00     0.010 A 
HETATM    6  C   UNL     1      62.192  10.085   3.085  1.00  0.00    -0.035 A 
ENDROOT
BRANCH   1   7
HETATM    7  C   UNL     1      64.578   7.573   5.687  1.00  0.00    -0.011 A 
HETATM    8  C   UNL     1      64.107   6.355   6.188  1.00  0.00     0.099 A 
HETATM    9  N   UNL     1      64.805   5.512   6.993  1.00  0.00    -0.374 N 
HETATM   10  C   UNL     1      66.049   5.897   7.335  1.00  0.00     0.087 A 
ATOM     11  HN  UNL     1      64.408   4.632   7.320  1.00  0.00     0.164 HD
HETATM   12  C   UNL     1      66.623   7.082   6.914  1.00  0.00     0.018 A 
HETATM   13  C   UNL     1      65.880   7.920   6.081  1.00  0.00     0.015 A 
ENDBRANCH   1   7
BRANCH   6  14
HETATM   14  C   UNL     1      61.368  10.968   2.188  1.00  0.00     0.202 C 
BRANCH  14  15
HETATM   15  O   UNL     1      62.096  12.134   1.825  1.00  0.00    -0.396 OA
HETATM   16  H   UNL     1      62.772  12.316   2.498  1.00  0.00     0.209 HD
ENDBRANCH  14  15
ENDBRANCH   6  14
TORSDOF 3
ENDMDL
MODEL 3
REMARK VINA RESULT:      -5.0      3.495      5.925
REMARK  3 active torsions:
REMARK  status: ('A' for Active; 'I' for Inactive)
REMARK    1  A    between atoms: C_1  and  C_4 
REMARK    2  A    between atoms: C_9  and  C_13 
REMARK    3  A    between atoms: O_11  and  C_13 
ROOT
HETATM    1  C   UNL     1      63.851   8.111   4.790  1.00  0.00    -0.025 A 
HETATM    2  C   UNL     1      65.174   8.516   5.046  1.00  0.00     0.013 A 
HETATM    3  C   UNL     1      63.327   7.096   5.611  1.00  0.00     0.013 A 
HETATM    4  C   UNL     1      65.935   7.944   6.073  1.00  0.00     0.010 A 
HETATM    5  C   UNL     1      64.087   6.513   6.632  1.00  0.00     0.010 A 
HETATM    6  C   UNL     1      65.399   6.933   6.875  1.00  0.00    -0.035 A 
ENDROOT
BRANCH   1   7
HETATM    7  C   UNL     1      63.047   8.726   3.709  1.00  0.00    -0.011 A 
HETATM    8  C   UNL     1      62.366   9.936   3.876  1.00  0.00     0.099 A 
HETATM    9  N   UNL     1      61.627  10.562   2.924  1.00  0.00    -0.374 N 
HETATM   10  C   UNL     1      61.543   9.950   1.727  1.00  0.00     0.087 A 
ATOM     11  HN  UNL     1      61.159  11.449   3.106  1.00  0.00     0.164 HD
HETATM   12  C   UNL     1      62.161   8.747   1.441  1.00  0.00     0.018 A 
HETATM   13  C   UNL     1      62.920   8.137   2.441  1.00  0.00     0.015 A 
ENDBRANCH   1   7
BRANCH   6  14
HETATM   14  C   UNL     1      66.209   6.299   7.973  1.00  0.00     0.202 C 
BRANCH  14  15
HETATM   15  O   UNL     1      67.347   7.094   8.281  1.00  0.00    -0.396 OA
HETATM   16  H   UNL     1      67.359   7.286   9.232  1.00  0.00     0.209 HD
ENDBRANCH  14  15
ENDBRANCH   6  14
TORSDOF 3
ENDMDL
MODEL 4
REMARK VINA RESULT:      -4.8      1.745      2.030
REMARK  3 active torsions:
REMARK  status: ('A' for Active; 'I' for Inactive)
REMARK    1  A    between atoms: C_1  and  C_4 
REMARK    2  A    between atoms: C_9  and  C_13 
REMARK    3  A    between atoms: O_11  and  C_13 
ROOT
HETATM    1  C   UNL     1      64.364   7.084   6.143  1.00  0.00    -0.025 A 
HETATM    2  C   UNL     1      63.015   6.692   6.070  1.00  0.00     0.013 A 
HETATM    3  C   UNL     1      64.761   8.154   5.321  1.00  0.00     0.013 A 
HETATM    4  C   UNL     1      62.104   7.339   5.226  1.00  0.00     0.010 A 
HETATM    5  C   UNL     1      63.857   8.797   4.467  1.00  0.00     0.010 A 
HETATM    6  C   UNL     1      62.517   8.397   4.413  1.00  0.00    -0.035 A 
ENDROOT
BRANCH   1   7
HETATM    7  C   UNL     1      65.322   6.403   7.044  1.00  0.00    -0.011 A 
HETATM    8  C   UNL     1      65.239   5.036   7.332  1.00  0.00     0.099 A 
HETATM    9  N   UNL     1      66.091   4.347   8.134  1.00  0.00    -0.374 N 
HETATM   10  C   UNL     1      67.089   5.053   8.701  1.00  0.00     0.087 A 
ATOM     11  HN  UNL     1      65.982   3.347   8.299  1.00  0.00     0.164 HD
HETATM   12  C   UNL     1      67.270   6.408   8.505  1.00  0.00     0.018 A 
HETATM   13  C   UNL     1      66.381   7.083   7.666  1.00  0.00     0.015 A 
ENDBRANCH   1   7
BRANCH   6  14
HETATM   14  C   UNL     1      61.553   9.092   3.490  1.00  0.00     0.202 C 
BRANCH  14  15
HETATM   15  O   UNL     1      61.304  10.420   3.932  1.00  0.00    -0.396 OA
HETATM   16  H   UNL     1      60.748  10.879   3.283  1.00  0.00     0.209 HD
ENDBRANCH  14  15
ENDBRANCH   6  14
TORSDOF 3
ENDMDL
MODEL 5
REMARK VINA RESULT:      -4.8      3.458      6.042
REMARK  3 active torsions:
REMARK  status: ('A' for Active; 'I' for Inactive)
REMARK    1  A    between atoms: C_1  and  C_4 
REMARK    2  A    between atoms: C_9  and  C_13 
REMARK    3  A    between atoms: O_11  and  C_13 
ROOT
HETATM    1  C   UNL     1      64.373   8.072   5.389  1.00  0.00    -0.025 A 
HETATM    2  C   UNL     1      65.717   8.443   5.579  1.00  0.00     0.013 A 
HETATM    3  C   UNL     1      63.910   6.965   6.122  1.00  0.00     0.013 A 
HETATM    4  C   UNL     1      66.556   7.750   6.460  1.00  0.00     0.010 A 
HETATM    5  C   UNL     1      64.747   6.261   6.995  1.00  0.00     0.010 A 
HETATM    6  C   UNL     1      66.079   6.649   7.175  1.00  0.00    -0.035 A 
ENDROOT
BRANCH   1   7
HETATM    7  C   UNL     1      63.487   8.815   4.463  1.00  0.00    -0.011 A 
HETATM    8  C   UNL     1      63.176   8.344   3.183  1.00  0.00     0.099 A 
HETATM    9  N   UNL     1      62.360   8.964   2.292  1.00  0.00    -0.374 N 
HETATM   10  C   UNL     1      61.820  10.135   2.683  1.00  0.00     0.087 A 
ATOM     11  HN  UNL     1      62.165   8.564   1.375  1.00  0.00     0.164 HD
HETATM   12  C   UNL     1      62.059  10.710   3.916  1.00  0.00     0.018 A 
HETATM   13  C   UNL     1      62.896  10.040   4.810  1.00  0.00     0.015 A 
ENDBRANCH   1   7
BRANCH   6  14
HETATM   14  C   UNL     1      66.973   5.885   8.115  1.00  0.00     0.202 C 
BRANCH  14  15
HETATM   15  O   UNL     1      66.233   4.897   8.820  1.00  0.00    -0.396 OA
HETATM   16  H   UNL     1      65.687   4.395   8.195  1.00  0.00     0.209 HD
ENDBRANCH  14  15
ENDBRANCH   6  14
TORSDOF 3
ENDMDL
MODEL 6
REMARK VINA RESULT:      -4.5      1.982      3.075
REMARK  3 active torsions:
REMARK  status: ('A' for Active; 'I' for Inactive)
REMARK    1  A    between atoms: C_1  and  C_4 
REMARK    2  A    between atoms: C_9  and  C_13 
REMARK    3  A    between atoms: O_11  and  C_13 
ROOT
HETATM    1  C   UNL     1      63.167   7.774   3.213  1.00  0.00    -0.025 A 
HETATM    2  C   UNL     1      62.009   8.500   3.549  1.00  0.00     0.013 A 
HETATM    3  C   UNL     1      63.177   7.139   1.959  1.00  0.00     0.013 A 
HETATM    4  C   UNL     1      60.918   8.594   2.676  1.00  0.00     0.010 A 
HETATM    5  C   UNL     1      62.084   7.220   1.087  1.00  0.00     0.010 A 
HETATM    6  C   UNL     1      60.944   7.952   1.436  1.00  0.00    -0.035 A 
ENDROOT
BRANCH   1   7
HETATM    7  C   UNL     1      64.321   7.685   4.137  1.00  0.00    -0.011 A 
HETATM    8  C   UNL     1      64.489   8.562   5.213  1.00  0.00     0.099 A 
HETATM    9  N   UNL     1      65.513   8.526   6.105  1.00  0.00    -0.374 N 
HETATM   10  C   UNL     1      66.442   7.568   5.920  1.00  0.00     0.087 A 
ATOM     11  HN  UNL     1      65.576   9.191   6.876  1.00  0.00     0.164 HD
HETATM   12  C   UNL     1      66.393   6.650   4.888  1.00  0.00     0.018 A 
HETATM   13  C   UNL     1      65.322   6.711   3.995  1.00  0.00     0.015 A 
ENDBRANCH   1   7
BRANCH   6  14
HETATM   14  C   UNL     1      59.774   8.032   0.493  1.00  0.00     0.202 C 
BRANCH  14  15
HETATM   15  O   UNL     1      58.628   8.546   1.158  1.00  0.00    -0.396 OA
HETATM   16  H   UNL     1      58.882   9.313   1.695  1.00  0.00     0.209 HD
ENDBRANCH  14  15
ENDBRANCH   6  14
TORSDOF 3
ENDMDL
MODEL 7
REMARK VINA RESULT:      -4.2      2.018      2.672
REMARK  3 active torsions:
REMARK  status: ('A' for Active; 'I' for Inactive)
REMARK    1  A    between atoms: C_1  and  C_4 
REMARK    2  A    between atoms: C_9  and  C_13 
REMARK    3  A    between atoms: O_11  and  C_13 
ROOT
HETATM    1  C   UNL     1      63.031   7.551   4.449  1.00  0.00    -0.025 A 
HETATM    2  C   UNL     1      61.834   6.917   4.830  1.00  0.00     0.013 A 
HETATM    3  C   UNL     1      63.033   8.212   3.208  1.00  0.00     0.013 A 
HETATM    4  C   UNL     1      60.693   6.946   4.019  1.00  0.00     0.010 A 
HETATM    5  C   UNL     1      61.899   8.234   2.387  1.00  0.00     0.010 A 
HETATM    6  C   UNL     1      60.716   7.604   2.786  1.00  0.00    -0.035 A 
ENDROOT
BRANCH   1   7
HETATM    7  C   UNL     1      64.232   7.525   5.316  1.00  0.00    -0.011 A 
HETATM    8  C   UNL     1      64.228   6.939   6.586  1.00  0.00     0.099 A 
HETATM    9  N   UNL     1      65.295   6.867   7.423  1.00  0.00    -0.374 N 
HETATM   10  C   UNL     1      66.444   7.417   6.986  1.00  0.00     0.087 A 
ATOM     11  HN  UNL     1      65.230   6.418   8.337  1.00  0.00     0.164 HD
HETATM   12  C   UNL     1      66.572   8.035   5.756  1.00  0.00     0.018 A 
HETATM   13  C   UNL     1      65.457   8.083   4.918  1.00  0.00     0.015 A 
ENDBRANCH   1   7
BRANCH   6  14
HETATM   14  C   UNL     1      59.503   7.631   1.897  1.00  0.00     0.202 C 
BRANCH  14  15
HETATM   15  O   UNL     1      59.531   8.769   1.045  1.00  0.00    -0.396 OA
HETATM   16  H   UNL     1      60.290   8.706   0.445  1.00  0.00     0.209 HD
ENDBRANCH  14  15
ENDBRANCH   6  14
TORSDOF 3
ENDMDL
MODEL 8
REMARK VINA RESULT:      -4.0      3.440      4.333
REMARK  3 active torsions:
REMARK  status: ('A' for Active; 'I' for Inactive)
REMARK    1  A    between atoms: C_1  and  C_4 
REMARK    2  A    between atoms: C_9  and  C_13 
REMARK    3  A    between atoms: O_11  and  C_13 
ROOT
HETATM    1  C   UNL     1      62.767   7.296   2.524  1.00  0.00    -0.025 A 
HETATM    2  C   UNL     1      62.377   8.079   1.421  1.00  0.00     0.013 A 
HETATM    3  C   UNL     1      62.842   7.945   3.769  1.00  0.00     0.013 A 
HETATM    4  C   UNL     1      62.071   9.439   1.553  1.00  0.00     0.010 A 
HETATM    5  C   UNL     1      62.548   9.308   3.904  1.00  0.00     0.010 A 
HETATM    6  C   UNL     1      62.156  10.068   2.797  1.00  0.00    -0.035 A 
ENDROOT
BRANCH   1   7
HETATM    7  C   UNL     1      63.080   5.856   2.380  1.00  0.00    -0.011 A 
HETATM    8  C   UNL     1      63.888   5.170   3.293  1.00  0.00     0.099 A 
HETATM    9  N   UNL     1      64.201   3.849   3.231  1.00  0.00    -0.374 N 
HETATM   10  C   UNL     1      63.693   3.158   2.193  1.00  0.00     0.087 A 
ATOM     11  HN  UNL     1      64.790   3.404   3.934  1.00  0.00     0.164 HD
HETATM   12  C   UNL     1      62.892   3.724   1.219  1.00  0.00     0.018 A 
HETATM   13  C   UNL     1      62.583   5.081   1.320  1.00  0.00     0.015 A 
ENDBRANCH   1   7
BRANCH   6  14
HETATM   14  C   UNL     1      61.844  11.532   2.952  1.00  0.00     0.202 C 
BRANCH  14  15
HETATM   15  O   UNL     1      62.007  12.213   1.716  1.00  0.00    -0.396 OA
HETATM   16  H   UNL     1      61.136  12.398   1.331  1.00  0.00     0.209 HD
ENDBRANCH  14  15
ENDBRANCH   6  14
TORSDOF 3
ENDMDL
MODEL 9
REMARK VINA RESULT:      -3.9      3.877      5.976
REMARK  3 active torsions:
REMARK  status: ('A' for Active; 'I' for Inactive)
REMARK    1  A    between atoms: C_1  and  C_4 
REMARK    2  A    between atoms: C_9  and  C_13 
REMARK    3  A    between atoms: O_11  and  C_13 
ROOT
HETATM    1  C   UNL     1      62.701   7.428   4.774  1.00  0.00    -0.025 A 
HETATM    2  C   UNL     1      63.461   6.306   5.153  1.00  0.00     0.013 A 
HETATM    3  C   UNL     1      63.365   8.667   4.751  1.00  0.00     0.013 A 
HETATM    4  C   UNL     1      64.817   6.412   5.485  1.00  0.00     0.010 A 
HETATM    5  C   UNL     1      64.717   8.781   5.093  1.00  0.00     0.010 A 
HETATM    6  C   UNL     1      65.459   7.653   5.461  1.00  0.00    -0.035 A 
ENDROOT
BRANCH   1   7
HETATM    7  C   UNL     1      61.269   7.309   4.414  1.00  0.00    -0.011 A 
HETATM    8  C   UNL     1      60.663   8.137   3.464  1.00  0.00     0.099 A 
HETATM    9  N   UNL     1      59.363   8.071   3.076  1.00  0.00    -0.374 N 
HETATM   10  C   UNL     1      58.603   7.132   3.672  1.00  0.00     0.087 A 
ATOM     11  HN  UNL     1      58.981   8.700   2.370  1.00  0.00     0.164 HD
HETATM   12  C   UNL     1      59.081   6.261   4.633  1.00  0.00     0.018 A 
HETATM   13  C   UNL     1      60.425   6.352   5.000  1.00  0.00     0.015 A 
ENDBRANCH   1   7
BRANCH   6  14
HETATM   14  C   UNL     1      66.911   7.785   5.830  1.00  0.00     0.202 C 
BRANCH  14  15
HETATM   15  O   UNL     1      67.661   8.300   4.737  1.00  0.00    -0.396 OA
HETATM   16  H   UNL     1      68.148   9.089   5.022  1.00  0.00     0.209 HD
ENDBRANCH  14  15
ENDBRANCH   6  14
TORSDOF 3
ENDMDL
