MODEL 1
REMARK VINA RESULT:      -5.4      0.000      0.000
REMARK  1 active torsions:
REMARK  status: ('A' for Active; 'I' for Inactive)
REMARK    1  A    between atoms: C_6  and  C_7 
ROOT
HETATM    1  N   UNL     1      62.748   6.925   1.278  1.00  0.00    -0.360 N 
HETATM    2  C   UNL     1      62.068   8.916   2.020  1.00  0.00    -0.007 A 
HETATM    3  C   UNL     1      62.842   7.798   2.343  1.00  0.00     0.044 A 
HETATM    4  C   UNL     1      61.928   7.444   0.310  1.00  0.00     0.091 A 
HETATM    5  C   UNL     1      61.495   8.677   0.742  1.00  0.00     0.031 A 
HETATM    6  C   UNL     1      62.704   9.910   4.146  1.00  0.00     0.041 A 
HETATM    7  C   UNL     1      61.999   9.987   2.935  1.00  0.00     0.032 A 
HETATM    8  C   UNL     1      63.543   7.700   3.554  1.00  0.00     0.031 A 
HETATM    9  C   UNL     1      63.462   8.774   4.449  1.00  0.00     0.021 A 
HETATM   10  C   UNL     1      63.432   5.655   1.182  1.00  0.00     0.155 C 
ENDROOT
BRANCH   6  11
HETATM   11  C   UNL     1      62.623  11.061   5.079  1.00  0.00     0.209 C 
HETATM   12  O   UNL     1      63.136  11.129   6.180  1.00  0.00    -0.644 OA
HETATM   13  O   UNL     1      61.891  12.080   4.588  1.00  0.00    -0.644 OA
ENDBRANCH   6  11
TORSDOF 1
ENDMDL
MODEL 2
REMARK VINA RESULT:      -5.1      0.616      2.062
REMARK  1 active torsions:
REMARK  status: ('A' for Active; 'I' for Inactive)
REMARK    1  A    between atoms: C_6  and  C_7 
ROOT
HETATM    1  N   UNL     1      62.937   6.655   1.562  1.00  0.00    -0.360 N 
HETATM    2  C   UNL     1      63.466   7.761   3.426  1.00  0.00    -0.007 A 
HETATM    3  C   UNL     1      62.727   7.837   2.242  1.00  0.00     0.044 A 
HETATM    4  C   UNL     1      63.796   5.850   2.262  1.00  0.00     0.091 A 
HETATM    5  C   UNL     1      64.138   6.508   3.423  1.00  0.00     0.031 A 
HETATM    6  C   UNL     1      62.636   9.964   4.031  1.00  0.00     0.041 A 
HETATM    7  C   UNL     1      63.419   8.839   4.333  1.00  0.00     0.032 A 
HETATM    8  C   UNL     1      61.948   8.959   1.920  1.00  0.00     0.031 A 
HETATM    9  C   UNL     1      61.914  10.019   2.834  1.00  0.00     0.021 A 
HETATM   10  C   UNL     1      62.323   6.302   0.301  1.00  0.00     0.155 C 
ENDROOT
BRANCH   6  11
HETATM   11  C   UNL     1      62.596  11.075   5.014  1.00  0.00     0.209 C 
HETATM   12  O   UNL     1      63.125  11.081   6.110  1.00  0.00    -0.644 OA
HETATM   13  O   UNL     1      61.884  12.132   4.578  1.00  0.00    -0.644 OA
ENDBRANCH   6  11
TORSDOF 1
ENDMDL
MODEL 3
REMARK VINA RESULT:      -4.9      1.369      2.542
REMARK  1 active torsions:
REMARK  status: ('A' for Active; 'I' for Inactive)
REMARK    1  A    between atoms: C_6  and  C_7 
ROOT
HETATM    1  N   UNL     1      62.462   5.978   2.090  1.00  0.00    -0.360 N 
HETATM    2  C   UNL     1      62.540   7.800   3.375  1.00  0.00    -0.007 A 
HETATM    3  C   UNL     1      62.294   7.348   2.076  1.00  0.00     0.044 A 
HETATM    4  C   UNL     1      62.825   5.557   3.342  1.00  0.00     0.091 A 
HETATM    5  C   UNL     1      62.879   6.664   4.159  1.00  0.00     0.031 A 
HETATM    6  C   UNL     1      62.057  10.063   2.628  1.00  0.00     0.041 A 
HETATM    7  C   UNL     1      62.420   9.177   3.655  1.00  0.00     0.032 A 
HETATM    8  C   UNL     1      61.942   8.221   1.036  1.00  0.00     0.031 A 
HETATM    9  C   UNL     1      61.827   9.585   1.334  1.00  0.00     0.021 A 
HETATM   10  C   UNL     1      62.262   5.105   0.954  1.00  0.00     0.155 C 
ENDROOT
BRANCH   6  11
HETATM   11  C   UNL     1      61.924  11.503   2.960  1.00  0.00     0.209 C 
HETATM   12  O   UNL     1      61.928  11.985   4.077  1.00  0.00    -0.644 OA
HETATM   13  O   UNL     1      61.783  12.279   1.867  1.00  0.00    -0.644 OA
ENDBRANCH   6  11
TORSDOF 1
ENDMDL
MODEL 4
REMARK VINA RESULT:      -4.9      2.496      3.662
REMARK  1 active torsions:
REMARK  status: ('A' for Active; 'I' for Inactive)
REMARK    1  A    between atoms: C_6  and  C_7 
ROOT
HETATM    1  N   UNL     1      62.049  10.216   2.059  1.00  0.00    -0.360 N 
HETATM    2  C   UNL     1      62.604   8.204   2.849  1.00  0.00    -0.007 A 
HETATM    3  C   UNL     1      62.426   9.544   3.204  1.00  0.00     0.044 A 
HETATM    4  C   UNL     1      62.005   9.354   0.996  1.00  0.00     0.091 A 
HETATM    5  C   UNL     1      62.342   8.101   1.455  1.00  0.00     0.031 A 
HETATM    6  C   UNL     1      63.163   7.712   5.163  1.00  0.00     0.041 A 
HETATM    7  C   UNL     1      62.978   7.276   3.842  1.00  0.00     0.032 A 
HETATM    8  C   UNL     1      62.619   9.999   4.518  1.00  0.00     0.031 A 
HETATM    9  C   UNL     1      62.989   9.061   5.490  1.00  0.00     0.021 A 
HETATM   10  C   UNL     1      61.724  11.623   1.992  1.00  0.00     0.155 C 
ENDROOT
BRANCH   6  11
HETATM   11  C   UNL     1      63.540   6.707   6.187  1.00  0.00     0.209 C 
HETATM   12  O   UNL     1      63.231   5.530   6.184  1.00  0.00    -0.644 OA
HETATM   13  O   UNL     1      64.287   7.228   7.179  1.00  0.00    -0.644 OA
ENDBRANCH   6  11
TORSDOF 1
ENDMDL
MODEL 5
REMARK VINA RESULT:      -4.8      2.344      3.235
REMARK  1 active torsions:
REMARK  status: ('A' for Active; 'I' for Inactive)
REMARK    1  A    between atoms: C_6  and  C_7 
ROOT
HETATM    1  N   UNL     1      62.123   9.042   1.722  1.00  0.00    -0.360 N 
HETATM    2  C   UNL     1      62.812   9.420   3.810  1.00  0.00    -0.007 A 
HETATM    3  C   UNL     1      62.847   8.496   2.762  1.00  0.00     0.044 A 
HETATM    4  C   UNL     1      61.618  10.262   2.085  1.00  0.00     0.091 A 
HETATM    5  C   UNL     1      62.030  10.523   3.372  1.00  0.00     0.031 A 
HETATM    6  C   UNL     1      64.194   7.912   5.124  1.00  0.00     0.041 A 
HETATM    7  C   UNL     1      63.495   9.124   5.008  1.00  0.00     0.032 A 
HETATM    8  C   UNL     1      63.531   7.275   2.867  1.00  0.00     0.031 A 
HETATM    9  C   UNL     1      64.204   7.000   4.064  1.00  0.00     0.021 A 
HETATM   10  C   UNL     1      61.941   8.428   0.425  1.00  0.00     0.155 C 
ENDROOT
BRANCH   6  11
HETATM   11  C   UNL     1      64.915   7.638   6.391  1.00  0.00     0.209 C 
HETATM   12  O   UNL     1      64.540   6.903   7.286  1.00  0.00    -0.644 OA
HETATM   13  O   UNL     1      66.080   8.309   6.484  1.00  0.00    -0.644 OA
ENDBRANCH   6  11
TORSDOF 1
ENDMDL
MODEL 6
REMARK VINA RESULT:      -4.7      1.865      2.684
REMARK  1 active torsions:
REMARK  status: ('A' for Active; 'I' for Inactive)
REMARK    1  A    between atoms: C_6  and  C_7 
ROOT
HETATM    1  N   UNL     1      65.408   5.784   3.275  1.00  0.00    -0.360 N 
HETATM    2  C   UNL     1      63.722   7.239   3.135  1.00  0.00    -0.007 A 
HETATM    3  C   UNL     1      64.890   6.933   3.838  1.00  0.00     0.044 A 
HETATM    4  C   UNL     1      64.598   5.346   2.261  1.00  0.00     0.091 A 
HETATM    5  C   UNL     1      63.547   6.229   2.150  1.00  0.00     0.031 A 
HETATM    6  C   UNL     1      63.444   9.202   4.542  1.00  0.00     0.041 A 
HETATM    7  C   UNL     1      62.989   8.390   3.491  1.00  0.00     0.032 A 
HETATM    8  C   UNL     1      65.352   7.728   4.898  1.00  0.00     0.031 A 
HETATM    9  C   UNL     1      64.611   8.867   5.236  1.00  0.00     0.021 A 
HETATM   10  C   UNL     1      66.640   5.144   3.679  1.00  0.00     0.155 C 
ENDROOT
BRANCH   6  11
HETATM   11  C   UNL     1      62.659  10.414   4.881  1.00  0.00     0.209 C 
HETATM   12  O   UNL     1      61.748  10.885   4.226  1.00  0.00    -0.644 OA
HETATM   13  O   UNL     1      63.058  10.989   6.033  1.00  0.00    -0.644 OA
ENDBRANCH   6  11
TORSDOF 1
ENDMDL
MODEL 7
REMARK VINA RESULT:      -4.4      2.288      2.895
REMARK  1 active torsions:
REMARK  status: ('A' for Active; 'I' for Inactive)
REMARK    1  A    between atoms: C_6  and  C_7 
ROOT
HETATM    1  N   UNL     1      60.122   7.729   1.888  1.00  0.00    -0.360 N 
HETATM    2  C   UNL     1      62.082   8.543   2.578  1.00  0.00    -0.007 A 
HETATM    3  C   UNL     1      60.999   7.743   2.954  1.00  0.00     0.044 A 
HETATM    4  C   UNL     1      60.603   8.506   0.868  1.00  0.00     0.091 A 
HETATM    5  C   UNL     1      61.816   9.021   1.266  1.00  0.00     0.031 A 
HETATM    6  C   UNL     1      63.104   8.092   4.737  1.00  0.00     0.041 A 
HETATM    7  C   UNL     1      63.149   8.719   3.482  1.00  0.00     0.032 A 
HETATM    8  C   UNL     1      60.933   7.119   4.209  1.00  0.00     0.031 A 
HETATM    9  C   UNL     1      62.003   7.305   5.092  1.00  0.00     0.021 A 
HETATM   10  C   UNL     1      58.884   6.984   1.842  1.00  0.00     0.155 C 
ENDROOT
BRANCH   6  11
HETATM   11  C   UNL     1      64.251   8.285   5.659  1.00  0.00     0.209 C 
HETATM   12  O   UNL     1      65.112   9.139   5.562  1.00  0.00    -0.644 OA
HETATM   13  O   UNL     1      64.269   7.387   6.664  1.00  0.00    -0.644 OA
ENDBRANCH   6  11
TORSDOF 1
ENDMDL
MODEL 8
REMARK VINA RESULT:      -4.4      2.171      3.639
REMARK  1 active torsions:
REMARK  status: ('A' for Active; 'I' for Inactive)
REMARK    1  A    between atoms: C_6  and  C_7 
ROOT
HETATM    1  N   UNL     1      64.934   5.852   4.582  1.00  0.00    -0.360 N 
HETATM    2  C   UNL     1      64.157   7.917   4.922  1.00  0.00    -0.007 A 
HETATM    3  C   UNL     1      64.189   6.861   4.005  1.00  0.00     0.044 A 
HETATM    4  C   UNL     1      65.388   6.242   5.813  1.00  0.00     0.091 A 
HETATM    5  C   UNL     1      64.921   7.515   6.052  1.00  0.00     0.031 A 
HETATM    6  C   UNL     1      62.773   9.167   3.362  1.00  0.00     0.041 A 
HETATM    7  C   UNL     1      63.439   9.085   4.596  1.00  0.00     0.032 A 
HETATM    8  C   UNL     1      63.538   6.932   2.764  1.00  0.00     0.031 A 
HETATM    9  C   UNL     1      62.830   8.101   2.459  1.00  0.00     0.021 A 
HETATM   10  C   UNL     1      65.182   4.559   3.984  1.00  0.00     0.155 C 
ENDROOT
BRANCH   6  11
HETATM   11  C   UNL     1      62.014  10.405   3.057  1.00  0.00     0.209 C 
HETATM   12  O   UNL     1      61.766  10.838   1.947  1.00  0.00    -0.644 OA
HETATM   13  O   UNL     1      61.602  11.051   4.165  1.00  0.00    -0.644 OA
ENDBRANCH   6  11
TORSDOF 1
ENDMDL
MODEL 9
REMARK VINA RESULT:      -4.4      1.799      2.358
REMARK  1 active torsions:
REMARK  status: ('A' for Active; 'I' for Inactive)
REMARK    1  A    between atoms: C_6  and  C_7 
ROOT
HETATM    1  N   UNL     1      60.996   5.831   1.883  1.00  0.00    -0.360 N 
HETATM    2  C   UNL     1      61.649   7.884   1.301  1.00  0.00    -0.007 A 
HETATM    3  C   UNL     1      61.106   7.128   2.344  1.00  0.00     0.044 A 
HETATM    4  C   UNL     1      61.429   5.750   0.586  1.00  0.00     0.091 A 
HETATM    5  C   UNL     1      61.842   7.006   0.200  1.00  0.00     0.031 A 
HETATM    6  C   UNL     1      61.581   9.839   2.746  1.00  0.00     0.041 A 
HETATM    7  C   UNL     1      61.890   9.258   1.505  1.00  0.00     0.032 A 
HETATM    8  C   UNL     1      60.781   7.695   3.585  1.00  0.00     0.031 A 
HETATM    9  C   UNL     1      61.028   9.061   3.769  1.00  0.00     0.021 A 
HETATM   10  C   UNL     1      60.516   4.712   2.662  1.00  0.00     0.155 C 
ENDROOT
BRANCH   6  11
HETATM   11  C   UNL     1      61.861  11.283   2.933  1.00  0.00     0.209 C 
HETATM   12  O   UNL     1      62.114  12.085   2.053  1.00  0.00    -0.644 OA
HETATM   13  O   UNL     1      61.817  11.660   4.226  1.00  0.00    -0.644 OA
ENDBRANCH   6  11
TORSDOF 1
ENDMDL
