MODEL 1
REMARK VINA RESULT:      -5.5      0.000      0.000
REMARK  3 active torsions:
REMARK  status: ('A' for Active; 'I' for Inactive)
REMARK    1  A    between atoms: C_1  and  C_2 
REMARK    2  A    between atoms: C_9  and  C_15 
REMARK    3  A    between atoms: O_12  and  C_15 
ROOT
HETATM    1  C   UNL     1      64.369   7.903   4.499  1.00  0.00    -0.023 A 
HETATM    2  C   UNL     1      64.207   9.062   5.283  1.00  0.00     0.021 A 
HETATM    3  C   UNL     1      63.217  10.022   5.005  1.00  0.00    -0.034 A 
HETATM    4  C   UNL     1      63.477   7.728   3.426  1.00  0.00     0.012 A 
HETATM    5  C   UNL     1      62.478   8.666   3.148  1.00  0.00     0.002 A 
HETATM    6  C   UNL     1      62.350   9.810   3.932  1.00  0.00     0.009 A 
ENDROOT
BRANCH   1   7
HETATM    7  C   UNL     1      65.435   6.923   4.790  1.00  0.00     0.005 A 
HETATM    8  C   UNL     1      66.617   6.830   4.071  1.00  0.00     0.102 A 
HETATM    9  N   UNL     1      67.610   5.942   4.313  1.00  0.00    -0.361 N 
HETATM   10  C   UNL     1      67.397   5.100   5.332  1.00  0.00     0.180 A 
ATOM     11  HN  UNL     1      68.463   5.917   3.756  1.00  0.00     0.166 HD
HETATM   12  N   UNL     1      66.310   5.076   6.114  1.00  0.00    -0.361 N 
HETATM   13  C   UNL     1      65.360   5.994   5.820  1.00  0.00     0.102 A 
ATOM     14  HN  UNL     1      66.205   4.410   6.879  1.00  0.00     0.166 HD
ENDBRANCH   1   7
BRANCH   3  15
HETATM   15  C   UNL     1      63.114  11.262   5.852  1.00  0.00     0.202 C 
BRANCH  15  16
HETATM   16  O   UNL     1      64.355  11.539   6.487  1.00  0.00    -0.396 OA
HETATM   17  H   UNL     1      65.083  11.329   5.880  1.00  0.00     0.209 HD
ENDBRANCH  15  16
ENDBRANCH   3  15
TORSDOF 3
ENDMDL
MODEL 2
REMARK VINA RESULT:      -5.4      2.166      2.514
REMARK  3 active torsions:
REMARK  status: ('A' for Active; 'I' for Inactive)
REMARK    1  A    between atoms: C_1  and  C_2 
REMARK    2  A    between atoms: C_9  and  C_15 
REMARK    3  A    between atoms: O_12  and  C_15 
ROOT
HETATM    1  C   UNL     1      64.274   7.983   4.932  1.00  0.00    -0.023 A 
HETATM    2  C   UNL     1      63.579   9.206   5.000  1.00  0.00     0.021 A 
HETATM    3  C   UNL     1      62.721   9.638   3.973  1.00  0.00    -0.034 A 
HETATM    4  C   UNL     1      64.058   7.189   3.791  1.00  0.00     0.012 A 
HETATM    5  C   UNL     1      63.195   7.599   2.770  1.00  0.00     0.002 A 
HETATM    6  C   UNL     1      62.532   8.820   2.858  1.00  0.00     0.009 A 
ENDROOT
BRANCH   1   7
HETATM    7  C   UNL     1      65.193   7.562   6.008  1.00  0.00     0.005 A 
HETATM    8  C   UNL     1      64.940   6.511   6.876  1.00  0.00     0.102 A 
HETATM    9  N   UNL     1      65.762   6.105   7.871  1.00  0.00    -0.361 N 
HETATM   10  C   UNL     1      66.899   6.799   8.002  1.00  0.00     0.180 A 
ATOM     11  HN  UNL     1      65.531   5.321   8.481  1.00  0.00     0.166 HD
HETATM   12  N   UNL     1      67.277   7.832   7.238  1.00  0.00    -0.361 N 
HETATM   13  C   UNL     1      66.411   8.181   6.259  1.00  0.00     0.102 A 
ATOM     14  HN  UNL     1      68.160   8.323   7.384  1.00  0.00     0.166 HD
ENDBRANCH   1   7
BRANCH   3  15
HETATM   15  C   UNL     1      62.033  10.973   4.081  1.00  0.00     0.202 C 
BRANCH  15  16
HETATM   16  O   UNL     1      61.325  11.270   2.886  1.00  0.00    -0.396 OA
HETATM   17  H   UNL     1      61.152  10.448   2.400  1.00  0.00     0.209 HD
ENDBRANCH  15  16
ENDBRANCH   3  15
TORSDOF 3
ENDMDL
MODEL 3
REMARK VINA RESULT:      -5.4      2.266      2.764
REMARK  3 active torsions:
REMARK  status: ('A' for Active; 'I' for Inactive)
REMARK    1  A    between atoms: C_1  and  C_2 
REMARK    2  A    between atoms: C_9  and  C_15 
REMARK    3  A    between atoms: O_12  and  C_15 
ROOT
HETATM    1  C   UNL     1      63.132   8.105   3.458  1.00  0.00    -0.023 A 
HETATM    2  C   UNL     1      62.700   9.444   3.393  1.00  0.00     0.021 A 
HETATM    3  C   UNL     1      62.114   9.985   2.235  1.00  0.00    -0.034 A 
HETATM    4  C   UNL     1      62.934   7.313   2.313  1.00  0.00     0.012 A 
HETATM    5  C   UNL     1      62.338   7.834   1.161  1.00  0.00     0.002 A 
HETATM    6  C   UNL     1      61.932   9.166   1.120  1.00  0.00     0.009 A 
ENDROOT
BRANCH   1   7
HETATM    7  C   UNL     1      63.774   7.565   4.674  1.00  0.00     0.005 A 
HETATM    8  C   UNL     1      64.764   8.226   5.385  1.00  0.00     0.102 A 
HETATM    9  N   UNL     1      65.370   7.756   6.500  1.00  0.00    -0.361 N 
HETATM   10  C   UNL     1      64.960   6.551   6.918  1.00  0.00     0.180 A 
ATOM     11  HN  UNL     1      66.092   8.284   6.990  1.00  0.00     0.166 HD
HETATM   12  N   UNL     1      64.016   5.801   6.336  1.00  0.00    -0.361 N 
HETATM   13  C   UNL     1      63.447   6.335   5.230  1.00  0.00     0.102 A 
ATOM     14  HN  UNL     1      63.743   4.889   6.702  1.00  0.00     0.166 HD
ENDBRANCH   1   7
BRANCH   3  15
HETATM   15  C   UNL     1      61.705  11.434   2.208  1.00  0.00     0.202 C 
BRANCH  15  16
HETATM   16  O   UNL     1      61.875  12.027   3.488  1.00  0.00    -0.396 OA
HETATM   17  H   UNL     1      62.116  11.342   4.132  1.00  0.00     0.209 HD
ENDBRANCH  15  16
ENDBRANCH   3  15
TORSDOF 3
ENDMDL
MODEL 4
REMARK VINA RESULT:      -5.2      2.665      3.427
REMARK  3 active torsions:
REMARK  status: ('A' for Active; 'I' for Inactive)
REMARK    1  A    between atoms: C_1  and  C_2 
REMARK    2  A    between atoms: C_9  and  C_15 
REMARK    3  A    between atoms: O_12  and  C_15 
ROOT
HETATM    1  C   UNL     1      63.229   9.157   4.515  1.00  0.00    -0.023 A 
HETATM    2  C   UNL     1      62.812   8.747   3.234  1.00  0.00     0.021 A 
HETATM    3  C   UNL     1      62.045   9.576   2.395  1.00  0.00    -0.034 A 
HETATM    4  C   UNL     1      62.861  10.452   4.922  1.00  0.00     0.012 A 
HETATM    5  C   UNL     1      62.112  11.292   4.093  1.00  0.00     0.002 A 
HETATM    6  C   UNL     1      61.702  10.855   2.836  1.00  0.00     0.009 A 
ENDROOT
BRANCH   1   7
HETATM    7  C   UNL     1      64.008   8.259   5.392  1.00  0.00     0.005 A 
HETATM    8  C   UNL     1      65.316   8.504   5.783  1.00  0.00     0.102 A 
HETATM    9  N   UNL     1      66.055   7.700   6.583  1.00  0.00    -0.361 N 
HETATM   10  C   UNL     1      65.444   6.586   7.006  1.00  0.00     0.180 A 
ATOM     11  HN  UNL     1      67.013   7.927   6.845  1.00  0.00     0.166 HD
HETATM   12  N   UNL     1      64.189   6.222   6.713  1.00  0.00    -0.361 N 
HETATM   13  C   UNL     1      63.506   7.075   5.914  1.00  0.00     0.102 A 
ATOM     14  HN  UNL     1      63.775   5.360   7.068  1.00  0.00     0.166 HD
ENDBRANCH   1   7
BRANCH   3  15
HETATM   15  C   UNL     1      61.594   9.072   1.050  1.00  0.00     0.202 C 
BRANCH  15  16
HETATM   16  O   UNL     1      60.202   8.789   1.062  1.00  0.00    -0.396 OA
HETATM   17  H   UNL     1      59.739   9.423   0.492  1.00  0.00     0.209 HD
ENDBRANCH  15  16
ENDBRANCH   3  15
TORSDOF 3
ENDMDL
MODEL 5
REMARK VINA RESULT:      -4.9      3.479      5.194
REMARK  3 active torsions:
REMARK  status: ('A' for Active; 'I' for Inactive)
REMARK    1  A    between atoms: C_1  and  C_2 
REMARK    2  A    between atoms: C_9  and  C_15 
REMARK    3  A    between atoms: O_12  and  C_15 
ROOT
HETATM    1  C   UNL     1      63.038   8.267   4.642  1.00  0.00    -0.023 A 
HETATM    2  C   UNL     1      64.372   8.244   5.096  1.00  0.00     0.021 A 
HETATM    3  C   UNL     1      64.828   7.297   6.030  1.00  0.00    -0.034 A 
HETATM    4  C   UNL     1      62.174   7.282   5.151  1.00  0.00     0.012 A 
HETATM    5  C   UNL     1      62.618   6.325   6.067  1.00  0.00     0.002 A 
HETATM    6  C   UNL     1      63.939   6.333   6.509  1.00  0.00     0.009 A 
ENDROOT
BRANCH   1   7
HETATM    7  C   UNL     1      62.573   9.290   3.684  1.00  0.00     0.005 A 
HETATM    8  C   UNL     1      62.464   9.078   2.318  1.00  0.00     0.102 A 
HETATM    9  N   UNL     1      62.043   9.995   1.416  1.00  0.00    -0.361 N 
HETATM   10  C   UNL     1      61.719  11.193   1.918  1.00  0.00     0.180 A 
ATOM     11  HN  UNL     1      61.977   9.788   0.420  1.00  0.00     0.166 HD
HETATM   12  N   UNL     1      61.771  11.540   3.211  1.00  0.00    -0.361 N 
HETATM   13  C   UNL     1      62.194  10.573   4.057  1.00  0.00     0.102 A 
ATOM     14  HN  UNL     1      61.508  12.471   3.536  1.00  0.00     0.166 HD
ENDBRANCH   1   7
BRANCH   3  15
HETATM   15  C   UNL     1      66.255   7.342   6.509  1.00  0.00     0.202 C 
BRANCH  15  16
HETATM   16  O   UNL     1      66.918   8.491   6.001  1.00  0.00    -0.396 OA
HETATM   17  H   UNL     1      67.849   8.474   6.275  1.00  0.00     0.209 HD
ENDBRANCH  15  16
ENDBRANCH   3  15
TORSDOF 3
ENDMDL
MODEL 6
REMARK VINA RESULT:      -4.6      3.329      5.251
REMARK  3 active torsions:
REMARK  status: ('A' for Active; 'I' for Inactive)
REMARK    1  A    between atoms: C_1  and  C_2 
REMARK    2  A    between atoms: C_9  and  C_15 
REMARK    3  A    between atoms: O_12  and  C_15 
ROOT
HETATM    1  C   UNL     1      65.429   7.719   5.324  1.00  0.00    -0.023 A 
HETATM    2  C   UNL     1      65.353   7.212   6.636  1.00  0.00     0.021 A 
HETATM    3  C   UNL     1      66.444   6.578   7.257  1.00  0.00    -0.034 A 
HETATM    4  C   UNL     1      66.660   7.584   4.657  1.00  0.00     0.012 A 
HETATM    5  C   UNL     1      67.757   6.970   5.269  1.00  0.00     0.002 A 
HETATM    6  C   UNL     1      67.649   6.466   6.563  1.00  0.00     0.009 A 
ENDROOT
BRANCH   1   7
HETATM    7  C   UNL     1      64.262   8.354   4.679  1.00  0.00     0.005 A 
HETATM    8  C   UNL     1      63.652   7.867   3.532  1.00  0.00     0.102 A 
HETATM    9  N   UNL     1      62.584   8.428   2.918  1.00  0.00    -0.361 N 
HETATM   10  C   UNL     1      62.108   9.542   3.488  1.00  0.00     0.180 A 
ATOM     11  HN  UNL     1      62.169   8.028   2.077  1.00  0.00     0.166 HD
HETATM   12  N   UNL     1      62.591  10.123   4.594  1.00  0.00    -0.361 N 
HETATM   13  C   UNL     1      63.655   9.507   5.159  1.00  0.00     0.102 A 
ATOM     14  HN  UNL     1      62.184  10.973   4.984  1.00  0.00     0.166 HD
ENDBRANCH   1   7
BRANCH   3  15
HETATM   15  C   UNL     1      66.295   6.020   8.648  1.00  0.00     0.202 C 
BRANCH  15  16
HETATM   16  O   UNL     1      66.286   4.600   8.620  1.00  0.00    -0.396 OA
HETATM   17  H   UNL     1      66.667   4.291   7.782  1.00  0.00     0.209 HD
ENDBRANCH  15  16
ENDBRANCH   3  15
TORSDOF 3
ENDMDL
MODEL 7
REMARK VINA RESULT:      -4.5      2.879      3.676
REMARK  3 active torsions:
REMARK  status: ('A' for Active; 'I' for Inactive)
REMARK    1  A    between atoms: C_1  and  C_2 
REMARK    2  A    between atoms: C_9  and  C_15 
REMARK    3  A    between atoms: O_12  and  C_15 
ROOT
HETATM    1  C   UNL     1      65.000   6.933   6.519  1.00  0.00    -0.023 A 
HETATM    2  C   UNL     1      63.665   6.483   6.505  1.00  0.00     0.021 A 
HETATM    3  C   UNL     1      62.686   7.071   5.684  1.00  0.00    -0.034 A 
HETATM    4  C   UNL     1      65.326   7.992   5.654  1.00  0.00     0.012 A 
HETATM    5  C   UNL     1      64.366   8.575   4.821  1.00  0.00     0.002 A 
HETATM    6  C   UNL     1      63.051   8.119   4.837  1.00  0.00     0.009 A 
ENDROOT
BRANCH   1   7
HETATM    7  C   UNL     1      66.005   6.322   7.412  1.00  0.00     0.005 A 
HETATM    8  C   UNL     1      65.980   4.993   7.810  1.00  0.00     0.102 A 
HETATM    9  N   UNL     1      66.886   4.407   8.628  1.00  0.00    -0.361 N 
HETATM   10  C   UNL     1      67.866   5.204   9.072  1.00  0.00     0.180 A 
ATOM     11  HN  UNL     1      66.825   3.423   8.888  1.00  0.00     0.166 HD
HETATM   12  N   UNL     1      68.018   6.499   8.771  1.00  0.00    -0.361 N 
HETATM   13  C   UNL     1      67.082   7.019   7.944  1.00  0.00     0.102 A 
ATOM     14  HN  UNL     1      68.789   7.057   9.139  1.00  0.00     0.166 HD
ENDBRANCH   1   7
BRANCH   3  15
HETATM   15  C   UNL     1      61.265   6.576   5.738  1.00  0.00     0.202 C 
BRANCH  15  16
HETATM   16  O   UNL     1      60.882   6.296   7.078  1.00  0.00    -0.396 OA
HETATM   17  H   UNL     1      60.615   7.120   7.516  1.00  0.00     0.209 HD
ENDBRANCH  15  16
ENDBRANCH   3  15
TORSDOF 3
ENDMDL
MODEL 8
REMARK VINA RESULT:      -4.4      3.951      5.593
REMARK  3 active torsions:
REMARK  status: ('A' for Active; 'I' for Inactive)
REMARK    1  A    between atoms: C_1  and  C_2 
REMARK    2  A    between atoms: C_9  and  C_15 
REMARK    3  A    between atoms: O_12  and  C_15 
ROOT
HETATM    1  C   UNL     1      62.988   8.241   4.620  1.00  0.00    -0.023 A 
HETATM    2  C   UNL     1      62.078   7.311   5.159  1.00  0.00     0.021 A 
HETATM    3  C   UNL     1      62.483   6.290   6.037  1.00  0.00    -0.034 A 
HETATM    4  C   UNL     1      64.332   8.120   5.014  1.00  0.00     0.012 A 
HETATM    5  C   UNL     1      64.746   7.120   5.898  1.00  0.00     0.002 A 
HETATM    6  C   UNL     1      63.826   6.206   6.406  1.00  0.00     0.009 A 
ENDROOT
BRANCH   1   7
HETATM    7  C   UNL     1      62.546   9.287   3.675  1.00  0.00     0.005 A 
HETATM    8  C   UNL     1      62.451   9.101   2.304  1.00  0.00     0.102 A 
HETATM    9  N   UNL     1      62.052  10.040   1.415  1.00  0.00    -0.361 N 
HETATM   10  C   UNL     1      61.736  11.233   1.936  1.00  0.00     0.180 A 
ATOM     11  HN  UNL     1      61.995   9.852   0.415  1.00  0.00     0.166 HD
HETATM   12  N   UNL     1      61.777  11.555   3.235  1.00  0.00    -0.361 N 
HETATM   13  C   UNL     1      62.179  10.567   4.068  1.00  0.00     0.102 A 
ATOM     14  HN  UNL     1      61.522  12.482   3.574  1.00  0.00     0.166 HD
ENDBRANCH   1   7
BRANCH   3  15
HETATM   15  C   UNL     1      61.473   5.299   6.553  1.00  0.00     0.202 C 
BRANCH  15  16
HETATM   16  O   UNL     1      60.151   5.755   6.303  1.00  0.00    -0.396 OA
HETATM   17  H   UNL     1      60.147   6.314   5.510  1.00  0.00     0.209 HD
ENDBRANCH  15  16
ENDBRANCH   3  15
TORSDOF 3
ENDMDL
MODEL 9
REMARK VINA RESULT:      -4.2      2.237      2.951
REMARK  3 active torsions:
REMARK  status: ('A' for Active; 'I' for Inactive)
REMARK    1  A    between atoms: C_1  and  C_2 
REMARK    2  A    between atoms: C_9  and  C_15 
REMARK    3  A    between atoms: O_12  and  C_15 
ROOT
HETATM    1  C   UNL     1      64.152   7.686   3.796  1.00  0.00    -0.023 A 
HETATM    2  C   UNL     1      63.167   7.739   2.790  1.00  0.00     0.021 A 
HETATM    3  C   UNL     1      62.129   8.687   2.809  1.00  0.00    -0.034 A 
HETATM    4  C   UNL     1      64.068   8.643   4.823  1.00  0.00     0.012 A 
HETATM    5  C   UNL     1      63.050   9.601   4.845  1.00  0.00     0.002 A 
HETATM    6  C   UNL     1      62.082   9.622   3.844  1.00  0.00     0.009 A 
ENDROOT
BRANCH   1   7
HETATM    7  C   UNL     1      65.216   6.662   3.774  1.00  0.00     0.005 A 
HETATM    8  C   UNL     1      66.486   6.855   4.296  1.00  0.00     0.102 A 
HETATM    9  N   UNL     1      67.481   5.938   4.288  1.00  0.00    -0.361 N 
HETATM   10  C   UNL     1      67.182   4.764   3.718  1.00  0.00     0.180 A 
ATOM     11  HN  UNL     1      68.399   6.128   4.690  1.00  0.00     0.166 HD
HETATM   12  N   UNL     1      66.001   4.436   3.177  1.00  0.00    -0.361 N 
HETATM   13  C   UNL     1      65.051   5.398   3.225  1.00  0.00     0.102 A 
ATOM     14  HN  UNL     1      65.831   3.522   2.757  1.00  0.00     0.166 HD
ENDBRANCH   1   7
BRANCH   3  15
HETATM   15  C   UNL     1      61.081   8.674   1.728  1.00  0.00     0.202 C 
BRANCH  15  16
HETATM   16  O   UNL     1      59.817   8.299   2.259  1.00  0.00    -0.396 OA
HETATM   17  H   UNL     1      59.895   7.437   2.698  1.00  0.00     0.209 HD
ENDBRANCH  15  16
ENDBRANCH   3  15
TORSDOF 3
ENDMDL
