MODEL 1
REMARK VINA RESULT:      -4.9      0.000      0.000
REMARK  1 active torsions:
REMARK  status: ('A' for Active; 'I' for Inactive)
REMARK    1  A    between atoms: C_8  and  N_10 
ROOT
HETATM    1  N   UNL     1      62.224   8.370   1.959  1.00  0.00    -0.360 N 
HETATM    2  C   UNL     1      62.379   9.292   2.973  1.00  0.00     0.044 A 
HETATM    3  C   UNL     1      63.240   8.716   3.913  1.00  0.00    -0.006 A 
HETATM    4  C   UNL     1      62.960   7.244   2.226  1.00  0.00     0.091 A 
HETATM    5  C   UNL     1      63.597   7.429   3.429  1.00  0.00     0.031 A 
HETATM    6  C   UNL     1      61.831  10.569   3.171  1.00  0.00     0.033 A 
HETATM    7  C   UNL     1      63.560   9.438   5.083  1.00  0.00     0.042 A 
HETATM    8  C   UNL     1      63.058  10.731   5.276  1.00  0.00     0.026 A 
HETATM    9  C   UNL     1      62.167  11.259   4.342  1.00  0.00     0.031 A 
HETATM   10  C   UNL     1      61.400   8.516   0.781  1.00  0.00     0.155 C 
ENDROOT
BRANCH   8  11
HETATM   11  N   UNL     1      63.260  11.384   6.501  1.00  0.00    -0.399 N 
HETATM   12  H   UNL     1      64.173  11.502   6.853  1.00  0.00     0.156 HD
HETATM   13  H   UNL     1      62.489  11.723   7.012  1.00  0.00     0.156 HD
ENDBRANCH   8  11
TORSDOF 1
ENDMDL
MODEL 2
REMARK VINA RESULT:      -4.8      0.671      2.150
REMARK  1 active torsions:
REMARK  status: ('A' for Active; 'I' for Inactive)
REMARK    1  A    between atoms: C_8  and  N_10 
ROOT
HETATM    1  N   UNL     1      62.479   8.218   1.851  1.00  0.00    -0.360 N 
HETATM    2  C   UNL     1      62.736   8.799   3.076  1.00  0.00     0.044 A 
HETATM    3  C   UNL     1      62.168  10.076   3.043  1.00  0.00    -0.006 A 
HETATM    4  C   UNL     1      61.766   9.080   1.057  1.00  0.00     0.091 A 
HETATM    5  C   UNL     1      61.561  10.238   1.768  1.00  0.00     0.031 A 
HETATM    6  C   UNL     1      63.432   8.338   4.203  1.00  0.00     0.033 A 
HETATM    7  C   UNL     1      62.300  10.915   4.170  1.00  0.00     0.042 A 
HETATM    8  C   UNL     1      62.952  10.456   5.321  1.00  0.00     0.026 A 
HETATM    9  C   UNL     1      63.547   9.195   5.305  1.00  0.00     0.031 A 
HETATM   10  C   UNL     1      62.900   6.906   1.415  1.00  0.00     0.155 C 
ENDROOT
BRANCH   8  11
HETATM   11  N   UNL     1      63.206  11.340   6.380  1.00  0.00    -0.399 N 
HETATM   12  H   UNL     1      63.677  11.023   7.185  1.00  0.00     0.156 HD
HETATM   13  H   UNL     1      62.914  12.279   6.320  1.00  0.00     0.156 HD
ENDBRANCH   8  11
TORSDOF 1
ENDMDL
MODEL 3
REMARK VINA RESULT:      -4.5      1.790      2.955
REMARK  1 active torsions:
REMARK  status: ('A' for Active; 'I' for Inactive)
REMARK    1  A    between atoms: C_8  and  N_10 
ROOT
HETATM    1  N   UNL     1      63.203   7.522   4.389  1.00  0.00    -0.360 N 
HETATM    2  C   UNL     1      62.764   8.761   3.972  1.00  0.00     0.044 A 
HETATM    3  C   UNL     1      62.520   8.661   2.598  1.00  0.00    -0.006 A 
HETATM    4  C   UNL     1      63.237   6.650   3.330  1.00  0.00     0.091 A 
HETATM    5  C   UNL     1      62.822   7.328   2.210  1.00  0.00     0.031 A 
HETATM    6  C   UNL     1      62.576   9.969   4.661  1.00  0.00     0.033 A 
HETATM    7  C   UNL     1      62.077   9.802   1.895  1.00  0.00     0.042 A 
HETATM    8  C   UNL     1      61.842  11.004   2.574  1.00  0.00     0.026 A 
HETATM    9  C   UNL     1      62.137  11.083   3.934  1.00  0.00     0.031 A 
HETATM   10  C   UNL     1      63.604   7.156   5.728  1.00  0.00     0.155 C 
ENDROOT
BRANCH   8  11
HETATM   11  N   UNL     1      61.543  12.168   1.851  1.00  0.00    -0.399 N 
HETATM   12  H   UNL     1      61.956  12.321   0.969  1.00  0.00     0.156 HD
HETATM   13  H   UNL     1      60.921  12.834   2.223  1.00  0.00     0.156 HD
ENDBRANCH   8  11
TORSDOF 1
ENDMDL
MODEL 4
REMARK VINA RESULT:      -4.3      1.552      2.862
REMARK  1 active torsions:
REMARK  status: ('A' for Active; 'I' for Inactive)
REMARK    1  A    between atoms: C_8  and  N_10 
ROOT
HETATM    1  N   UNL     1      62.256   9.393   1.974  1.00  0.00    -0.360 N 
HETATM    2  C   UNL     1      62.798   8.688   3.029  1.00  0.00     0.044 A 
HETATM    3  C   UNL     1      62.688   9.506   4.158  1.00  0.00    -0.006 A 
HETATM    4  C   UNL     1      61.805  10.616   2.403  1.00  0.00     0.091 A 
HETATM    5  C   UNL     1      62.061  10.713   3.749  1.00  0.00     0.031 A 
HETATM    6  C   UNL     1      63.397   7.421   3.100  1.00  0.00     0.033 A 
HETATM    7  C   UNL     1      63.191   9.042   5.393  1.00  0.00     0.042 A 
HETATM    8  C   UNL     1      63.751   7.762   5.493  1.00  0.00     0.026 A 
HETATM    9  C   UNL     1      63.887   6.990   4.340  1.00  0.00     0.031 A 
HETATM   10  C   UNL     1      62.175   8.957   0.599  1.00  0.00     0.155 C 
ENDROOT
BRANCH   8  11
HETATM   11  N   UNL     1      64.378   7.364   6.683  1.00  0.00    -0.399 N 
HETATM   12  H   UNL     1      65.177   6.789   6.651  1.00  0.00     0.156 HD
HETATM   13  H   UNL     1      64.019   7.658   7.552  1.00  0.00     0.156 HD
ENDBRANCH   8  11
TORSDOF 1
ENDMDL
MODEL 5
REMARK VINA RESULT:      -4.2      1.686      4.078
REMARK  1 active torsions:
REMARK  status: ('A' for Active; 'I' for Inactive)
REMARK    1  A    between atoms: C_8  and  N_10 
ROOT
HETATM    1  N   UNL     1      62.001  10.656   2.728  1.00  0.00    -0.360 N 
HETATM    2  C   UNL     1      62.214   9.445   2.104  1.00  0.00     0.044 A 
HETATM    3  C   UNL     1      62.575   8.534   3.102  1.00  0.00    -0.006 A 
HETATM    4  C   UNL     1      62.208  10.536   4.079  1.00  0.00     0.091 A 
HETATM    5  C   UNL     1      62.566   9.235   4.338  1.00  0.00     0.031 A 
HETATM    6  C   UNL     1      62.147   9.062   0.755  1.00  0.00     0.033 A 
HETATM    7  C   UNL     1      62.877   7.204   2.741  1.00  0.00     0.042 A 
HETATM    8  C   UNL     1      62.773   6.793   1.406  1.00  0.00     0.026 A 
HETATM    9  C   UNL     1      62.455   7.735   0.429  1.00  0.00     0.031 A 
HETATM   10  C   UNL     1      61.637  11.901   2.092  1.00  0.00     0.155 C 
ENDROOT
BRANCH   8  11
HETATM   11  N   UNL     1      63.213   5.514   1.032  1.00  0.00    -0.399 N 
HETATM   12  H   UNL     1      64.172   5.347   0.881  1.00  0.00     0.156 HD
HETATM   13  H   UNL     1      62.563   4.782   0.919  1.00  0.00     0.156 HD
ENDBRANCH   8  11
TORSDOF 1
ENDMDL
MODEL 6
REMARK VINA RESULT:      -4.1      1.958      2.927
REMARK  1 active torsions:
REMARK  status: ('A' for Active; 'I' for Inactive)
REMARK    1  A    between atoms: C_8  and  N_10 
ROOT
HETATM    1  N   UNL     1      63.188   6.689   3.478  1.00  0.00    -0.360 N 
HETATM    2  C   UNL     1      62.777   7.878   2.911  1.00  0.00     0.044 A 
HETATM    3  C   UNL     1      62.714   8.817   3.945  1.00  0.00    -0.006 A 
HETATM    4  C   UNL     1      63.391   6.852   4.825  1.00  0.00     0.091 A 
HETATM    5  C   UNL     1      63.104   8.158   5.142  1.00  0.00     0.031 A 
HETATM    6  C   UNL     1      62.431   8.217   1.594  1.00  0.00     0.033 A 
HETATM    7  C   UNL     1      62.294  10.132   3.653  1.00  0.00     0.042 A 
HETATM    8  C   UNL     1      61.988  10.501   2.337  1.00  0.00     0.026 A 
HETATM    9  C   UNL     1      62.017   9.530   1.337  1.00  0.00     0.031 A 
HETATM   10  C   UNL     1      63.368   5.427   2.797  1.00  0.00     0.155 C 
ENDROOT
BRANCH   8  11
HETATM   11  N   UNL     1      61.434  11.763   2.076  1.00  0.00    -0.399 N 
HETATM   12  H   UNL     1      61.655  12.529   2.655  1.00  0.00     0.156 HD
HETATM   13  H   UNL     1      60.821  11.884   1.314  1.00  0.00     0.156 HD
ENDBRANCH   8  11
TORSDOF 1
ENDMDL
MODEL 7
REMARK VINA RESULT:      -3.8      2.752      4.019
REMARK  1 active torsions:
REMARK  status: ('A' for Active; 'I' for Inactive)
REMARK    1  A    between atoms: C_8  and  N_10 
ROOT
HETATM    1  N   UNL     1      63.223   7.916   3.417  1.00  0.00    -0.360 N 
HETATM    2  C   UNL     1      64.433   7.544   3.965  1.00  0.00     0.044 A 
HETATM    3  C   UNL     1      64.693   8.436   5.010  1.00  0.00    -0.006 A 
HETATM    4  C   UNL     1      62.714   9.002   4.084  1.00  0.00     0.091 A 
HETATM    5  C   UNL     1      63.604   9.346   5.073  1.00  0.00     0.031 A 
HETATM    6  C   UNL     1      65.338   6.525   3.632  1.00  0.00     0.033 A 
HETATM    7  C   UNL     1      65.893   8.305   5.742  1.00  0.00     0.042 A 
HETATM    8  C   UNL     1      66.787   7.266   5.453  1.00  0.00     0.026 A 
HETATM    9  C   UNL     1      66.520   6.421   4.377  1.00  0.00     0.031 A 
HETATM   10  C   UNL     1      62.561   7.298   2.291  1.00  0.00     0.155 C 
ENDROOT
BRANCH   8  11
HETATM   11  N   UNL     1      68.040   7.227   6.083  1.00  0.00    -0.399 N 
HETATM   12  H   UNL     1      68.830   6.908   5.590  1.00  0.00     0.156 HD
HETATM   13  H   UNL     1      68.130   7.517   7.021  1.00  0.00     0.156 HD
ENDBRANCH   8  11
TORSDOF 1
ENDMDL
MODEL 8
REMARK VINA RESULT:      -3.7      3.507      4.381
REMARK  1 active torsions:
REMARK  status: ('A' for Active; 'I' for Inactive)
REMARK    1  A    between atoms: C_8  and  N_10 
ROOT
HETATM    1  N   UNL     1      63.391   7.608   4.677  1.00  0.00    -0.360 N 
HETATM    2  C   UNL     1      64.527   7.599   5.460  1.00  0.00     0.044 A 
HETATM    3  C   UNL     1      64.325   6.635   6.453  1.00  0.00    -0.006 A 
HETATM    4  C   UNL     1      62.490   6.682   5.139  1.00  0.00     0.091 A 
HETATM    5  C   UNL     1      63.040   6.067   6.238  1.00  0.00     0.031 A 
HETATM    6  C   UNL     1      65.706   8.358   5.408  1.00  0.00     0.033 A 
HETATM    7  C   UNL     1      65.330   6.426   7.421  1.00  0.00     0.042 A 
HETATM    8  C   UNL     1      66.532   7.142   7.359  1.00  0.00     0.026 A 
HETATM    9  C   UNL     1      66.684   8.128   6.384  1.00  0.00     0.031 A 
HETATM   10  C   UNL     1      63.133   8.465   3.543  1.00  0.00     0.155 C 
ENDROOT
BRANCH   8  11
HETATM   11  N   UNL     1      67.464   7.036   8.402  1.00  0.00    -0.399 N 
HETATM   12  H   UNL     1      68.220   7.666   8.454  1.00  0.00     0.156 HD
HETATM   13  H   UNL     1      67.364   6.331   9.083  1.00  0.00     0.156 HD
ENDBRANCH   8  11
TORSDOF 1
ENDMDL
MODEL 9
REMARK VINA RESULT:      -3.7      5.894      7.287
REMARK  1 active torsions:
REMARK  status: ('A' for Active; 'I' for Inactive)
REMARK    1  A    between atoms: C_8  and  N_10 
ROOT
HETATM    1  N   UNL     1      67.246   3.822   8.095  1.00  0.00    -0.360 N 
HETATM    2  C   UNL     1      66.669   4.866   7.402  1.00  0.00     0.044 A 
HETATM    3  C   UNL     1      67.150   6.046   7.978  1.00  0.00    -0.006 A 
HETATM    4  C   UNL     1      68.075   4.304   9.076  1.00  0.00     0.091 A 
HETATM    5  C   UNL     1      68.033   5.677   9.028  1.00  0.00     0.031 A 
HETATM    6  C   UNL     1      65.753   4.893   6.340  1.00  0.00     0.033 A 
HETATM    7  C   UNL     1      66.702   7.287   7.476  1.00  0.00     0.042 A 
HETATM    8  C   UNL     1      65.823   7.334   6.387  1.00  0.00     0.026 A 
HETATM    9  C   UNL     1      65.327   6.140   5.865  1.00  0.00     0.031 A 
HETATM   10  C   UNL     1      67.022   2.412   7.871  1.00  0.00     0.155 C 
ENDROOT
BRANCH   8  11
HETATM   11  N   UNL     1      65.270   8.559   5.987  1.00  0.00    -0.399 N 
HETATM   12  H   UNL     1      64.298   8.640   5.850  1.00  0.00     0.156 HD
HETATM   13  H   UNL     1      65.853   9.339   5.841  1.00  0.00     0.156 HD
ENDBRANCH   8  11
TORSDOF 1
ENDMDL
