MODEL 1
REMARK VINA RESULT:      -5.3      0.000      0.000
REMARK  3 active torsions:
REMARK  status: ('A' for Active; 'I' for Inactive)
REMARK    1  A    between atoms: C_3  and  C_4 
REMARK    2  A    between atoms: N_9  and  C_12 
REMARK    3  A    between atoms: C_10  and  C_12 
ROOT
HETATM    1  C   UNL     1      64.800   7.682   5.149  1.00  0.00    -0.009 A 
HETATM    2  C   UNL     1      64.180   8.920   5.396  1.00  0.00     0.014 A 
HETATM    3  C   UNL     1      64.425   7.003   3.975  1.00  0.00     0.014 A 
HETATM    4  C   UNL     1      63.483   7.537   3.089  1.00  0.00     0.010 A 
HETATM    5  C   UNL     1      63.227   9.453   4.518  1.00  0.00     0.010 A 
HETATM    6  C   UNL     1      62.863   8.764   3.357  1.00  0.00    -0.033 A 
ENDROOT
BRANCH   1   7
HETATM    7  C   UNL     1      65.784   7.118   6.098  1.00  0.00     0.042 A 
HETATM    8  N   UNL     1      65.375   7.022   7.391  1.00  0.00    -0.365 N 
HETATM    9  C   UNL     1      66.226   6.476   8.288  1.00  0.00     0.088 A 
ATOM     10  HN  UNL     1      64.453   7.351   7.676  1.00  0.00     0.165 HD
HETATM   11  C   UNL     1      67.492   6.018   7.970  1.00  0.00     0.017 A 
HETATM   12  C   UNL     1      67.915   6.135   6.656  1.00  0.00     0.004 A 
HETATM   13  C   UNL     1      67.056   6.693   5.710  1.00  0.00     0.030 A 
ENDBRANCH   1   7
BRANCH   6  14
HETATM   14  C   UNL     1      61.827   9.330   2.411  1.00  0.00     0.270 C 
BRANCH  14  15
HETATM   15  N   UNL     1      61.358  10.642   2.853  1.00  0.00    -0.075 N 
HETATM   16  C   UNL     1      61.765  11.686   1.927  1.00  0.00     0.267 C 
HETATM   17  H   UNL     1      61.750  10.843   3.774  1.00  0.00     0.277 HD
HETATM   18  H   UNL     1      60.338  10.624   2.892  1.00  0.00     0.277 HD
ENDBRANCH  14  15
ENDBRANCH   6  14
TORSDOF 3
ENDMDL
MODEL 2
REMARK VINA RESULT:      -5.3      1.756      6.305
REMARK  3 active torsions:
REMARK  status: ('A' for Active; 'I' for Inactive)
REMARK    1  A    between atoms: C_3  and  C_4 
REMARK    2  A    between atoms: N_9  and  C_12 
REMARK    3  A    between atoms: C_10  and  C_12 
ROOT
HETATM    1  C   UNL     1      64.765   7.905   5.445  1.00  0.00    -0.009 A 
HETATM    2  C   UNL     1      64.328   6.786   6.176  1.00  0.00     0.014 A 
HETATM    3  C   UNL     1      66.151   8.030   5.237  1.00  0.00     0.014 A 
HETATM    4  C   UNL     1      67.054   7.080   5.728  1.00  0.00     0.010 A 
HETATM    5  C   UNL     1      65.229   5.839   6.680  1.00  0.00     0.010 A 
HETATM    6  C   UNL     1      66.604   5.979   6.467  1.00  0.00    -0.033 A 
ENDROOT
BRANCH   1   7
HETATM    7  C   UNL     1      63.805   8.912   4.943  1.00  0.00     0.042 A 
HETATM    8  N   UNL     1      63.630  10.010   5.725  1.00  0.00    -0.365 N 
HETATM    9  C   UNL     1      62.792  10.975   5.288  1.00  0.00     0.088 A 
ATOM     10  HN  UNL     1      64.117  10.102   6.617  1.00  0.00     0.165 HD
HETATM   11  C   UNL     1      62.094  10.909   4.096  1.00  0.00     0.017 A 
HETATM   12  C   UNL     1      62.259   9.781   3.308  1.00  0.00     0.004 A 
HETATM   13  C   UNL     1      63.119   8.770   3.735  1.00  0.00     0.030 A 
ENDBRANCH   1   7
BRANCH   6  14
HETATM   14  C   UNL     1      67.581   4.966   7.018  1.00  0.00     0.270 C 
BRANCH  14  15
HETATM   15  N   UNL     1      67.434   4.810   8.464  1.00  0.00    -0.075 N 
HETATM   16  C   UNL     1      67.980   5.955   9.175  1.00  0.00     0.267 C 
HETATM   17  H   UNL     1      67.928   3.967   8.760  1.00  0.00     0.277 HD
HETATM   18  H   UNL     1      66.439   4.739   8.681  1.00  0.00     0.277 HD
ENDBRANCH  14  15
ENDBRANCH   6  14
TORSDOF 3
ENDMDL
MODEL 3
REMARK VINA RESULT:      -5.1      1.153      1.873
REMARK  3 active torsions:
REMARK  status: ('A' for Active; 'I' for Inactive)
REMARK    1  A    between atoms: C_3  and  C_4 
REMARK    2  A    between atoms: N_9  and  C_12 
REMARK    3  A    between atoms: C_10  and  C_12 
ROOT
HETATM    1  C   UNL     1      64.450   7.868   4.715  1.00  0.00    -0.009 A 
HETATM    2  C   UNL     1      64.128   7.159   3.544  1.00  0.00     0.014 A 
HETATM    3  C   UNL     1      63.761   9.074   4.941  1.00  0.00     0.014 A 
HETATM    4  C   UNL     1      62.795   9.545   4.045  1.00  0.00     0.010 A 
HETATM    5  C   UNL     1      63.169   7.632   2.638  1.00  0.00     0.010 A 
HETATM    6  C   UNL     1      62.496   8.834   2.876  1.00  0.00    -0.033 A 
ENDROOT
BRANCH   1   7
HETATM    7  C   UNL     1      65.484   7.371   5.649  1.00  0.00     0.042 A 
HETATM    8  N   UNL     1      65.084   7.184   6.935  1.00  0.00    -0.365 N 
HETATM    9  C   UNL     1      65.984   6.694   7.815  1.00  0.00     0.088 A 
ATOM     10  HN  UNL     1      64.132   7.407   7.226  1.00  0.00     0.165 HD
HETATM   11  C   UNL     1      67.291   6.380   7.488  1.00  0.00     0.017 A 
HETATM   12  C   UNL     1      67.702   6.590   6.182  1.00  0.00     0.004 A 
HETATM   13  C   UNL     1      66.794   7.093   5.252  1.00  0.00     0.030 A 
ENDBRANCH   1   7
BRANCH   6  14
HETATM   14  C   UNL     1      61.468   9.355   1.897  1.00  0.00     0.270 C 
BRANCH  14  15
HETATM   15  N   UNL     1      60.247   8.550   1.922  1.00  0.00    -0.075 N 
HETATM   16  C   UNL     1      59.895   8.087   0.590  1.00  0.00     0.267 C 
HETATM   17  H   UNL     1      59.483   9.117   2.291  1.00  0.00     0.277 HD
HETATM   18  H   UNL     1      60.410   7.736   2.515  1.00  0.00     0.277 HD
ENDBRANCH  14  15
ENDBRANCH   6  14
TORSDOF 3
ENDMDL
MODEL 4
REMARK VINA RESULT:      -4.6      1.722      2.272
REMARK  3 active torsions:
REMARK  status: ('A' for Active; 'I' for Inactive)
REMARK    1  A    between atoms: C_3  and  C_4 
REMARK    2  A    between atoms: N_9  and  C_12 
REMARK    3  A    between atoms: C_10  and  C_12 
ROOT
HETATM    1  C   UNL     1      65.112   6.896   6.574  1.00  0.00    -0.009 A 
HETATM    2  C   UNL     1      65.498   8.001   5.794  1.00  0.00     0.014 A 
HETATM    3  C   UNL     1      63.758   6.515   6.515  1.00  0.00     0.014 A 
HETATM    4  C   UNL     1      62.839   7.200   5.713  1.00  0.00     0.010 A 
HETATM    5  C   UNL     1      64.578   8.697   4.998  1.00  0.00     0.010 A 
HETATM    6  C   UNL     1      63.236   8.308   4.954  1.00  0.00    -0.033 A 
ENDROOT
BRANCH   1   7
HETATM    7  C   UNL     1      66.087   6.187   7.430  1.00  0.00     0.042 A 
HETATM    8  N   UNL     1      66.146   4.838   7.274  1.00  0.00    -0.365 N 
HETATM    9  C   UNL     1      67.050   4.152   8.008  1.00  0.00     0.088 A 
ATOM     10  HN  UNL     1      65.526   4.358   6.622  1.00  0.00     0.165 HD
HETATM   11  C   UNL     1      67.913   4.740   8.915  1.00  0.00     0.017 A 
HETATM   12  C   UNL     1      67.838   6.113   9.087  1.00  0.00     0.004 A 
HETATM   13  C   UNL     1      66.915   6.845   8.342  1.00  0.00     0.030 A 
ENDBRANCH   1   7
BRANCH   6  14
HETATM   14  C   UNL     1      62.237   9.062   4.106  1.00  0.00     0.270 C 
BRANCH  14  15
HETATM   15  N   UNL     1      62.667   9.136   2.710  1.00  0.00    -0.075 N 
HETATM   16  C   UNL     1      62.424   7.881   2.017  1.00  0.00     0.267 C 
HETATM   17  H   UNL     1      63.665   9.345   2.680  1.00  0.00     0.277 HD
HETATM   18  H   UNL     1      62.131   9.870   2.246  1.00  0.00     0.277 HD
ENDBRANCH  14  15
ENDBRANCH   6  14
TORSDOF 3
ENDMDL
MODEL 5
REMARK VINA RESULT:      -4.6      1.751      6.409
REMARK  3 active torsions:
REMARK  status: ('A' for Active; 'I' for Inactive)
REMARK    1  A    between atoms: C_3  and  C_4 
REMARK    2  A    between atoms: N_9  and  C_12 
REMARK    3  A    between atoms: C_10  and  C_12 
ROOT
HETATM    1  C   UNL     1      63.043   7.883   3.328  1.00  0.00    -0.009 A 
HETATM    2  C   UNL     1      63.196   8.913   4.274  1.00  0.00     0.014 A 
HETATM    3  C   UNL     1      64.057   6.910   3.274  1.00  0.00     0.014 A 
HETATM    4  C   UNL     1      65.165   6.959   4.127  1.00  0.00     0.010 A 
HETATM    5  C   UNL     1      64.309   8.972   5.123  1.00  0.00     0.010 A 
HETATM    6  C   UNL     1      65.310   7.998   5.054  1.00  0.00    -0.033 A 
ENDROOT
BRANCH   1   7
HETATM    7  C   UNL     1      61.876   7.848   2.420  1.00  0.00     0.042 A 
HETATM    8  N   UNL     1      60.682   7.547   2.997  1.00  0.00    -0.365 N 
HETATM    9  C   UNL     1      59.581   7.541   2.213  1.00  0.00     0.088 A 
ATOM     10  HN  UNL     1      60.620   7.331   3.991  1.00  0.00     0.165 HD
HETATM   11  C   UNL     1      59.598   7.814   0.857  1.00  0.00     0.017 A 
HETATM   12  C   UNL     1      60.818   8.102   0.267  1.00  0.00     0.004 A 
HETATM   13  C   UNL     1      61.970   8.116   1.053  1.00  0.00     0.030 A 
ENDBRANCH   1   7
BRANCH   6  14
HETATM   14  C   UNL     1      66.520   8.063   5.959  1.00  0.00     0.270 C 
BRANCH  14  15
HETATM   15  N   UNL     1      66.229   7.511   7.282  1.00  0.00    -0.075 N 
HETATM   16  C   UNL     1      67.045   6.339   7.553  1.00  0.00     0.267 C 
HETATM   17  H   UNL     1      65.244   7.248   7.324  1.00  0.00     0.277 HD
HETATM   18  H   UNL     1      66.442   8.222   7.982  1.00  0.00     0.277 HD
ENDBRANCH  14  15
ENDBRANCH   6  14
TORSDOF 3
ENDMDL
MODEL 6
REMARK VINA RESULT:      -4.3      2.446      2.865
REMARK  3 active torsions:
REMARK  status: ('A' for Active; 'I' for Inactive)
REMARK    1  A    between atoms: C_3  and  C_4 
REMARK    2  A    between atoms: N_9  and  C_12 
REMARK    3  A    between atoms: C_10  and  C_12 
ROOT
HETATM    1  C   UNL     1      63.218   7.462   4.975  1.00  0.00    -0.009 A 
HETATM    2  C   UNL     1      62.989   8.304   3.872  1.00  0.00     0.014 A 
HETATM    3  C   UNL     1      62.150   6.642   5.385  1.00  0.00     0.014 A 
HETATM    4  C   UNL     1      60.918   6.658   4.721  1.00  0.00     0.010 A 
HETATM    5  C   UNL     1      61.753   8.332   3.211  1.00  0.00     0.010 A 
HETATM    6  C   UNL     1      60.701   7.513   3.633  1.00  0.00    -0.033 A 
ENDROOT
BRANCH   1   7
HETATM    7  C   UNL     1      64.518   7.463   5.680  1.00  0.00     0.042 A 
HETATM    8  N   UNL     1      64.539   6.845   6.890  1.00  0.00    -0.365 N 
HETATM    9  C   UNL     1      65.714   6.787   7.554  1.00  0.00     0.088 A 
ATOM     10  HN  UNL     1      63.692   6.437   7.286  1.00  0.00     0.165 HD
HETATM   11  C   UNL     1      66.896   7.326   7.079  1.00  0.00     0.017 A 
HETATM   12  C   UNL     1      66.869   7.973   5.854  1.00  0.00     0.004 A 
HETATM   13  C   UNL     1      65.669   8.047   5.147  1.00  0.00     0.030 A 
ENDBRANCH   1   7
BRANCH   6  14
HETATM   14  C   UNL     1      59.362   7.547   2.931  1.00  0.00     0.270 C 
BRANCH  14  15
HETATM   15  N   UNL     1      58.313   8.072   3.805  1.00  0.00    -0.075 N 
HETATM   16  C   UNL     1      57.216   7.127   3.935  1.00  0.00     0.267 C 
HETATM   17  H   UNL     1      57.958   8.943   3.410  1.00  0.00     0.277 HD
HETATM   18  H   UNL     1      58.713   8.233   4.729  1.00  0.00     0.277 HD
ENDBRANCH  14  15
ENDBRANCH   6  14
TORSDOF 3
ENDMDL
MODEL 7
REMARK VINA RESULT:      -4.2      5.121      7.208
REMARK  3 active torsions:
REMARK  status: ('A' for Active; 'I' for Inactive)
REMARK    1  A    between atoms: C_3  and  C_4 
REMARK    2  A    between atoms: N_9  and  C_12 
REMARK    3  A    between atoms: C_10  and  C_12 
ROOT
HETATM    1  C   UNL     1      59.495   7.397   3.651  1.00  0.00    -0.009 A 
HETATM    2  C   UNL     1      58.108   7.620   3.589  1.00  0.00     0.014 A 
HETATM    3  C   UNL     1      59.965   6.589   4.702  1.00  0.00     0.014 A 
HETATM    4  C   UNL     1      59.093   6.027   5.641  1.00  0.00     0.010 A 
HETATM    5  C   UNL     1      57.231   7.069   4.534  1.00  0.00     0.010 A 
HETATM    6  C   UNL     1      57.715   6.270   5.574  1.00  0.00    -0.033 A 
ENDROOT
BRANCH   1   7
HETATM    7  C   UNL     1      60.411   8.008   2.664  1.00  0.00     0.042 A 
HETATM    8  N   UNL     1      61.017   9.162   3.049  1.00  0.00    -0.365 N 
HETATM    9  C   UNL     1      61.893   9.736   2.196  1.00  0.00     0.088 A 
ATOM     10  HN  UNL     1      60.817   9.582   3.957  1.00  0.00     0.165 HD
HETATM   11  C   UNL     1      62.203   9.224   0.948  1.00  0.00     0.017 A 
HETATM   12  C   UNL     1      61.569   8.059   0.549  1.00  0.00     0.004 A 
HETATM   13  C   UNL     1      60.662   7.444   1.411  1.00  0.00     0.030 A 
ENDBRANCH   1   7
BRANCH   6  14
HETATM   14  C   UNL     1      56.776   5.682   6.602  1.00  0.00     0.270 C 
BRANCH  14  15
HETATM   15  N   UNL     1      55.984   6.720   7.261  1.00  0.00    -0.075 N 
HETATM   16  C   UNL     1      56.814   7.551   8.117  1.00  0.00     0.267 C 
HETATM   17  H   UNL     1      55.260   6.277   7.827  1.00  0.00     0.277 HD
HETATM   18  H   UNL     1      55.566   7.312   6.543  1.00  0.00     0.277 HD
ENDBRANCH  14  15
ENDBRANCH   6  14
TORSDOF 3
ENDMDL
MODEL 8
REMARK VINA RESULT:      -4.1     10.637     12.606
REMARK  3 active torsions:
REMARK  status: ('A' for Active; 'I' for Inactive)
REMARK    1  A    between atoms: C_3  and  C_4 
REMARK    2  A    between atoms: N_9  and  C_12 
REMARK    3  A    between atoms: C_10  and  C_12 
ROOT
HETATM    1  C   UNL     1      60.245  -0.083  12.706  1.00  0.00    -0.009 A 
HETATM    2  C   UNL     1      59.412  -1.192  12.935  1.00  0.00     0.014 A 
HETATM    3  C   UNL     1      59.735   1.182  13.055  1.00  0.00     0.014 A 
HETATM    4  C   UNL     1      58.460   1.329  13.611  1.00  0.00     0.010 A 
HETATM    5  C   UNL     1      58.129  -1.048  13.480  1.00  0.00     0.010 A 
HETATM    6  C   UNL     1      57.636   0.216  13.819  1.00  0.00    -0.033 A 
ENDROOT
BRANCH   1   7
HETATM    7  C   UNL     1      61.586  -0.246  12.104  1.00  0.00     0.042 A 
HETATM    8  N   UNL     1      61.665  -0.037  10.763  1.00  0.00    -0.365 N 
HETATM    9  C   UNL     1      62.878  -0.138  10.175  1.00  0.00     0.088 A 
ATOM     10  HN  UNL     1      60.834   0.189  10.217  1.00  0.00     0.165 HD
HETATM   11  C   UNL     1      64.042  -0.449  10.854  1.00  0.00     0.017 A 
HETATM   12  C   UNL     1      63.956  -0.681  12.218  1.00  0.00     0.004 A 
HETATM   13  C   UNL     1      62.717  -0.583  12.850  1.00  0.00     0.030 A 
ENDBRANCH   1   7
BRANCH   6  14
HETATM   14  C   UNL     1      56.248   0.379  14.398  1.00  0.00     0.270 C 
BRANCH  14  15
HETATM   15  N   UNL     1      55.781   1.760  14.288  1.00  0.00    -0.075 N 
HETATM   16  C   UNL     1      54.343   1.845  14.482  1.00  0.00     0.267 C 
HETATM   17  H   UNL     1      56.015   2.118  13.362  1.00  0.00     0.277 HD
HETATM   18  H   UNL     1      56.238   2.313  15.014  1.00  0.00     0.277 HD
ENDBRANCH  14  15
ENDBRANCH   6  14
TORSDOF 3
ENDMDL
MODEL 9
REMARK VINA RESULT:      -4.1      2.093      6.302
REMARK  3 active torsions:
REMARK  status: ('A' for Active; 'I' for Inactive)
REMARK    1  A    between atoms: C_3  and  C_4 
REMARK    2  A    between atoms: N_9  and  C_12 
REMARK    3  A    between atoms: C_10  and  C_12 
ROOT
HETATM    1  C   UNL     1      62.883   7.615   3.694  1.00  0.00    -0.009 A 
HETATM    2  C   UNL     1      62.249   7.105   4.841  1.00  0.00     0.014 A 
HETATM    3  C   UNL     1      63.926   6.846   3.146  1.00  0.00     0.014 A 
HETATM    4  C   UNL     1      64.312   5.626   3.712  1.00  0.00     0.010 A 
HETATM    5  C   UNL     1      62.639   5.889   5.418  1.00  0.00     0.010 A 
HETATM    6  C   UNL     1      63.680   5.138   4.863  1.00  0.00    -0.033 A 
ENDROOT
BRANCH   1   7
HETATM    7  C   UNL     1      62.479   8.913   3.112  1.00  0.00     0.042 A 
HETATM    8  N   UNL     1      62.266   9.922   3.998  1.00  0.00    -0.365 N 
HETATM    9  C   UNL     1      61.933  11.137   3.510  1.00  0.00     0.088 A 
ATOM     10  HN  UNL     1      62.354   9.766   5.002  1.00  0.00     0.165 HD
HETATM   11  C   UNL     1      61.787  11.414   2.162  1.00  0.00     0.017 A 
HETATM   12  C   UNL     1      61.986  10.380   1.262  1.00  0.00     0.004 A 
HETATM   13  C   UNL     1      62.332   9.116   1.738  1.00  0.00     0.030 A 
ENDBRANCH   1   7
BRANCH   6  14
HETATM   14  C   UNL     1      64.113   3.831   5.487  1.00  0.00     0.270 C 
BRANCH  14  15
HETATM   15  N   UNL     1      64.428   3.994   6.906  1.00  0.00    -0.075 N 
HETATM   16  C   UNL     1      65.783   4.486   7.091  1.00  0.00     0.267 C 
HETATM   17  H   UNL     1      64.335   3.091   7.373  1.00  0.00     0.277 HD
HETATM   18  H   UNL     1      63.780   4.674   7.305  1.00  0.00     0.277 HD
ENDBRANCH  14  15
ENDBRANCH   6  14
TORSDOF 3
ENDMDL
