MODEL 1
REMARK VINA RESULT:      -5.8      0.000      0.000
REMARK  4 active torsions:
REMARK  status: ('A' for Active; 'I' for Inactive)
REMARK    1  A    between atoms: C_1  and  C_7 
REMARK    2  A    between atoms: C_2  and  C_8 
REMARK    3  A    between atoms: C_7  and  O_10 
REMARK    4  A    between atoms: O_10  and  C_14 
ROOT
HETATM    1  C   UNL     1      63.817   7.687   5.320  1.00  0.00     0.109 A 
HETATM    2  C   UNL     1      62.657   7.966   4.613  1.00  0.00     0.066 A 
HETATM    3  N   UNL     1      61.622   7.051   4.813  1.00  0.00    -0.352 N 
ATOM      4  HN  UNL     1      60.713   7.093   4.351  1.00  0.00     0.166 HD
HETATM    5  S   UNL     1      63.574   6.264   6.270  1.00  0.00    -0.069 SA
HETATM    6  C   UNL     1      61.979   6.130   5.676  1.00  0.00     0.048 A 
HETATM    7  C   UNL     1      61.097   5.030   6.150  1.00  0.00     0.076 C 
ENDROOT
BRANCH   2   8
HETATM    8  C   UNL     1      62.411   9.112   3.733  1.00  0.00    -0.008 A 
HETATM    9  C   UNL     1      62.294   8.896   2.351  1.00  0.00     0.014 A 
HETATM   10  C   UNL     1      61.987   9.945   1.478  1.00  0.00     0.001 A 
HETATM   11  C   UNL     1      61.797  11.230   1.978  1.00  0.00     0.000 A 
HETATM   12  C   UNL     1      61.908  11.463   3.346  1.00  0.00     0.001 A 
HETATM   13  C   UNL     1      62.200  10.410   4.218  1.00  0.00     0.014 A 
ENDBRANCH   2   8
BRANCH   1  14
HETATM   14  C   UNL     1      65.105   8.347   5.330  1.00  0.00     0.302 C 
HETATM   15  O   UNL     1      65.375   9.397   5.900  1.00  0.00    -0.259 OA
BRANCH  14  16
HETATM   16  O   UNL     1      66.021   7.605   4.638  1.00  0.00    -0.317 OA
BRANCH  16  17
HETATM   17  C   UNL     1      67.375   7.658   5.108  1.00  0.00     0.174 C 
HETATM   18  C   UNL     1      67.691   6.432   5.943  1.00  0.00     0.034 C 
ENDBRANCH  16  17
ENDBRANCH  14  16
ENDBRANCH   1  14
TORSDOF 4
ENDMDL
MODEL 2
REMARK VINA RESULT:      -5.6      2.247      4.250
REMARK  4 active torsions:
REMARK  status: ('A' for Active; 'I' for Inactive)
REMARK    1  A    between atoms: C_1  and  C_7 
REMARK    2  A    between atoms: C_2  and  C_8 
REMARK    3  A    between atoms: C_7  and  O_10 
REMARK    4  A    between atoms: O_10  and  C_14 
ROOT
HETATM    1  C   UNL     1      63.151   7.165   5.782  1.00  0.00     0.109 A 
HETATM    2  C   UNL     1      63.657   8.328   5.221  1.00  0.00     0.066 A 
HETATM    3  N   UNL     1      65.000   8.575   5.512  1.00  0.00    -0.352 N 
ATOM      4  HN  UNL     1      65.519   9.397   5.201  1.00  0.00     0.166 HD
HETATM    5  S   UNL     1      64.406   6.365   6.660  1.00  0.00    -0.069 SA
HETATM    6  C   UNL     1      65.502   7.605   6.238  1.00  0.00     0.048 A 
HETATM    7  C   UNL     1      66.919   7.531   6.684  1.00  0.00     0.076 C 
ENDROOT
BRANCH   2   8
HETATM    8  C   UNL     1      62.949   9.272   4.352  1.00  0.00    -0.008 A 
HETATM    9  C   UNL     1      62.638  10.549   4.847  1.00  0.00     0.014 A 
HETATM   10  C   UNL     1      62.029  11.510   4.033  1.00  0.00     0.001 A 
HETATM   11  C   UNL     1      61.717  11.205   2.711  1.00  0.00     0.000 A 
HETATM   12  C   UNL     1      62.019   9.943   2.204  1.00  0.00     0.001 A 
HETATM   13  C   UNL     1      62.642   8.989   3.014  1.00  0.00     0.014 A 
ENDBRANCH   2   8
BRANCH   1  14
HETATM   14  C   UNL     1      61.816   6.606   5.767  1.00  0.00     0.302 C 
HETATM   15  O   UNL     1      61.220   6.184   4.784  1.00  0.00    -0.259 OA
BRANCH  14  16
HETATM   16  O   UNL     1      61.306   6.567   7.035  1.00  0.00    -0.317 OA
BRANCH  16  17
HETATM   17  C   UNL     1      60.337   5.546   7.304  1.00  0.00     0.174 C 
HETATM   18  C   UNL     1      59.218   6.096   8.167  1.00  0.00     0.034 C 
ENDBRANCH  16  17
ENDBRANCH  14  16
ENDBRANCH   1  14
TORSDOF 4
ENDMDL
MODEL 3
REMARK VINA RESULT:      -5.4      2.226      4.118
REMARK  4 active torsions:
REMARK  status: ('A' for Active; 'I' for Inactive)
REMARK    1  A    between atoms: C_1  and  C_7 
REMARK    2  A    between atoms: C_2  and  C_8 
REMARK    3  A    between atoms: C_7  and  O_10 
REMARK    4  A    between atoms: O_10  and  C_14 
ROOT
HETATM    1  C   UNL     1      63.338   7.090   5.792  1.00  0.00     0.109 A 
HETATM    2  C   UNL     1      63.816   8.140   5.022  1.00  0.00     0.066 A 
HETATM    3  N   UNL     1      65.189   8.366   5.138  1.00  0.00    -0.352 N 
ATOM      4  HN  UNL     1      65.696   9.113   4.662  1.00  0.00     0.166 HD
HETATM    5  S   UNL     1      64.656   6.367   6.646  1.00  0.00    -0.069 SA
HETATM    6  C   UNL     1      65.737   7.487   5.943  1.00  0.00     0.048 A 
HETATM    7  C   UNL     1      67.190   7.414   6.251  1.00  0.00     0.076 C 
ENDROOT
BRANCH   2   8
HETATM    8  C   UNL     1      63.048   8.983   4.101  1.00  0.00    -0.008 A 
HETATM    9  C   UNL     1      62.601  10.239   4.542  1.00  0.00     0.014 A 
HETATM   10  C   UNL     1      61.928  11.110   3.679  1.00  0.00     0.001 A 
HETATM   11  C   UNL     1      61.689  10.734   2.361  1.00  0.00     0.000 A 
HETATM   12  C   UNL     1      62.126   9.493   1.906  1.00  0.00     0.001 A 
HETATM   13  C   UNL     1      62.812   8.630   2.766  1.00  0.00     0.014 A 
ENDBRANCH   2   8
BRANCH   1  14
HETATM   14  C   UNL     1      61.994   6.593   5.991  1.00  0.00     0.302 C 
HETATM   15  O   UNL     1      61.331   6.693   7.016  1.00  0.00    -0.259 OA
BRANCH  14  16
HETATM   16  O   UNL     1      61.528   6.018   4.842  1.00  0.00    -0.317 OA
BRANCH  16  17
HETATM   17  C   UNL     1      60.107   6.024   4.654  1.00  0.00     0.174 C 
HETATM   18  C   UNL     1      59.688   7.232   3.839  1.00  0.00     0.034 C 
ENDBRANCH  16  17
ENDBRANCH  14  16
ENDBRANCH   1  14
TORSDOF 4
ENDMDL
MODEL 4
REMARK VINA RESULT:      -4.8      2.163      3.966
REMARK  4 active torsions:
REMARK  status: ('A' for Active; 'I' for Inactive)
REMARK    1  A    between atoms: C_1  and  C_7 
REMARK    2  A    between atoms: C_2  and  C_8 
REMARK    3  A    between atoms: C_7  and  O_10 
REMARK    4  A    between atoms: O_10  and  C_14 
ROOT
HETATM    1  C   UNL     1      63.743   6.726   5.331  1.00  0.00     0.109 A 
HETATM    2  C   UNL     1      64.020   7.119   4.030  1.00  0.00     0.066 A 
HETATM    3  N   UNL     1      65.233   6.645   3.527  1.00  0.00    -0.352 N 
ATOM      4  HN  UNL     1      65.601   6.861   2.601  1.00  0.00     0.166 HD
HETATM    5  S   UNL     1      65.025   5.720   5.905  1.00  0.00    -0.069 SA
HETATM    6  C   UNL     1      65.835   5.885   4.411  1.00  0.00     0.048 A 
HETATM    7  C   UNL     1      67.126   5.183   4.181  1.00  0.00     0.076 C 
ENDROOT
BRANCH   2   8
HETATM    8  C   UNL     1      63.171   7.927   3.150  1.00  0.00    -0.008 A 
HETATM    9  C   UNL     1      62.767   9.202   3.578  1.00  0.00     0.014 A 
HETATM   10  C   UNL     1      62.018  10.040   2.745  1.00  0.00     0.001 A 
HETATM   11  C   UNL     1      61.659   9.611   1.471  1.00  0.00     0.000 A 
HETATM   12  C   UNL     1      62.051   8.350   1.029  1.00  0.00     0.001 A 
HETATM   13  C   UNL     1      62.813   7.520   1.858  1.00  0.00     0.014 A 
ENDBRANCH   2   8
BRANCH   1  14
HETATM   14  C   UNL     1      62.640   7.056   6.209  1.00  0.00     0.302 C 
HETATM   15  O   UNL     1      62.657   7.882   7.112  1.00  0.00    -0.259 OA
BRANCH  14  16
HETATM   16  O   UNL     1      61.530   6.335   5.863  1.00  0.00    -0.317 OA
BRANCH  16  17
HETATM   17  C   UNL     1      61.254   5.169   6.650  1.00  0.00     0.174 C 
HETATM   18  C   UNL     1      60.024   5.392   7.509  1.00  0.00     0.034 C 
ENDBRANCH  16  17
ENDBRANCH  14  16
ENDBRANCH   1  14
TORSDOF 4
ENDMDL
MODEL 5
REMARK VINA RESULT:      -4.8      2.729      4.057
REMARK  4 active torsions:
REMARK  status: ('A' for Active; 'I' for Inactive)
REMARK    1  A    between atoms: C_1  and  C_7 
REMARK    2  A    between atoms: C_2  and  C_8 
REMARK    3  A    between atoms: C_7  and  O_10 
REMARK    4  A    between atoms: O_10  and  C_14 
ROOT
HETATM    1  C   UNL     1      62.144   6.879   4.958  1.00  0.00     0.109 A 
HETATM    2  C   UNL     1      62.862   8.055   4.795  1.00  0.00     0.066 A 
HETATM    3  N   UNL     1      64.024   8.136   5.565  1.00  0.00    -0.352 N 
ATOM      4  HN  UNL     1      64.652   8.940   5.585  1.00  0.00     0.166 HD
HETATM    5  S   UNL     1      62.973   5.859   6.079  1.00  0.00    -0.069 SA
HETATM    6  C   UNL     1      64.196   7.037   6.260  1.00  0.00     0.048 A 
HETATM    7  C   UNL     1      65.359   6.774   7.149  1.00  0.00     0.076 C 
ENDROOT
BRANCH   2   8
HETATM    8  C   UNL     1      62.547   9.167   3.894  1.00  0.00    -0.008 A 
HETATM    9  C   UNL     1      62.438   8.917   2.516  1.00  0.00     0.014 A 
HETATM   10  C   UNL     1      62.067   9.929   1.625  1.00  0.00     0.001 A 
HETATM   11  C   UNL     1      61.804  11.211   2.101  1.00  0.00     0.000 A 
HETATM   12  C   UNL     1      61.907  11.477   3.464  1.00  0.00     0.001 A 
HETATM   13  C   UNL     1      62.263  10.459   4.355  1.00  0.00     0.014 A 
ENDBRANCH   2   8
BRANCH   1  14
HETATM   14  C   UNL     1      60.880   6.453   4.397  1.00  0.00     0.302 C 
HETATM   15  O   UNL     1      59.769   6.695   4.852  1.00  0.00    -0.259 OA
BRANCH  14  16
HETATM   16  O   UNL     1      61.088   5.761   3.237  1.00  0.00    -0.317 OA
BRANCH  16  17
HETATM   17  C   UNL     1      59.931   5.177   2.624  1.00  0.00     0.174 C 
HETATM   18  C   UNL     1      60.286   4.608   1.263  1.00  0.00     0.034 C 
ENDBRANCH  16  17
ENDBRANCH  14  16
ENDBRANCH   1  14
TORSDOF 4
ENDMDL
MODEL 6
REMARK VINA RESULT:      -4.6      2.585      4.305
REMARK  4 active torsions:
REMARK  status: ('A' for Active; 'I' for Inactive)
REMARK    1  A    between atoms: C_1  and  C_7 
REMARK    2  A    between atoms: C_2  and  C_8 
REMARK    3  A    between atoms: C_7  and  O_10 
REMARK    4  A    between atoms: O_10  and  C_14 
ROOT
HETATM    1  C   UNL     1      62.857   8.846   4.698  1.00  0.00     0.109 A 
HETATM    2  C   UNL     1      62.585   8.273   3.465  1.00  0.00     0.066 A 
HETATM    3  N   UNL     1      62.128   9.169   2.497  1.00  0.00    -0.352 N 
ATOM      4  HN  UNL     1      61.857   8.909   1.548  1.00  0.00     0.166 HD
HETATM    5  S   UNL     1      62.557  10.546   4.611  1.00  0.00    -0.069 SA
HETATM    6  C   UNL     1      62.094  10.389   2.975  1.00  0.00     0.048 A 
HETATM    7  C   UNL     1      61.700  11.592   2.194  1.00  0.00     0.076 C 
ENDROOT
BRANCH   2   8
HETATM    8  C   UNL     1      62.759   6.868   3.085  1.00  0.00    -0.008 A 
HETATM    9  C   UNL     1      61.698   5.971   3.289  1.00  0.00     0.014 A 
HETATM   10  C   UNL     1      61.789   4.638   2.876  1.00  0.00     0.001 A 
HETATM   11  C   UNL     1      62.949   4.181   2.255  1.00  0.00     0.000 A 
HETATM   12  C   UNL     1      64.011   5.057   2.044  1.00  0.00     0.001 A 
HETATM   13  C   UNL     1      63.912   6.393   2.444  1.00  0.00     0.014 A 
ENDBRANCH   2   8
BRANCH   1  14
HETATM   14  C   UNL     1      63.278   8.254   5.949  1.00  0.00     0.302 C 
HETATM   15  O   UNL     1      62.554   7.695   6.765  1.00  0.00    -0.259 OA
BRANCH  14  16
HETATM   16  O   UNL     1      64.633   8.363   6.091  1.00  0.00    -0.317 OA
BRANCH  16  17
HETATM   17  C   UNL     1      65.405   7.196   5.781  1.00  0.00     0.174 C 
HETATM   18  C   UNL     1      66.543   7.550   4.843  1.00  0.00     0.034 C 
ENDBRANCH  16  17
ENDBRANCH  14  16
ENDBRANCH   1  14
TORSDOF 4
ENDMDL
MODEL 7
REMARK VINA RESULT:      -4.5      3.472      4.858
REMARK  4 active torsions:
REMARK  status: ('A' for Active; 'I' for Inactive)
REMARK    1  A    between atoms: C_1  and  C_7 
REMARK    2  A    between atoms: C_2  and  C_8 
REMARK    3  A    between atoms: C_7  and  O_10 
REMARK    4  A    between atoms: O_10  and  C_14 
ROOT
HETATM    1  C   UNL     1      61.445   6.415   3.205  1.00  0.00     0.109 A 
HETATM    2  C   UNL     1      62.394   7.361   2.848  1.00  0.00     0.066 A 
HETATM    3  N   UNL     1      63.562   6.832   2.296  1.00  0.00    -0.352 N 
ATOM      4  HN  UNL     1      64.369   7.385   2.005  1.00  0.00     0.166 HD
HETATM    5  S   UNL     1      62.036   4.841   2.803  1.00  0.00    -0.069 SA
HETATM    6  C   UNL     1      63.480   5.526   2.202  1.00  0.00     0.048 A 
HETATM    7  C   UNL     1      64.531   4.653   1.616  1.00  0.00     0.076 C 
ENDROOT
BRANCH   2   8
HETATM    8  C   UNL     1      62.277   8.818   2.960  1.00  0.00    -0.008 A 
HETATM    9  C   UNL     1      61.999   9.568   1.806  1.00  0.00     0.014 A 
HETATM   10  C   UNL     1      61.805  10.952   1.873  1.00  0.00     0.001 A 
HETATM   11  C   UNL     1      61.891  11.607   3.098  1.00  0.00     0.000 A 
HETATM   12  C   UNL     1      62.166  10.878   4.253  1.00  0.00     0.001 A 
HETATM   13  C   UNL     1      62.344   9.493   4.186  1.00  0.00     0.014 A 
ENDBRANCH   2   8
BRANCH   1  14
HETATM   14  C   UNL     1      60.159   6.556   3.852  1.00  0.00     0.302 C 
HETATM   15  O   UNL     1      59.855   6.123   4.957  1.00  0.00    -0.259 OA
BRANCH  14  16
HETATM   16  O   UNL     1      59.315   7.293   3.069  1.00  0.00    -0.317 OA
BRANCH  16  17
HETATM   17  C   UNL     1      58.873   6.680   1.851  1.00  0.00     0.174 C 
HETATM   18  C   UNL     1      59.115   7.607   0.676  1.00  0.00     0.034 C 
ENDBRANCH  16  17
ENDBRANCH  14  16
ENDBRANCH   1  14
TORSDOF 4
ENDMDL
MODEL 8
REMARK VINA RESULT:      -4.5      2.451      3.092
REMARK  4 active torsions:
REMARK  status: ('A' for Active; 'I' for Inactive)
REMARK    1  A    between atoms: C_1  and  C_7 
REMARK    2  A    between atoms: C_2  and  C_8 
REMARK    3  A    between atoms: C_7  and  O_10 
REMARK    4  A    between atoms: O_10  and  C_14 
ROOT
HETATM    1  C   UNL     1      60.837   6.443   4.874  1.00  0.00     0.109 A 
HETATM    2  C   UNL     1      60.272   7.355   3.995  1.00  0.00     0.066 A 
HETATM    3  N   UNL     1      58.880   7.289   3.908  1.00  0.00    -0.352 N 
ATOM      4  HN  UNL     1      58.309   7.868   3.291  1.00  0.00     0.166 HD
HETATM    5  S   UNL     1      59.581   5.517   5.617  1.00  0.00    -0.069 SA
HETATM    6  C   UNL     1      58.407   6.380   4.727  1.00  0.00     0.048 A 
HETATM    7  C   UNL     1      56.961   6.085   4.917  1.00  0.00     0.076 C 
ENDROOT
BRANCH   2   8
HETATM    8  C   UNL     1      60.971   8.370   3.203  1.00  0.00    -0.008 A 
HETATM    9  C   UNL     1      61.188   8.135   1.836  1.00  0.00     0.014 A 
HETATM   10  C   UNL     1      61.785   9.104   1.022  1.00  0.00     0.001 A 
HETATM   11  C   UNL     1      62.178  10.323   1.568  1.00  0.00     0.000 A 
HETATM   12  C   UNL     1      61.969  10.573   2.922  1.00  0.00     0.001 A 
HETATM   13  C   UNL     1      61.358   9.610   3.730  1.00  0.00     0.014 A 
ENDBRANCH   2   8
BRANCH   1  14
HETATM   14  C   UNL     1      62.220   6.160   5.190  1.00  0.00     0.302 C 
HETATM   15  O   UNL     1      62.861   5.184   4.819  1.00  0.00    -0.259 OA
BRANCH  14  16
HETATM   16  O   UNL     1      62.750   7.171   5.942  1.00  0.00    -0.317 OA
BRANCH  16  17
HETATM   17  C   UNL     1      64.171   7.345   5.871  1.00  0.00     0.174 C 
HETATM   18  C   UNL     1      64.522   8.401   4.840  1.00  0.00     0.034 C 
ENDBRANCH  16  17
ENDBRANCH  14  16
ENDBRANCH   1  14
TORSDOF 4
ENDMDL
MODEL 9
REMARK VINA RESULT:      -4.5      2.562      4.922
REMARK  4 active torsions:
REMARK  status: ('A' for Active; 'I' for Inactive)
REMARK    1  A    between atoms: C_1  and  C_7 
REMARK    2  A    between atoms: C_2  and  C_8 
REMARK    3  A    between atoms: C_7  and  O_10 
REMARK    4  A    between atoms: O_10  and  C_14 
ROOT
HETATM    1  C   UNL     1      63.391   7.767   4.650  1.00  0.00     0.109 A 
HETATM    2  C   UNL     1      63.877   6.948   3.641  1.00  0.00     0.066 A 
HETATM    3  N   UNL     1      63.438   7.285   2.359  1.00  0.00    -0.352 N 
ATOM      4  HN  UNL     1      63.678   6.772   1.510  1.00  0.00     0.166 HD
HETATM    5  S   UNL     1      62.393   8.993   3.953  1.00  0.00    -0.069 SA
HETATM    6  C   UNL     1      62.675   8.351   2.397  1.00  0.00     0.048 A 
HETATM    7  C   UNL     1      62.078   9.004   1.201  1.00  0.00     0.076 C 
ENDROOT
BRANCH   2   8
HETATM    8  C   UNL     1      64.805   5.822   3.785  1.00  0.00    -0.008 A 
HETATM    9  C   UNL     1      66.165   6.021   3.499  1.00  0.00     0.014 A 
HETATM   10  C   UNL     1      67.100   4.999   3.690  1.00  0.00     0.001 A 
HETATM   11  C   UNL     1      66.686   3.759   4.168  1.00  0.00     0.000 A 
HETATM   12  C   UNL     1      65.340   3.544   4.457  1.00  0.00     0.001 A 
HETATM   13  C   UNL     1      64.409   4.572   4.279  1.00  0.00     0.014 A 
ENDBRANCH   2   8
BRANCH   1  14
HETATM   14  C   UNL     1      63.560   7.707   6.086  1.00  0.00     0.302 C 
HETATM   15  O   UNL     1      62.666   7.585   6.914  1.00  0.00    -0.259 OA
BRANCH  14  16
HETATM   16  O   UNL     1      64.887   7.762   6.408  1.00  0.00    -0.317 OA
BRANCH  16  17
HETATM   17  C   UNL     1      65.382   6.723   7.263  1.00  0.00     0.174 C 
HETATM   18  C   UNL     1      66.882   6.574   7.098  1.00  0.00     0.034 C 
ENDBRANCH  16  17
ENDBRANCH  14  16
ENDBRANCH   1  14
TORSDOF 4
ENDMDL
