MODEL 1
REMARK VINA RESULT:      -5.1      0.000      0.000
REMARK  3 active torsions:
REMARK  status: ('A' for Active; 'I' for Inactive)
REMARK    1  A    between atoms: N_3  and  C_7 
REMARK    2  A    between atoms: C_7  and  C_8 
REMARK    3  A    between atoms: C_10  and  N_11 
ROOT
HETATM    1  C   UNL     1      63.956   8.295   4.316  1.00  0.00    -0.038 A 
HETATM    2  C   UNL     1      63.997   9.340   5.254  1.00  0.00     0.037 A 
HETATM    3  C   UNL     1      63.075  10.388   5.211  1.00  0.00     0.026 A 
HETATM    4  C   UNL     1      62.144   9.438   3.183  1.00  0.00     0.003 A 
HETATM    5  C   UNL     1      63.015   8.353   3.278  1.00  0.00     0.009 A 
HETATM    6  C   UNL     1      62.185  10.455   4.138  1.00  0.00     0.029 A 
ENDROOT
BRANCH   1   7
HETATM    7  C   UNL     1      64.878   7.113   4.452  1.00  0.00     0.167 C 
BRANCH   7   8
HETATM    8  N   UNL     1      65.544   7.112   5.745  1.00  0.00    -0.347 N 
HETATM    9  C   UNL     1      66.769   7.653   6.010  1.00  0.00     0.182 A 
HETATM   10  N   UNL     1      67.133   7.432   7.255  1.00  0.00    -0.361 N 
HETATM   11  C   UNL     1      66.096   6.731   7.816  1.00  0.00     0.106 A 
ATOM     12  HN  UNL     1      68.001   7.720   7.707  1.00  0.00     0.166 HD
HETATM   13  C   UNL     1      65.093   6.524   6.894  1.00  0.00     0.109 A 
ENDBRANCH   7   8
ENDBRANCH   1   7
BRANCH   3  14
HETATM   14  N   UNL     1      63.191  11.462   6.103  1.00  0.00    -0.399 N 
HETATM   15  H   UNL     1      62.384  11.931   6.416  1.00  0.00     0.156 HD
HETATM   16  H   UNL     1      64.079  11.746   6.418  1.00  0.00     0.156 HD
ENDBRANCH   3  14
TORSDOF 3
ENDMDL
MODEL 2
REMARK VINA RESULT:      -5.1      1.482      2.101
REMARK  3 active torsions:
REMARK  status: ('A' for Active; 'I' for Inactive)
REMARK    1  A    between atoms: N_3  and  C_7 
REMARK    2  A    between atoms: C_7  and  C_8 
REMARK    3  A    between atoms: C_10  and  N_11 
ROOT
HETATM    1  C   UNL     1      62.457   8.541   3.450  1.00  0.00    -0.038 A 
HETATM    2  C   UNL     1      62.369   9.707   4.228  1.00  0.00     0.037 A 
HETATM    3  C   UNL     1      62.030  10.935   3.654  1.00  0.00     0.026 A 
HETATM    4  C   UNL     1      62.011   9.871   1.475  1.00  0.00     0.003 A 
HETATM    5  C   UNL     1      62.271   8.634   2.064  1.00  0.00     0.009 A 
HETATM    6  C   UNL     1      61.905  11.016   2.266  1.00  0.00     0.029 A 
ENDROOT
BRANCH   1   7
HETATM    7  C   UNL     1      62.702   7.207   4.105  1.00  0.00     0.167 C 
BRANCH   7   8
HETATM    8  N   UNL     1      63.848   7.263   4.998  1.00  0.00    -0.347 N 
HETATM    9  C   UNL     1      63.820   7.038   6.344  1.00  0.00     0.182 A 
HETATM   10  N   UNL     1      65.002   7.232   6.889  1.00  0.00    -0.361 N 
HETATM   11  C   UNL     1      65.825   7.583   5.850  1.00  0.00     0.106 A 
ATOM     12  HN  UNL     1      65.252   7.139   7.874  1.00  0.00     0.166 HD
HETATM   13  C   UNL     1      65.128   7.605   4.661  1.00  0.00     0.109 A 
ENDBRANCH   7   8
ENDBRANCH   1   7
BRANCH   3  14
HETATM   14  N   UNL     1      62.034  12.099   4.434  1.00  0.00    -0.399 N 
HETATM   15  H   UNL     1      62.825  12.326   4.974  1.00  0.00     0.156 HD
HETATM   16  H   UNL     1      61.247  12.690   4.440  1.00  0.00     0.156 HD
ENDBRANCH   3  14
TORSDOF 3
ENDMDL
MODEL 3
REMARK VINA RESULT:      -4.9      3.791      5.854
REMARK  3 active torsions:
REMARK  status: ('A' for Active; 'I' for Inactive)
REMARK    1  A    between atoms: N_3  and  C_7 
REMARK    2  A    between atoms: C_7  and  C_8 
REMARK    3  A    between atoms: C_10  and  N_11 
ROOT
HETATM    1  C   UNL     1      62.173   9.437   1.945  1.00  0.00    -0.038 A 
HETATM    2  C   UNL     1      62.582   8.890   3.172  1.00  0.00     0.037 A 
HETATM    3  C   UNL     1      62.562   9.648   4.345  1.00  0.00     0.026 A 
HETATM    4  C   UNL     1      61.863  11.573   3.046  1.00  0.00     0.003 A 
HETATM    5  C   UNL     1      61.809  10.790   1.894  1.00  0.00     0.009 A 
HETATM    6  C   UNL     1      62.251  11.006   4.261  1.00  0.00     0.029 A 
ENDROOT
BRANCH   1   7
HETATM    7  C   UNL     1      62.084   8.570   0.717  1.00  0.00     0.167 C 
BRANCH   7   8
HETATM    8  N   UNL     1      60.898   7.730   0.751  1.00  0.00    -0.347 N 
HETATM    9  C   UNL     1      59.613   8.160   0.593  1.00  0.00     0.182 A 
HETATM   10  N   UNL     1      58.753   7.176   0.745  1.00  0.00    -0.361 N 
HETATM   11  C   UNL     1      59.516   6.066   1.000  1.00  0.00     0.106 A 
ATOM     12  HN  UNL     1      57.736   7.228   0.686  1.00  0.00     0.166 HD
HETATM   13  C   UNL     1      60.857   6.387   1.005  1.00  0.00     0.109 A 
ENDBRANCH   7   8
ENDBRANCH   1   7
BRANCH   3  14
HETATM   14  N   UNL     1      63.057   9.107   5.539  1.00  0.00    -0.399 N 
HETATM   15  H   UNL     1      62.482   8.533   6.095  1.00  0.00     0.156 HD
HETATM   16  H   UNL     1      63.980   9.300   5.820  1.00  0.00     0.156 HD
ENDBRANCH   3  14
TORSDOF 3
ENDMDL
MODEL 4
REMARK VINA RESULT:      -4.9      1.471      1.989
REMARK  3 active torsions:
REMARK  status: ('A' for Active; 'I' for Inactive)
REMARK    1  A    between atoms: N_3  and  C_7 
REMARK    2  A    between atoms: C_7  and  C_8 
REMARK    3  A    between atoms: C_10  and  N_11 
ROOT
HETATM    1  C   UNL     1      63.602   8.431   4.292  1.00  0.00    -0.038 A 
HETATM    2  C   UNL     1      62.824   8.602   3.135  1.00  0.00     0.037 A 
HETATM    3  C   UNL     1      62.110   9.782   2.911  1.00  0.00     0.026 A 
HETATM    4  C   UNL     1      62.825  10.584   5.086  1.00  0.00     0.003 A 
HETATM    5  C   UNL     1      63.598   9.438   5.267  1.00  0.00     0.009 A 
HETATM    6  C   UNL     1      62.075  10.746   3.920  1.00  0.00     0.029 A 
ENDROOT
BRANCH   1   7
HETATM    7  C   UNL     1      64.460   7.204   4.457  1.00  0.00     0.167 C 
BRANCH   7   8
HETATM    8  N   UNL     1      65.434   7.383   5.522  1.00  0.00    -0.347 N 
HETATM    9  C   UNL     1      66.635   8.020   5.404  1.00  0.00     0.182 A 
HETATM   10  N   UNL     1      67.325   7.958   6.523  1.00  0.00    -0.361 N 
HETATM   11  C   UNL     1      66.530   7.262   7.398  1.00  0.00     0.106 A 
ATOM     12  HN  UNL     1      68.252   8.344   6.701  1.00  0.00     0.166 HD
HETATM   13  C   UNL     1      65.345   6.898   6.797  1.00  0.00     0.109 A 
ENDBRANCH   7   8
ENDBRANCH   1   7
BRANCH   3  14
HETATM   14  N   UNL     1      61.272   9.894   1.794  1.00  0.00    -0.399 N 
HETATM   15  H   UNL     1      61.207  10.750   1.312  1.00  0.00     0.156 HD
HETATM   16  H   UNL     1      60.750   9.117   1.492  1.00  0.00     0.156 HD
ENDBRANCH   3  14
TORSDOF 3
ENDMDL
MODEL 5
REMARK VINA RESULT:      -4.7      1.597      4.772
REMARK  3 active torsions:
REMARK  status: ('A' for Active; 'I' for Inactive)
REMARK    1  A    between atoms: N_3  and  C_7 
REMARK    2  A    between atoms: C_7  and  C_8 
REMARK    3  A    between atoms: C_10  and  N_11 
ROOT
HETATM    1  C   UNL     1      64.438   7.523   5.076  1.00  0.00    -0.038 A 
HETATM    2  C   UNL     1      65.652   8.010   5.589  1.00  0.00     0.037 A 
HETATM    3  C   UNL     1      66.877   7.613   5.047  1.00  0.00     0.026 A 
HETATM    4  C   UNL     1      65.692   6.108   3.560  1.00  0.00     0.003 A 
HETATM    5  C   UNL     1      64.470   6.567   4.051  1.00  0.00     0.009 A 
HETATM    6  C   UNL     1      66.887   6.620   4.067  1.00  0.00     0.029 A 
ENDROOT
BRANCH   1   7
HETATM    7  C   UNL     1      63.127   8.055   5.590  1.00  0.00     0.167 C 
BRANCH   7   8
HETATM    8  N   UNL     1      62.782   9.313   4.949  1.00  0.00    -0.347 N 
HETATM    9  C   UNL     1      62.878  10.550   5.518  1.00  0.00     0.182 A 
HETATM   10  N   UNL     1      62.426  11.487   4.713  1.00  0.00    -0.361 N 
HETATM   11  C   UNL     1      62.033  10.828   3.576  1.00  0.00     0.106 A 
ATOM     12  HN  UNL     1      62.378  12.490   4.895  1.00  0.00     0.166 HD
HETATM   13  C   UNL     1      62.249   9.472   3.699  1.00  0.00     0.109 A 
ENDBRANCH   7   8
ENDBRANCH   1   7
BRANCH   3  14
HETATM   14  N   UNL     1      68.075   8.044   5.632  1.00  0.00    -0.399 N 
HETATM   15  H   UNL     1      68.937   7.810   5.218  1.00  0.00     0.156 HD
HETATM   16  H   UNL     1      68.054   8.583   6.456  1.00  0.00     0.156 HD
ENDBRANCH   3  14
TORSDOF 3
ENDMDL
MODEL 6
REMARK VINA RESULT:      -4.6      2.285      2.866
REMARK  3 active torsions:
REMARK  status: ('A' for Active; 'I' for Inactive)
REMARK    1  A    between atoms: N_3  and  C_7 
REMARK    2  A    between atoms: C_7  and  C_8 
REMARK    3  A    between atoms: C_10  and  N_11 
ROOT
HETATM    1  C   UNL     1      63.315   8.637   3.989  1.00  0.00    -0.038 A 
HETATM    2  C   UNL     1      63.685   9.427   5.090  1.00  0.00     0.037 A 
HETATM    3  C   UNL     1      63.098  10.675   5.315  1.00  0.00     0.026 A 
HETATM    4  C   UNL     1      61.863  10.427   3.243  1.00  0.00     0.003 A 
HETATM    5  C   UNL     1      62.392   9.150   3.066  1.00  0.00     0.009 A 
HETATM    6  C   UNL     1      62.226  11.189   4.354  1.00  0.00     0.029 A 
ENDROOT
BRANCH   1   7
HETATM    7  C   UNL     1      63.867   7.245   3.832  1.00  0.00     0.167 C 
BRANCH   7   8
HETATM    8  N   UNL     1      63.074   6.278   4.574  1.00  0.00    -0.347 N 
HETATM    9  C   UNL     1      63.192   6.005   5.905  1.00  0.00     0.182 A 
HETATM   10  N   UNL     1      62.386   5.032   6.271  1.00  0.00    -0.361 N 
HETATM   11  C   UNL     1      61.715   4.672   5.130  1.00  0.00     0.106 A 
ATOM     12  HN  UNL     1      62.282   4.631   7.203  1.00  0.00     0.166 HD
HETATM   13  C   UNL     1      62.125   5.438   4.061  1.00  0.00     0.109 A 
ENDBRANCH   7   8
ENDBRANCH   1   7
BRANCH   3  14
HETATM   14  N   UNL     1      63.547  11.482   6.369  1.00  0.00    -0.399 N 
HETATM   15  H   UNL     1      64.391  11.981   6.281  1.00  0.00     0.156 HD
HETATM   16  H   UNL     1      63.017  11.551   7.195  1.00  0.00     0.156 HD
ENDBRANCH   3  14
TORSDOF 3
ENDMDL
MODEL 7
REMARK VINA RESULT:      -4.6      3.479      4.237
REMARK  3 active torsions:
REMARK  status: ('A' for Active; 'I' for Inactive)
REMARK    1  A    between atoms: N_3  and  C_7 
REMARK    2  A    between atoms: C_7  and  C_8 
REMARK    3  A    between atoms: C_10  and  N_11 
ROOT
HETATM    1  C   UNL     1      62.126   8.713   2.996  1.00  0.00    -0.038 A 
HETATM    2  C   UNL     1      62.388   9.473   4.148  1.00  0.00     0.037 A 
HETATM    3  C   UNL     1      62.248  10.863   4.145  1.00  0.00     0.026 A 
HETATM    4  C   UNL     1      61.727  10.769   1.778  1.00  0.00     0.003 A 
HETATM    5  C   UNL     1      61.790   9.376   1.808  1.00  0.00     0.009 A 
HETATM    6  C   UNL     1      61.969  11.506   2.938  1.00  0.00     0.029 A 
ENDROOT
BRANCH   1   7
HETATM    7  C   UNL     1      62.162   7.208   3.054  1.00  0.00     0.167 C 
BRANCH   7   8
HETATM    8  N   UNL     1      61.187   6.695   4.001  1.00  0.00    -0.347 N 
HETATM    9  C   UNL     1      59.833   6.831   3.903  1.00  0.00     0.182 A 
HETATM   10  N   UNL     1      59.219   6.322   4.950  1.00  0.00    -0.361 N 
HETATM   11  C   UNL     1      60.219   5.827   5.748  1.00  0.00     0.106 A 
ATOM     12  HN  UNL     1      58.215   6.299   5.129  1.00  0.00     0.166 HD
HETATM   13  C   UNL     1      61.453   6.046   5.175  1.00  0.00     0.109 A 
ENDBRANCH   7   8
ENDBRANCH   1   7
BRANCH   3  14
HETATM   14  N   UNL     1      62.599  11.607   5.279  1.00  0.00    -0.399 N 
HETATM   15  H   UNL     1      62.002  12.317   5.606  1.00  0.00     0.156 HD
HETATM   16  H   UNL     1      63.442  11.417   5.749  1.00  0.00     0.156 HD
ENDBRANCH   3  14
TORSDOF 3
ENDMDL
MODEL 8
REMARK VINA RESULT:      -4.6      1.538      2.641
REMARK  3 active torsions:
REMARK  status: ('A' for Active; 'I' for Inactive)
REMARK    1  A    between atoms: N_3  and  C_7 
REMARK    2  A    between atoms: C_7  and  C_8 
REMARK    3  A    between atoms: C_10  and  N_11 
ROOT
HETATM    1  C   UNL     1      65.686   7.830   5.207  1.00  0.00    -0.038 A 
HETATM    2  C   UNL     1      64.633   8.758   5.148  1.00  0.00     0.037 A 
HETATM    3  C   UNL     1      63.562   8.585   4.268  1.00  0.00     0.026 A 
HETATM    4  C   UNL     1      64.664   6.617   3.374  1.00  0.00     0.003 A 
HETATM    5  C   UNL     1      65.689   6.752   4.310  1.00  0.00     0.009 A 
HETATM    6  C   UNL     1      63.615   7.537   3.347  1.00  0.00     0.029 A 
ENDROOT
BRANCH   1   7
HETATM    7  C   UNL     1      66.766   7.968   6.246  1.00  0.00     0.167 C 
BRANCH   7   8
HETATM    8  N   UNL     1      66.816   6.801   7.111  1.00  0.00    -0.347 N 
HETATM    9  C   UNL     1      65.861   6.438   8.015  1.00  0.00     0.182 A 
HETATM   10  N   UNL     1      66.223   5.374   8.699  1.00  0.00    -0.361 N 
HETATM   11  C   UNL     1      67.457   5.033   8.207  1.00  0.00     0.106 A 
ATOM     12  HN  UNL     1      65.699   4.904   9.437  1.00  0.00     0.166 HD
HETATM   13  C   UNL     1      67.845   5.906   7.214  1.00  0.00     0.109 A 
ENDBRANCH   7   8
ENDBRANCH   1   7
BRANCH   3  14
HETATM   14  N   UNL     1      62.570   9.569   4.166  1.00  0.00    -0.399 N 
HETATM   15  H   UNL     1      62.170   9.949   4.981  1.00  0.00     0.156 HD
HETATM   16  H   UNL     1      62.276   9.880   3.281  1.00  0.00     0.156 HD
ENDBRANCH   3  14
TORSDOF 3
ENDMDL
MODEL 9
REMARK VINA RESULT:      -4.4      2.337      2.968
REMARK  3 active torsions:
REMARK  status: ('A' for Active; 'I' for Inactive)
REMARK    1  A    between atoms: N_3  and  C_7 
REMARK    2  A    between atoms: C_7  and  C_8 
REMARK    3  A    between atoms: C_10  and  N_11 
ROOT
HETATM    1  C   UNL     1      63.153   8.689   3.897  1.00  0.00    -0.038 A 
HETATM    2  C   UNL     1      62.424   9.369   2.907  1.00  0.00     0.037 A 
HETATM    3  C   UNL     1      62.012  10.691   3.092  1.00  0.00     0.026 A 
HETATM    4  C   UNL     1      62.924  10.623   5.338  1.00  0.00     0.003 A 
HETATM    5  C   UNL     1      63.403   9.332   5.117  1.00  0.00     0.009 A 
HETATM    6  C   UNL     1      62.221  11.291   4.334  1.00  0.00     0.029 A 
ENDROOT
BRANCH   1   7
HETATM    7  C   UNL     1      63.694   7.309   3.631  1.00  0.00     0.167 C 
BRANCH   7   8
HETATM    8  N   UNL     1      63.385   6.403   4.725  1.00  0.00    -0.347 N 
HETATM    9  C   UNL     1      64.295   5.824   5.560  1.00  0.00     0.182 A 
HETATM   10  N   UNL     1      63.715   4.997   6.405  1.00  0.00    -0.361 N 
HETATM   11  C   UNL     1      62.378   5.056   6.107  1.00  0.00     0.106 A 
ATOM     12  HN  UNL     1      64.165   4.434   7.127  1.00  0.00     0.166 HD
HETATM   13  C   UNL     1      62.148   5.929   5.066  1.00  0.00     0.109 A 
ENDBRANCH   7   8
ENDBRANCH   1   7
BRANCH   3  14
HETATM   14  N   UNL     1      61.211  11.318   2.128  1.00  0.00    -0.399 N 
HETATM   15  H   UNL     1      61.478  11.300   1.181  1.00  0.00     0.156 HD
HETATM   16  H   UNL     1      60.382  11.773   2.398  1.00  0.00     0.156 HD
ENDBRANCH   3  14
TORSDOF 3
ENDMDL
