MODEL 1
REMARK VINA RESULT:      -5.2      0.000      0.000
REMARK  4 active torsions:
REMARK  status: ('A' for Active; 'I' for Inactive)
REMARK    1  A    between atoms: N_3  and  C_7 
REMARK    2  A    between atoms: C_7  and  C_8 
REMARK    3  A    between atoms: C_9  and  C_15 
REMARK    4  A    between atoms: O_14  and  C_15 
ROOT
HETATM    1  C   UNL     1      62.217   9.403   2.144  1.00  0.00    -0.040 A 
HETATM    2  C   UNL     1      62.653  10.646   4.642  1.00  0.00    -0.035 A 
HETATM    3  C   UNL     1      61.822  10.730   2.358  1.00  0.00     0.009 A 
HETATM    4  C   UNL     1      62.808   8.696   3.202  1.00  0.00     0.009 A 
HETATM    5  C   UNL     1      63.020   9.311   4.439  1.00  0.00     0.010 A 
HETATM    6  C   UNL     1      62.037  11.344   3.595  1.00  0.00     0.010 A 
ENDROOT
BRANCH   1   7
HETATM    7  C   UNL     1      62.042   8.759   0.790  1.00  0.00     0.167 C 
BRANCH   7   8
HETATM    8  N   UNL     1      60.907   7.854   0.770  1.00  0.00    -0.347 N 
HETATM    9  C   UNL     1      59.603   8.214   0.575  1.00  0.00     0.182 A 
HETATM   10  N   UNL     1      58.810   7.164   0.575  1.00  0.00    -0.361 N 
HETATM   11  C   UNL     1      59.635   6.086   0.769  1.00  0.00     0.106 A 
ATOM     12  HN  UNL     1      57.797   7.154   0.456  1.00  0.00     0.166 HD
HETATM   13  C   UNL     1      60.948   6.491   0.872  1.00  0.00     0.109 A 
ENDBRANCH   7   8
ENDBRANCH   1   7
BRANCH   2  14
HETATM   14  C   UNL     1      62.925  11.332   5.955  1.00  0.00     0.202 C 
BRANCH  14  15
HETATM   15  O   UNL     1      64.325  11.395   6.200  1.00  0.00    -0.396 OA
HETATM   16  H   UNL     1      64.664  10.502   6.372  1.00  0.00     0.209 HD
ENDBRANCH  14  15
ENDBRANCH   2  14
TORSDOF 4
ENDMDL
MODEL 2
REMARK VINA RESULT:      -5.0      3.991      5.915
REMARK  4 active torsions:
REMARK  status: ('A' for Active; 'I' for Inactive)
REMARK    1  A    between atoms: N_3  and  C_7 
REMARK    2  A    between atoms: C_7  and  C_8 
REMARK    3  A    between atoms: C_9  and  C_15 
REMARK    4  A    between atoms: O_14  and  C_15 
ROOT
HETATM    1  C   UNL     1      63.472   8.171   4.914  1.00  0.00    -0.040 A 
HETATM    2  C   UNL     1      62.301   9.790   2.918  1.00  0.00    -0.035 A 
HETATM    3  C   UNL     1      63.311   7.688   3.608  1.00  0.00     0.009 A 
HETATM    4  C   UNL     1      63.017   9.464   5.216  1.00  0.00     0.009 A 
HETATM    5  C   UNL     1      62.433  10.262   4.228  1.00  0.00     0.010 A 
HETATM    6  C   UNL     1      62.730   8.489   2.622  1.00  0.00     0.010 A 
ENDROOT
BRANCH   1   7
HETATM    7  C   UNL     1      64.156   7.331   5.965  1.00  0.00     0.167 C 
BRANCH   7   8
HETATM    8  N   UNL     1      65.600   7.354   5.811  1.00  0.00    -0.347 N 
HETATM    9  C   UNL     1      66.457   8.208   6.446  1.00  0.00     0.182 A 
HETATM   10  N   UNL     1      67.709   7.957   6.128  1.00  0.00    -0.361 N 
HETATM   11  C   UNL     1      67.657   6.895   5.263  1.00  0.00     0.106 A 
ATOM     12  HN  UNL     1      68.540   8.449   6.455  1.00  0.00     0.166 HD
HETATM   13  C   UNL     1      66.355   6.489   5.068  1.00  0.00     0.109 A 
ENDBRANCH   7   8
ENDBRANCH   1   7
BRANCH   2  14
HETATM   14  C   UNL     1      61.722  10.662   1.835  1.00  0.00     0.202 C 
BRANCH  14  15
HETATM   15  O   UNL     1      62.120  12.014   2.023  1.00  0.00    -0.396 OA
HETATM   16  H   UNL     1      61.988  12.265   2.951  1.00  0.00     0.209 HD
ENDBRANCH  14  15
ENDBRANCH   2  14
TORSDOF 4
ENDMDL
MODEL 3
REMARK VINA RESULT:      -5.0      4.021      5.863
REMARK  4 active torsions:
REMARK  status: ('A' for Active; 'I' for Inactive)
REMARK    1  A    between atoms: N_3  and  C_7 
REMARK    2  A    between atoms: C_7  and  C_8 
REMARK    3  A    between atoms: C_9  and  C_15 
REMARK    4  A    between atoms: O_14  and  C_15 
ROOT
HETATM    1  C   UNL     1      63.520   8.187   4.888  1.00  0.00    -0.040 A 
HETATM    2  C   UNL     1      62.299   9.812   2.927  1.00  0.00    -0.035 A 
HETATM    3  C   UNL     1      63.078   9.478   5.207  1.00  0.00     0.009 A 
HETATM    4  C   UNL     1      63.368   7.728   3.571  1.00  0.00     0.009 A 
HETATM    5  C   UNL     1      62.768   8.535   2.601  1.00  0.00     0.010 A 
HETATM    6  C   UNL     1      62.475  10.281   4.236  1.00  0.00     0.010 A 
ENDROOT
BRANCH   1   7
HETATM    7  C   UNL     1      64.114   7.294   5.951  1.00  0.00     0.167 C 
BRANCH   7   8
HETATM    8  N   UNL     1      65.562   7.243   5.858  1.00  0.00    -0.347 N 
HETATM    9  C   UNL     1      66.428   8.172   6.362  1.00  0.00     0.182 A 
HETATM   10  N   UNL     1      67.679   7.828   6.150  1.00  0.00    -0.361 N 
HETATM   11  C   UNL     1      67.619   6.626   5.494  1.00  0.00     0.106 A 
ATOM     12  HN  UNL     1      68.517   8.345   6.418  1.00  0.00     0.166 HD
HETATM   13  C   UNL     1      66.310   6.232   5.320  1.00  0.00     0.109 A 
ENDBRANCH   7   8
ENDBRANCH   1   7
BRANCH   2  14
HETATM   14  C   UNL     1      61.604  10.667   1.901  1.00  0.00     0.202 C 
BRANCH  14  15
HETATM   15  O   UNL     1      62.118  11.993   1.931  1.00  0.00    -0.396 OA
HETATM   16  H   UNL     1      61.390  12.619   2.069  1.00  0.00     0.209 HD
ENDBRANCH  14  15
ENDBRANCH   2  14
TORSDOF 4
ENDMDL
MODEL 4
REMARK VINA RESULT:      -4.8      4.723      6.571
REMARK  4 active torsions:
REMARK  status: ('A' for Active; 'I' for Inactive)
REMARK    1  A    between atoms: N_3  and  C_7 
REMARK    2  A    between atoms: C_7  and  C_8 
REMARK    3  A    between atoms: C_9  and  C_15 
REMARK    4  A    between atoms: O_14  and  C_15 
ROOT
HETATM    1  C   UNL     1      65.222   7.561   4.764  1.00  0.00    -0.040 A 
HETATM    2  C   UNL     1      62.857   8.667   3.687  1.00  0.00    -0.035 A 
HETATM    3  C   UNL     1      64.580   6.950   3.678  1.00  0.00     0.009 A 
HETATM    4  C   UNL     1      64.654   8.716   5.321  1.00  0.00     0.009 A 
HETATM    5  C   UNL     1      63.481   9.260   4.790  1.00  0.00     0.010 A 
HETATM    6  C   UNL     1      63.409   7.498   3.147  1.00  0.00     0.010 A 
ENDROOT
BRANCH   1   7
HETATM    7  C   UNL     1      66.520   7.007   5.299  1.00  0.00     0.167 C 
BRANCH   7   8
HETATM    8  N   UNL     1      66.352   6.432   6.622  1.00  0.00    -0.347 N 
HETATM    9  C   UNL     1      65.837   5.196   6.895  1.00  0.00     0.182 A 
HETATM   10  N   UNL     1      65.847   4.946   8.186  1.00  0.00    -0.361 N 
HETATM   11  C   UNL     1      66.398   6.059   8.767  1.00  0.00     0.106 A 
ATOM     12  HN  UNL     1      65.515   4.103   8.656  1.00  0.00     0.166 HD
HETATM   13  C   UNL     1      66.740   6.988   7.809  1.00  0.00     0.109 A 
ENDBRANCH   7   8
ENDBRANCH   1   7
BRANCH   2  14
HETATM   14  C   UNL     1      61.623   9.276   3.075  1.00  0.00     0.202 C 
BRANCH  14  15
HETATM   15  O   UNL     1      61.261  10.464   3.768  1.00  0.00    -0.396 OA
HETATM   16  H   UNL     1      60.609  10.958   3.246  1.00  0.00     0.209 HD
ENDBRANCH  14  15
ENDBRANCH   2  14
TORSDOF 4
ENDMDL
MODEL 5
REMARK VINA RESULT:      -4.4      2.887      4.421
REMARK  4 active torsions:
REMARK  status: ('A' for Active; 'I' for Inactive)
REMARK    1  A    between atoms: N_3  and  C_7 
REMARK    2  A    between atoms: C_7  and  C_8 
REMARK    3  A    between atoms: C_9  and  C_15 
REMARK    4  A    between atoms: O_14  and  C_15 
ROOT
HETATM    1  C   UNL     1      63.131   7.536   4.447  1.00  0.00    -0.040 A 
HETATM    2  C   UNL     1      65.379   7.086   6.097  1.00  0.00    -0.035 A 
HETATM    3  C   UNL     1      62.968   7.174   5.791  1.00  0.00     0.009 A 
HETATM    4  C   UNL     1      64.431   7.645   3.931  1.00  0.00     0.009 A 
HETATM    5  C   UNL     1      65.543   7.417   4.748  1.00  0.00     0.010 A 
HETATM    6  C   UNL     1      64.081   6.951   6.606  1.00  0.00     0.010 A 
ENDROOT
BRANCH   1   7
HETATM    7  C   UNL     1      61.932   7.840   3.583  1.00  0.00     0.167 C 
BRANCH   7   8
HETATM    8  N   UNL     1      61.899   9.237   3.185  1.00  0.00    -0.347 N 
HETATM    9  C   UNL     1      61.734   9.700   1.910  1.00  0.00     0.182 A 
HETATM   10  N   UNL     1      61.712  11.014   1.876  1.00  0.00    -0.361 N 
HETATM   11  C   UNL     1      61.858  11.414   3.179  1.00  0.00     0.106 A 
ATOM     12  HN  UNL     1      61.608  11.610   1.054  1.00  0.00     0.166 HD
HETATM   13  C   UNL     1      61.955  10.323   4.014  1.00  0.00     0.109 A 
ENDBRANCH   7   8
ENDBRANCH   1   7
BRANCH   2  14
HETATM   14  C   UNL     1      66.571   6.891   6.996  1.00  0.00     0.202 C 
BRANCH  14  15
HETATM   15  O   UNL     1      66.967   8.130   7.569  1.00  0.00    -0.396 OA
HETATM   16  H   UNL     1      67.887   8.321   7.325  1.00  0.00     0.209 HD
ENDBRANCH  14  15
ENDBRANCH   2  14
TORSDOF 4
ENDMDL
MODEL 6
REMARK VINA RESULT:      -4.2      1.465      1.819
REMARK  4 active torsions:
REMARK  status: ('A' for Active; 'I' for Inactive)
REMARK    1  A    between atoms: N_3  and  C_7 
REMARK    2  A    between atoms: C_7  and  C_8 
REMARK    3  A    between atoms: C_9  and  C_15 
REMARK    4  A    between atoms: O_14  and  C_15 
ROOT
HETATM    1  C   UNL     1      61.201   8.184   1.668  1.00  0.00    -0.040 A 
HETATM    2  C   UNL     1      62.010   9.970   3.701  1.00  0.00    -0.035 A 
HETATM    3  C   UNL     1      61.477   9.526   1.370  1.00  0.00     0.009 A 
HETATM    4  C   UNL     1      61.310   7.753   2.998  1.00  0.00     0.009 A 
HETATM    5  C   UNL     1      61.706   8.639   4.004  1.00  0.00     0.010 A 
HETATM    6  C   UNL     1      61.876  10.408   2.377  1.00  0.00     0.010 A 
ENDROOT
BRANCH   1   7
HETATM    7  C   UNL     1      60.832   7.215   0.572  1.00  0.00     0.167 C 
BRANCH   7   8
HETATM    8  N   UNL     1      59.514   6.643   0.785  1.00  0.00    -0.347 N 
HETATM    9  C   UNL     1      58.350   7.348   0.917  1.00  0.00     0.182 A 
HETATM   10  N   UNL     1      57.318   6.546   1.063  1.00  0.00    -0.361 N 
HETATM   11  C   UNL     1      57.834   5.277   1.014  1.00  0.00     0.106 A 
ATOM     12  HN  UNL     1      56.341   6.812   1.187  1.00  0.00     0.166 HD
HETATM   13  C   UNL     1      59.197   5.313   0.820  1.00  0.00     0.109 A 
ENDBRANCH   7   8
ENDBRANCH   1   7
BRANCH   2  14
HETATM   14  C   UNL     1      62.488  10.917   4.769  1.00  0.00     0.202 C 
BRANCH  14  15
HETATM   15  O   UNL     1      62.156  12.257   4.428  1.00  0.00    -0.396 OA
HETATM   16  H   UNL     1      62.044  12.779   5.238  1.00  0.00     0.209 HD
ENDBRANCH  14  15
ENDBRANCH   2  14
TORSDOF 4
ENDMDL
MODEL 7
REMARK VINA RESULT:      -4.0     12.899     13.909
REMARK  4 active torsions:
REMARK  status: ('A' for Active; 'I' for Inactive)
REMARK    1  A    between atoms: N_3  and  C_7 
REMARK    2  A    between atoms: C_7  and  C_8 
REMARK    3  A    between atoms: C_9  and  C_15 
REMARK    4  A    between atoms: O_14  and  C_15 
ROOT
HETATM    1  C   UNL     1      61.559  -0.608  11.715  1.00  0.00    -0.040 A 
HETATM    2  C   UNL     1      64.376  -0.406  11.751  1.00  0.00    -0.035 A 
HETATM    3  C   UNL     1      62.276  -0.862  12.892  1.00  0.00     0.009 A 
HETATM    4  C   UNL     1      62.268  -0.277  10.550  1.00  0.00     0.009 A 
HETATM    5  C   UNL     1      63.663  -0.182  10.569  1.00  0.00     0.010 A 
HETATM    6  C   UNL     1      63.670  -0.763  12.908  1.00  0.00     0.010 A 
ENDROOT
BRANCH   1   7
HETATM    7  C   UNL     1      60.050  -0.653  11.711  1.00  0.00     0.167 C 
BRANCH   7   8
HETATM    8  N   UNL     1      59.489   0.158  12.777  1.00  0.00    -0.347 N 
HETATM    9  C   UNL     1      59.582   1.518  12.878  1.00  0.00     0.182 A 
HETATM   10  N   UNL     1      58.940   1.966  13.936  1.00  0.00    -0.361 N 
HETATM   11  C   UNL     1      58.404   0.854  14.533  1.00  0.00     0.106 A 
ATOM     12  HN  UNL     1      58.859   2.934  14.246  1.00  0.00     0.166 HD
HETATM   13  C   UNL     1      58.716  -0.281  13.816  1.00  0.00     0.109 A 
ENDBRANCH   7   8
ENDBRANCH   1   7
BRANCH   2  14
HETATM   14  C   UNL     1      65.873  -0.254  11.793  1.00  0.00     0.202 C 
BRANCH  14  15
HETATM   15  O   UNL     1      66.252   0.635  12.836  1.00  0.00    -0.396 OA
HETATM   16  H   UNL     1      67.162   0.441  13.112  1.00  0.00     0.209 HD
ENDBRANCH  14  15
ENDBRANCH   2  14
TORSDOF 4
ENDMDL
MODEL 8
REMARK VINA RESULT:      -4.0      3.672      4.330
REMARK  4 active torsions:
REMARK  status: ('A' for Active; 'I' for Inactive)
REMARK    1  A    between atoms: N_3  and  C_7 
REMARK    2  A    between atoms: C_7  and  C_8 
REMARK    3  A    between atoms: C_9  and  C_15 
REMARK    4  A    between atoms: O_14  and  C_15 
ROOT
HETATM    1  C   UNL     1      62.259   7.471   3.785  1.00  0.00    -0.040 A 
HETATM    2  C   UNL     1      62.002  10.245   3.317  1.00  0.00    -0.035 A 
HETATM    3  C   UNL     1      62.717   8.399   4.731  1.00  0.00     0.009 A 
HETATM    4  C   UNL     1      61.695   7.947   2.592  1.00  0.00     0.009 A 
HETATM    5  C   UNL     1      61.573   9.320   2.360  1.00  0.00     0.010 A 
HETATM    6  C   UNL     1      62.590   9.771   4.497  1.00  0.00     0.010 A 
ENDROOT
BRANCH   1   7
HETATM    7  C   UNL     1      62.337   5.990   4.063  1.00  0.00     0.167 C 
BRANCH   7   8
HETATM    8  N   UNL     1      61.444   5.600   5.140  1.00  0.00    -0.347 N 
HETATM    9  C   UNL     1      61.826   5.081   6.345  1.00  0.00     0.182 A 
HETATM   10  N   UNL     1      60.789   4.863   7.125  1.00  0.00    -0.361 N 
HETATM   11  C   UNL     1      59.698   5.266   6.398  1.00  0.00     0.106 A 
ATOM     12  HN  UNL     1      60.795   4.476   8.069  1.00  0.00     0.166 HD
HETATM   13  C   UNL     1      60.084   5.748   5.167  1.00  0.00     0.109 A 
ENDBRANCH   7   8
ENDBRANCH   1   7
BRANCH   2  14
HETATM   14  C   UNL     1      61.826  11.724   3.098  1.00  0.00     0.202 C 
BRANCH  14  15
HETATM   15  O   UNL     1      62.143  12.067   1.755  1.00  0.00    -0.396 OA
HETATM   16  H   UNL     1      62.970  12.575   1.737  1.00  0.00     0.209 HD
ENDBRANCH  14  15
ENDBRANCH   2  14
TORSDOF 4
ENDMDL
MODEL 9
REMARK VINA RESULT:      -3.9      2.052      2.645
REMARK  4 active torsions:
REMARK  status: ('A' for Active; 'I' for Inactive)
REMARK    1  A    between atoms: N_3  and  C_7 
REMARK    2  A    between atoms: C_7  and  C_8 
REMARK    3  A    between atoms: C_9  and  C_15 
REMARK    4  A    between atoms: O_14  and  C_15 
ROOT
HETATM    1  C   UNL     1      62.920   8.368   3.044  1.00  0.00    -0.040 A 
HETATM    2  C   UNL     1      64.865   7.876   5.032  1.00  0.00    -0.035 A 
HETATM    3  C   UNL     1      63.087   9.259   4.114  1.00  0.00     0.009 A 
HETATM    4  C   UNL     1      63.719   7.216   2.995  1.00  0.00     0.009 A 
HETATM    5  C   UNL     1      64.678   6.972   3.982  1.00  0.00     0.010 A 
HETATM    6  C   UNL     1      64.049   9.014   5.097  1.00  0.00     0.010 A 
ENDROOT
BRANCH   1   7
HETATM    7  C   UNL     1      61.926   8.664   1.947  1.00  0.00     0.167 C 
BRANCH   7   8
HETATM    8  N   UNL     1      60.750   7.818   2.050  1.00  0.00    -0.347 N 
HETATM    9  C   UNL     1      60.296   6.962   1.085  1.00  0.00     0.182 A 
HETATM   10  N   UNL     1      59.229   6.308   1.488  1.00  0.00    -0.361 N 
HETATM   11  C   UNL     1      58.991   6.751   2.764  1.00  0.00     0.106 A 
ATOM     12  HN  UNL     1      58.692   5.617   0.963  1.00  0.00     0.166 HD
HETATM   13  C   UNL     1      59.939   7.676   3.141  1.00  0.00     0.109 A 
ENDBRANCH   7   8
ENDBRANCH   1   7
BRANCH   2  14
HETATM   14  C   UNL     1      65.931   7.648   6.071  1.00  0.00     0.202 C 
BRANCH  14  15
HETATM   15  O   UNL     1      66.370   8.888   6.611  1.00  0.00    -0.396 OA
HETATM   16  H   UNL     1      65.619   9.349   7.016  1.00  0.00     0.209 HD
ENDBRANCH  14  15
ENDBRANCH   2  14
TORSDOF 4
ENDMDL
