MODEL 1
REMARK VINA RESULT:      -5.0      0.000      0.000
REMARK  3 active torsions:
REMARK  status: ('A' for Active; 'I' for Inactive)
REMARK    1  A    between atoms: N_3  and  C_7 
REMARK    2  A    between atoms: C_7  and  C_8 
REMARK    3  A    between atoms: C_9  and  N_10 
ROOT
HETATM    1  C   UNL     1      62.592   8.385   3.420  1.00  0.00    -0.040 A 
HETATM    2  C   UNL     1      61.869  10.899   2.345  1.00  0.00     0.025 A 
HETATM    3  C   UNL     1      62.116   9.809   1.508  1.00  0.00     0.029 A 
HETATM    4  C   UNL     1      62.030  10.731   3.722  1.00  0.00     0.029 A 
HETATM    5  C   UNL     1      62.452   8.559   2.037  1.00  0.00     0.011 A 
HETATM    6  C   UNL     1      62.369   9.485   4.259  1.00  0.00     0.011 A 
ENDROOT
BRANCH   1   7
HETATM    7  C   UNL     1      63.056   7.066   3.984  1.00  0.00     0.167 C 
BRANCH   7   8
HETATM    8  N   UNL     1      64.065   7.260   5.010  1.00  0.00    -0.347 N 
HETATM    9  C   UNL     1      63.935   6.943   6.332  1.00  0.00     0.182 A 
HETATM   10  N   UNL     1      65.027   7.226   7.005  1.00  0.00    -0.361 N 
HETATM   11  C   UNL     1      65.896   7.745   6.082  1.00  0.00     0.106 A 
ATOM     12  HN  UNL     1      65.193   7.088   8.002  1.00  0.00     0.166 HD
HETATM   13  C   UNL     1      65.329   7.756   4.830  1.00  0.00     0.109 A 
ENDBRANCH   7   8
ENDBRANCH   1   7
BRANCH   2  14
HETATM   14  N   UNL     1      61.710  12.179   1.805  1.00  0.00    -0.399 N 
HETATM   15  H   UNL     1      62.494  12.676   1.478  1.00  0.00     0.156 HD
HETATM   16  H   UNL     1      60.814  12.584   1.754  1.00  0.00     0.156 HD
ENDBRANCH   2  14
TORSDOF 3
ENDMDL
MODEL 2
REMARK VINA RESULT:      -5.0      1.343      1.693
REMARK  3 active torsions:
REMARK  status: ('A' for Active; 'I' for Inactive)
REMARK    1  A    between atoms: N_3  and  C_7 
REMARK    2  A    between atoms: C_7  and  C_8 
REMARK    3  A    between atoms: C_9  and  N_10 
ROOT
HETATM    1  C   UNL     1      63.261   8.515   4.813  1.00  0.00    -0.040 A 
HETATM    2  C   UNL     1      62.021  10.465   3.182  1.00  0.00     0.025 A 
HETATM    3  C   UNL     1      62.271   9.181   2.695  1.00  0.00     0.029 A 
HETATM    4  C   UNL     1      62.436  10.778   4.478  1.00  0.00     0.029 A 
HETATM    5  C   UNL     1      62.864   8.207   3.505  1.00  0.00     0.011 A 
HETATM    6  C   UNL     1      63.033   9.811   5.294  1.00  0.00     0.011 A 
ENDROOT
BRANCH   1   7
HETATM    7  C   UNL     1      63.993   7.499   5.651  1.00  0.00     0.167 C 
BRANCH   7   8
HETATM    8  N   UNL     1      65.431   7.632   5.500  1.00  0.00    -0.347 N 
HETATM    9  C   UNL     1      66.293   8.128   6.437  1.00  0.00     0.182 A 
HETATM   10  N   UNL     1      67.534   8.107   6.007  1.00  0.00    -0.361 N 
HETATM   11  C   UNL     1      67.472   7.578   4.746  1.00  0.00     0.106 A 
ATOM     12  HN  UNL     1      68.367   8.419   6.507  1.00  0.00     0.166 HD
HETATM   13  C   UNL     1      66.177   7.253   4.416  1.00  0.00     0.109 A 
ENDBRANCH   7   8
ENDBRANCH   1   7
BRANCH   2  14
HETATM   14  N   UNL     1      61.596  11.476   2.315  1.00  0.00    -0.399 N 
HETATM   15  H   UNL     1      61.793  11.415   1.353  1.00  0.00     0.156 HD
HETATM   16  H   UNL     1      61.100  12.251   2.668  1.00  0.00     0.156 HD
ENDBRANCH   2  14
TORSDOF 3
ENDMDL
MODEL 3
REMARK VINA RESULT:      -4.9      2.891      4.917
REMARK  3 active torsions:
REMARK  status: ('A' for Active; 'I' for Inactive)
REMARK    1  A    between atoms: N_3  and  C_7 
REMARK    2  A    between atoms: C_7  and  C_8 
REMARK    3  A    between atoms: C_9  and  N_10 
ROOT
HETATM    1  C   UNL     1      62.443   9.182   3.007  1.00  0.00    -0.040 A 
HETATM    2  C   UNL     1      63.077  10.717   5.295  1.00  0.00     0.025 A 
HETATM    3  C   UNL     1      63.584   9.426   5.139  1.00  0.00     0.029 A 
HETATM    4  C   UNL     1      62.214  11.216   4.317  1.00  0.00     0.029 A 
HETATM    5  C   UNL     1      63.291   8.671   3.998  1.00  0.00     0.011 A 
HETATM    6  C   UNL     1      61.913  10.467   3.175  1.00  0.00     0.011 A 
ENDROOT
BRANCH   1   7
HETATM    7  C   UNL     1      62.043   8.331   1.828  1.00  0.00     0.167 C 
BRANCH   7   8
HETATM    8  N   UNL     1      60.622   8.030   1.856  1.00  0.00    -0.347 N 
HETATM    9  C   UNL     1      59.729   8.288   0.855  1.00  0.00     0.182 A 
HETATM   10  N   UNL     1      58.520   7.888   1.174  1.00  0.00    -0.361 N 
HETATM   11  C   UNL     1      58.636   7.351   2.429  1.00  0.00     0.106 A 
ATOM     12  HN  UNL     1      57.674   7.961   0.609  1.00  0.00     0.166 HD
HETATM   13  C   UNL     1      59.938   7.407   2.865  1.00  0.00     0.109 A 
ENDBRANCH   7   8
ENDBRANCH   1   7
BRANCH   2  14
HETATM   14  N   UNL     1      63.227  11.390   6.512  1.00  0.00    -0.399 N 
HETATM   15  H   UNL     1      63.236  10.885   7.356  1.00  0.00     0.156 HD
HETATM   16  H   UNL     1      63.323  12.370   6.523  1.00  0.00     0.156 HD
ENDBRANCH   2  14
TORSDOF 3
ENDMDL
MODEL 4
REMARK VINA RESULT:      -4.8      1.500      2.252
REMARK  3 active torsions:
REMARK  status: ('A' for Active; 'I' for Inactive)
REMARK    1  A    between atoms: N_3  and  C_7 
REMARK    2  A    between atoms: C_7  and  C_8 
REMARK    3  A    between atoms: C_9  and  N_10 
ROOT
HETATM    1  C   UNL     1      63.439   8.379   4.496  1.00  0.00    -0.040 A 
HETATM    2  C   UNL     1      62.086  10.368   3.008  1.00  0.00     0.025 A 
HETATM    3  C   UNL     1      62.413  10.578   4.349  1.00  0.00     0.029 A 
HETATM    4  C   UNL     1      62.403   9.136   2.431  1.00  0.00     0.029 A 
HETATM    5  C   UNL     1      63.101   9.606   5.082  1.00  0.00     0.011 A 
HETATM    6  C   UNL     1      63.088   8.157   3.158  1.00  0.00     0.011 A 
ENDROOT
BRANCH   1   7
HETATM    7  C   UNL     1      64.087   7.291   5.314  1.00  0.00     0.167 C 
BRANCH   7   8
HETATM    8  N   UNL     1      65.529   7.292   5.139  1.00  0.00    -0.347 N 
HETATM    9  C   UNL     1      66.225   6.554   4.224  1.00  0.00     0.182 A 
HETATM   10  N   UNL     1      67.516   6.783   4.303  1.00  0.00    -0.361 N 
HETATM   11  C   UNL     1      67.659   7.703   5.307  1.00  0.00     0.106 A 
ATOM     12  HN  UNL     1      68.255   6.364   3.738  1.00  0.00     0.166 HD
HETATM   13  C   UNL     1      66.435   8.053   5.827  1.00  0.00     0.109 A 
ENDBRANCH   7   8
ENDBRANCH   1   7
BRANCH   2  14
HETATM   14  N   UNL     1      61.246  11.264   2.340  1.00  0.00    -0.399 N 
HETATM   15  H   UNL     1      60.778  11.969   2.843  1.00  0.00     0.156 HD
HETATM   16  H   UNL     1      61.123  11.189   1.366  1.00  0.00     0.156 HD
ENDBRANCH   2  14
TORSDOF 3
ENDMDL
MODEL 5
REMARK VINA RESULT:      -4.6      1.717      5.099
REMARK  3 active torsions:
REMARK  status: ('A' for Active; 'I' for Inactive)
REMARK    1  A    between atoms: N_3  and  C_7 
REMARK    2  A    between atoms: C_7  and  C_8 
REMARK    3  A    between atoms: C_9  and  N_10 
ROOT
HETATM    1  C   UNL     1      63.778   7.830   4.289  1.00  0.00    -0.040 A 
HETATM    2  C   UNL     1      66.461   6.938   4.365  1.00  0.00     0.025 A 
HETATM    3  C   UNL     1      65.510   6.276   3.585  1.00  0.00     0.029 A 
HETATM    4  C   UNL     1      66.047   8.023   5.140  1.00  0.00     0.029 A 
HETATM    5  C   UNL     1      64.188   6.727   3.527  1.00  0.00     0.011 A 
HETATM    6  C   UNL     1      64.725   8.479   5.091  1.00  0.00     0.011 A 
ENDROOT
BRANCH   1   7
HETATM    7  C   UNL     1      62.331   8.253   4.308  1.00  0.00     0.167 C 
BRANCH   7   8
HETATM    8  N   UNL     1      62.114   9.417   3.467  1.00  0.00    -0.347 N 
HETATM    9  C   UNL     1      61.919  10.696   3.905  1.00  0.00     0.182 A 
HETATM   10  N   UNL     1      61.764  11.530   2.902  1.00  0.00    -0.361 N 
HETATM   11  C   UNL     1      61.862  10.760   1.774  1.00  0.00     0.106 A 
ATOM     12  HN  UNL     1      61.604  12.536   2.953  1.00  0.00     0.166 HD
HETATM   13  C   UNL     1      62.102   9.446   2.098  1.00  0.00     0.109 A 
ENDBRANCH   7   8
ENDBRANCH   1   7
BRANCH   2  14
HETATM   14  N   UNL     1      67.728   6.378   4.556  1.00  0.00    -0.399 N 
HETATM   15  H   UNL     1      68.535   6.907   4.361  1.00  0.00     0.156 HD
HETATM   16  H   UNL     1      67.812   5.453   4.884  1.00  0.00     0.156 HD
ENDBRANCH   2  14
TORSDOF 3
ENDMDL
MODEL 6
REMARK VINA RESULT:      -4.5      1.915      2.691
REMARK  3 active torsions:
REMARK  status: ('A' for Active; 'I' for Inactive)
REMARK    1  A    between atoms: N_3  and  C_7 
REMARK    2  A    between atoms: C_7  and  C_8 
REMARK    3  A    between atoms: C_9  and  N_10 
ROOT
HETATM    1  C   UNL     1      62.408   8.391   3.420  1.00  0.00    -0.040 A 
HETATM    2  C   UNL     1      61.838  10.941   2.338  1.00  0.00     0.025 A 
HETATM    3  C   UNL     1      61.960   9.824   1.509  1.00  0.00     0.029 A 
HETATM    4  C   UNL     1      62.048  10.778   3.709  1.00  0.00     0.029 A 
HETATM    5  C   UNL     1      62.219   8.558   2.042  1.00  0.00     0.011 A 
HETATM    6  C   UNL     1      62.312   9.515   4.250  1.00  0.00     0.011 A 
ENDROOT
BRANCH   1   7
HETATM    7  C   UNL     1      62.790   7.046   3.984  1.00  0.00     0.167 C 
BRANCH   7   8
HETATM    8  N   UNL     1      61.785   6.562   4.913  1.00  0.00    -0.347 N 
HETATM    9  C   UNL     1      61.958   6.379   6.256  1.00  0.00     0.182 A 
HETATM   10  N   UNL     1      60.859   5.942   6.827  1.00  0.00    -0.361 N 
HETATM   11  C   UNL     1      59.941   5.839   5.816  1.00  0.00     0.106 A 
ATOM     12  HN  UNL     1      60.718   5.726   7.814  1.00  0.00     0.166 HD
HETATM   13  C   UNL     1      60.487   6.241   4.619  1.00  0.00     0.109 A 
ENDBRANCH   7   8
ENDBRANCH   1   7
BRANCH   2  14
HETATM   14  N   UNL     1      61.758  12.223   1.785  1.00  0.00    -0.399 N 
HETATM   15  H   UNL     1      61.835  12.345   0.811  1.00  0.00     0.156 HD
HETATM   16  H   UNL     1      61.626  13.004   2.371  1.00  0.00     0.156 HD
ENDBRANCH   2  14
TORSDOF 3
ENDMDL
MODEL 7
REMARK VINA RESULT:      -4.5      1.625      2.339
REMARK  3 active torsions:
REMARK  status: ('A' for Active; 'I' for Inactive)
REMARK    1  A    between atoms: N_3  and  C_7 
REMARK    2  A    between atoms: C_7  and  C_8 
REMARK    3  A    between atoms: C_9  and  N_10 
ROOT
HETATM    1  C   UNL     1      63.184   8.839   4.637  1.00  0.00    -0.040 A 
HETATM    2  C   UNL     1      61.927  10.714   2.932  1.00  0.00     0.025 A 
HETATM    3  C   UNL     1      62.285   9.449   2.462  1.00  0.00     0.029 A 
HETATM    4  C   UNL     1      62.244  11.048   4.251  1.00  0.00     0.029 A 
HETATM    5  C   UNL     1      62.886   8.511   3.308  1.00  0.00     0.011 A 
HETATM    6  C   UNL     1      62.849  10.117   5.103  1.00  0.00     0.011 A 
ENDROOT
BRANCH   1   7
HETATM    7  C   UNL     1      63.925   7.867   5.519  1.00  0.00     0.167 C 
BRANCH   7   8
HETATM    8  N   UNL     1      63.134   6.676   5.768  1.00  0.00    -0.347 N 
HETATM    9  C   UNL     1      63.498   5.394   5.467  1.00  0.00     0.182 A 
HETATM   10  N   UNL     1      62.573   4.533   5.827  1.00  0.00    -0.361 N 
HETATM   11  C   UNL     1      61.574   5.287   6.382  1.00  0.00     0.106 A 
ATOM     12  HN  UNL     1      62.595   3.520   5.716  1.00  0.00     0.166 HD
HETATM   13  C   UNL     1      61.909   6.621   6.377  1.00  0.00     0.109 A 
ENDBRANCH   7   8
ENDBRANCH   1   7
BRANCH   2  14
HETATM   14  N   UNL     1      61.494  11.699   2.041  1.00  0.00    -0.399 N 
HETATM   15  H   UNL     1      61.463  11.511   1.075  1.00  0.00     0.156 HD
HETATM   16  H   UNL     1      61.221  12.583   2.379  1.00  0.00     0.156 HD
ENDBRANCH   2  14
TORSDOF 3
ENDMDL
MODEL 8
REMARK VINA RESULT:      -4.1      3.133      4.216
REMARK  3 active torsions:
REMARK  status: ('A' for Active; 'I' for Inactive)
REMARK    1  A    between atoms: N_3  and  C_7 
REMARK    2  A    between atoms: C_7  and  C_8 
REMARK    3  A    between atoms: C_9  and  N_10 
ROOT
HETATM    1  C   UNL     1      61.055   8.250   2.201  1.00  0.00    -0.040 A 
HETATM    2  C   UNL     1      58.391   7.337   1.944  1.00  0.00     0.025 A 
HETATM    3  C   UNL     1      59.063   7.894   0.855  1.00  0.00     0.029 A 
HETATM    4  C   UNL     1      59.049   7.281   3.174  1.00  0.00     0.029 A 
HETATM    5  C   UNL     1      60.388   8.327   0.972  1.00  0.00     0.011 A 
HETATM    6  C   UNL     1      60.373   7.715   3.302  1.00  0.00     0.011 A 
ENDROOT
BRANCH   1   7
HETATM    7  C   UNL     1      62.446   8.811   2.354  1.00  0.00     0.167 C 
BRANCH   7   8
HETATM    8  N   UNL     1      62.510   9.763   3.449  1.00  0.00    -0.347 N 
HETATM    9  C   UNL     1      61.995  11.028   3.442  1.00  0.00     0.182 A 
HETATM   10  N   UNL     1      62.203  11.639   4.587  1.00  0.00    -0.361 N 
HETATM   11  C   UNL     1      62.877  10.734   5.362  1.00  0.00     0.106 A 
ATOM     12  HN  UNL     1      61.921  12.585   4.843  1.00  0.00     0.166 HD
HETATM   13  C   UNL     1      63.061   9.551   4.685  1.00  0.00     0.109 A 
ENDBRANCH   7   8
ENDBRANCH   1   7
BRANCH   2  14
HETATM   14  N   UNL     1      57.020   7.075   1.866  1.00  0.00    -0.399 N 
HETATM   15  H   UNL     1      56.585   6.981   0.988  1.00  0.00     0.156 HD
HETATM   16  H   UNL     1      56.488   6.985   2.691  1.00  0.00     0.156 HD
ENDBRANCH   2  14
TORSDOF 3
ENDMDL
MODEL 9
REMARK VINA RESULT:      -3.8     12.269     13.111
REMARK  3 active torsions:
REMARK  status: ('A' for Active; 'I' for Inactive)
REMARK    1  A    between atoms: N_3  and  C_7 
REMARK    2  A    between atoms: C_7  and  C_8 
REMARK    3  A    between atoms: C_9  and  N_10 
ROOT
HETATM    1  C   UNL     1      60.405  -0.617  12.805  1.00  0.00    -0.040 A 
HETATM    2  C   UNL     1      58.501   1.073  14.037  1.00  0.00     0.025 A 
HETATM    3  C   UNL     1      58.497  -0.302  14.278  1.00  0.00     0.029 A 
HETATM    4  C   UNL     1      59.439   1.588  13.139  1.00  0.00     0.029 A 
HETATM    5  C   UNL     1      59.451  -1.138  13.689  1.00  0.00     0.011 A 
HETATM    6  C   UNL     1      60.394   0.758  12.542  1.00  0.00     0.011 A 
ENDROOT
BRANCH   1   7
HETATM    7  C   UNL     1      61.366  -1.532  12.089  1.00  0.00     0.167 C 
BRANCH   7   8
HETATM    8  N   UNL     1      62.731  -1.048  12.200  1.00  0.00    -0.347 N 
HETATM    9  C   UNL     1      63.472  -0.997  13.347  1.00  0.00     0.182 A 
HETATM   10  N   UNL     1      64.676  -0.523  13.121  1.00  0.00    -0.361 N 
HETATM   11  C   UNL     1      64.714  -0.257  11.778  1.00  0.00     0.106 A 
ATOM     12  HN  UNL     1      65.423  -0.382  13.801  1.00  0.00     0.166 HD
HETATM   13  C   UNL     1      63.524  -0.597  11.179  1.00  0.00     0.109 A 
ENDBRANCH   7   8
ENDBRANCH   1   7
BRANCH   2  14
HETATM   14  N   UNL     1      57.443   1.869  14.484  1.00  0.00    -0.399 N 
HETATM   15  H   UNL     1      57.345   2.065  15.444  1.00  0.00     0.156 HD
HETATM   16  H   UNL     1      56.794   2.233  13.839  1.00  0.00     0.156 HD
ENDBRANCH   2  14
TORSDOF 3
ENDMDL
