MODEL 1
REMARK VINA RESULT:      -5.1      0.000      0.000
REMARK  3 active torsions:
REMARK  status: ('A' for Active; 'I' for Inactive)
REMARK    1  A    between atoms: C_1  and  N_2 
REMARK    2  A    between atoms: C_7  and  C_14 
REMARK    3  A    between atoms: O_11  and  C_14 
ROOT
HETATM    1  C   UNL     1      63.059   8.165   3.479  1.00  0.00     0.103 A 
HETATM    2  N   UNL     1      62.922   7.320   2.443  1.00  0.00    -0.352 N 
ATOM      3  HN  UNL     1      63.244   6.355   2.503  1.00  0.00     0.166 HD
HETATM    4  C   UNL     1      62.648   9.499   3.388  1.00  0.00     0.057 A 
HETATM    5  C   UNL     1      62.085   9.990   2.211  1.00  0.00    -0.030 A 
HETATM    6  C   UNL     1      62.340   7.798   1.316  1.00  0.00     0.090 A 
HETATM    7  C   UNL     1      61.915   9.105   1.153  1.00  0.00     0.026 A 
ENDROOT
BRANCH   1   8
HETATM    8  N   UNL     1      63.694   7.774   4.641  1.00  0.00    -0.363 N 
HETATM    9  C   UNL     1      62.932   7.110   5.699  1.00  0.00     0.150 C 
HETATM   10  C   UNL     1      63.946   6.269   6.507  1.00  0.00     0.187 C 
HETATM   11  O   UNL     1      65.020   7.078   7.032  1.00  0.00    -0.388 OA
HETATM   12  C   UNL     1      65.705   7.779   5.978  1.00  0.00     0.187 C 
HETATM   13  C   UNL     1      64.735   8.660   5.177  1.00  0.00     0.150 C 
ENDBRANCH   1   8
BRANCH   5  14
HETATM   14  C   UNL     1      61.712  11.442   2.104  1.00  0.00     0.203 C 
BRANCH  14  15
HETATM   15  O   UNL     1      61.830  12.070   3.373  1.00  0.00    -0.396 OA
HETATM   16  H   UNL     1      62.375  11.520   3.956  1.00  0.00     0.209 HD
ENDBRANCH  14  15
ENDBRANCH   5  14
TORSDOF 3
ENDMDL
MODEL 2
REMARK VINA RESULT:      -5.1      2.251      2.998
REMARK  3 active torsions:
REMARK  status: ('A' for Active; 'I' for Inactive)
REMARK    1  A    between atoms: C_1  and  N_2 
REMARK    2  A    between atoms: C_7  and  C_14 
REMARK    3  A    between atoms: O_11  and  C_14 
ROOT
HETATM    1  C   UNL     1      64.466   8.003   4.564  1.00  0.00     0.103 A 
HETATM    2  N   UNL     1      63.691   7.737   3.499  1.00  0.00    -0.352 N 
ATOM      3  HN  UNL     1      63.860   6.920   2.913  1.00  0.00     0.166 HD
HETATM    4  C   UNL     1      64.256   9.142   5.349  1.00  0.00     0.057 A 
HETATM    5  C   UNL     1      63.233  10.037   5.043  1.00  0.00    -0.030 A 
HETATM    6  C   UNL     1      62.677   8.595   3.231  1.00  0.00     0.090 A 
HETATM    7  C   UNL     1      62.413   9.742   3.960  1.00  0.00     0.026 A 
ENDROOT
BRANCH   1   8
HETATM    8  N   UNL     1      65.556   7.212   4.870  1.00  0.00    -0.363 N 
HETATM    9  C   UNL     1      66.562   7.696   5.817  1.00  0.00     0.150 C 
HETATM   10  C   UNL     1      67.238   6.441   6.414  1.00  0.00     0.187 C 
HETATM   11  O   UNL     1      67.811   5.599   5.391  1.00  0.00    -0.388 OA
HETATM   12  C   UNL     1      66.816   5.200   4.430  1.00  0.00     0.187 C 
HETATM   13  C   UNL     1      66.149   6.423   3.783  1.00  0.00     0.150 C 
ENDBRANCH   1   8
BRANCH   5  14
HETATM   14  C   UNL     1      63.063  11.291   5.853  1.00  0.00     0.203 C 
BRANCH  14  15
HETATM   15  O   UNL     1      64.291  11.637   6.478  1.00  0.00    -0.396 OA
HETATM   16  H   UNL     1      64.112  12.032   7.345  1.00  0.00     0.209 HD
ENDBRANCH  14  15
ENDBRANCH   5  14
TORSDOF 3
ENDMDL
MODEL 3
REMARK VINA RESULT:      -5.0      1.904      2.941
REMARK  3 active torsions:
REMARK  status: ('A' for Active; 'I' for Inactive)
REMARK    1  A    between atoms: C_1  and  N_2 
REMARK    2  A    between atoms: C_7  and  C_14 
REMARK    3  A    between atoms: O_11  and  C_14 
ROOT
HETATM    1  C   UNL     1      64.182   8.883   5.106  1.00  0.00     0.103 A 
HETATM    2  N   UNL     1      63.795  10.011   5.725  1.00  0.00    -0.352 N 
ATOM      3  HN  UNL     1      64.235  10.315   6.593  1.00  0.00     0.166 HD
HETATM    4  C   UNL     1      63.555   8.447   3.933  1.00  0.00     0.057 A 
HETATM    5  C   UNL     1      62.507   9.176   3.375  1.00  0.00    -0.030 A 
HETATM    6  C   UNL     1      62.799  10.731   5.155  1.00  0.00     0.090 A 
HETATM    7  C   UNL     1      62.132  10.359   4.000  1.00  0.00     0.026 A 
ENDROOT
BRANCH   1   8
HETATM    8  N   UNL     1      65.148   8.062   5.653  1.00  0.00    -0.363 N 
HETATM    9  C   UNL     1      66.335   7.715   4.870  1.00  0.00     0.150 C 
HETATM   10  C   UNL     1      67.444   7.371   5.890  1.00  0.00     0.187 C 
HETATM   11  O   UNL     1      67.047   6.308   6.782  1.00  0.00    -0.388 OA
HETATM   12  C   UNL     1      65.836   6.645   7.482  1.00  0.00     0.187 C 
HETATM   13  C   UNL     1      64.695   6.952   6.501  1.00  0.00     0.150 C 
ENDBRANCH   1   8
BRANCH   5  14
HETATM   14  C   UNL     1      61.798   8.660   2.154  1.00  0.00     0.203 C 
BRANCH  14  15
HETATM   15  O   UNL     1      60.854   9.618   1.698  1.00  0.00    -0.396 OA
HETATM   16  H   UNL     1      61.012   9.806   0.760  1.00  0.00     0.209 HD
ENDBRANCH  14  15
ENDBRANCH   5  14
TORSDOF 3
ENDMDL
MODEL 4
REMARK VINA RESULT:      -4.8      1.607      2.166
REMARK  3 active torsions:
REMARK  status: ('A' for Active; 'I' for Inactive)
REMARK    1  A    between atoms: C_1  and  N_2 
REMARK    2  A    between atoms: C_7  and  C_14 
REMARK    3  A    between atoms: O_11  and  C_14 
ROOT
HETATM    1  C   UNL     1      63.358   8.004   5.007  1.00  0.00     0.103 A 
HETATM    2  N   UNL     1      62.533   7.046   4.549  1.00  0.00    -0.352 N 
ATOM      3  HN  UNL     1      62.701   6.062   4.756  1.00  0.00     0.166 HD
HETATM    4  C   UNL     1      63.148   9.352   4.696  1.00  0.00     0.057 A 
HETATM    5  C   UNL     1      62.074   9.738   3.897  1.00  0.00    -0.030 A 
HETATM    6  C   UNL     1      61.471   7.435   3.804  1.00  0.00     0.090 A 
HETATM    7  C   UNL     1      61.204   8.748   3.453  1.00  0.00     0.026 A 
ENDROOT
BRANCH   1   8
HETATM    8  N   UNL     1      64.495   7.687   5.722  1.00  0.00    -0.363 N 
HETATM    9  C   UNL     1      65.811   8.054   5.197  1.00  0.00     0.150 C 
HETATM   10  C   UNL     1      66.754   8.161   6.417  1.00  0.00     0.187 C 
HETATM   11  O   UNL     1      66.792   6.935   7.178  1.00  0.00    -0.388 OA
HETATM   12  C   UNL     1      65.475   6.556   7.617  1.00  0.00     0.187 C 
HETATM   13  C   UNL     1      64.517   6.399   6.427  1.00  0.00     0.150 C 
ENDBRANCH   1   8
BRANCH   5  14
HETATM   14  C   UNL     1      61.900  11.181   3.514  1.00  0.00     0.203 C 
BRANCH  14  15
HETATM   15  O   UNL     1      62.128  12.014   4.642  1.00  0.00    -0.396 OA
HETATM   16  H   UNL     1      61.842  11.555   5.446  1.00  0.00     0.209 HD
ENDBRANCH  14  15
ENDBRANCH   5  14
TORSDOF 3
ENDMDL
MODEL 5
REMARK VINA RESULT:      -4.4     11.657     13.762
REMARK  3 active torsions:
REMARK  status: ('A' for Active; 'I' for Inactive)
REMARK    1  A    between atoms: C_1  and  N_2 
REMARK    2  A    between atoms: C_7  and  C_14 
REMARK    3  A    between atoms: O_11  and  C_14 
ROOT
HETATM    1  C   UNL     1      56.264   2.313  13.419  1.00  0.00     0.103 A 
HETATM    2  N   UNL     1      57.106   1.827  14.347  1.00  0.00    -0.352 N 
ATOM      3  HN  UNL     1      56.779   1.587  15.282  1.00  0.00     0.166 HD
HETATM    4  C   UNL     1      56.716   2.675  12.145  1.00  0.00     0.057 A 
HETATM    5  C   UNL     1      58.061   2.542  11.805  1.00  0.00    -0.030 A 
HETATM    6  C   UNL     1      58.404   1.668  13.994  1.00  0.00     0.090 A 
HETATM    7  C   UNL     1      58.923   2.008  12.756  1.00  0.00     0.026 A 
ENDROOT
BRANCH   1   8
HETATM    8  N   UNL     1      54.938   2.562  13.716  1.00  0.00    -0.363 N 
HETATM    9  C   UNL     1      54.472   3.942  13.861  1.00  0.00     0.150 C 
HETATM   10  C   UNL     1      52.958   3.925  13.553  1.00  0.00     0.187 C 
HETATM   11  O   UNL     1      52.242   3.013  14.414  1.00  0.00    -0.388 OA
HETATM   12  C   UNL     1      52.771   1.679  14.308  1.00  0.00     0.187 C 
HETATM   13  C   UNL     1      54.268   1.647  14.648  1.00  0.00     0.150 C 
ENDBRANCH   1   8
BRANCH   5  14
HETATM   14  C   UNL     1      58.545   2.998  10.458  1.00  0.00     0.203 C 
BRANCH  14  15
HETATM   15  O   UNL     1      58.634   4.416  10.427  1.00  0.00    -0.396 OA
HETATM   16  H   UNL     1      57.742   4.796  10.440  1.00  0.00     0.209 HD
ENDBRANCH  14  15
ENDBRANCH   5  14
TORSDOF 3
ENDMDL
MODEL 6
REMARK VINA RESULT:      -4.4      2.125      5.658
REMARK  3 active torsions:
REMARK  status: ('A' for Active; 'I' for Inactive)
REMARK    1  A    between atoms: C_1  and  N_2 
REMARK    2  A    between atoms: C_7  and  C_14 
REMARK    3  A    between atoms: O_11  and  C_14 
ROOT
HETATM    1  C   UNL     1      64.926   8.188   4.983  1.00  0.00     0.103 A 
HETATM    2  N   UNL     1      65.559   8.654   6.073  1.00  0.00    -0.352 N 
ATOM      3  HN  UNL     1      65.221   9.478   6.568  1.00  0.00     0.166 HD
HETATM    4  C   UNL     1      65.408   7.077   4.282  1.00  0.00     0.057 A 
HETATM    5  C   UNL     1      66.565   6.422   4.698  1.00  0.00    -0.030 A 
HETATM    6  C   UNL     1      66.663   7.988   6.490  1.00  0.00     0.090 A 
HETATM    7  C   UNL     1      67.199   6.886   5.845  1.00  0.00     0.026 A 
ENDROOT
BRANCH   1   8
HETATM    8  N   UNL     1      63.830   8.843   4.458  1.00  0.00    -0.363 N 
HETATM    9  C   UNL     1      63.019   9.708   5.317  1.00  0.00     0.150 C 
HETATM   10  C   UNL     1      62.335  10.732   4.384  1.00  0.00     0.187 C 
HETATM   11  O   UNL     1      61.548  10.087   3.360  1.00  0.00    -0.388 OA
HETATM   12  C   UNL     1      62.353   9.185   2.579  1.00  0.00     0.187 C 
HETATM   13  C   UNL     1      63.018   8.125   3.467  1.00  0.00     0.150 C 
ENDBRANCH   1   8
BRANCH   5  14
HETATM   14  C   UNL     1      67.109   5.273   3.897  1.00  0.00     0.203 C 
BRANCH  14  15
HETATM   15  O   UNL     1      67.517   4.225   4.764  1.00  0.00    -0.396 OA
HETATM   16  H   UNL     1      67.677   4.583   5.651  1.00  0.00     0.209 HD
ENDBRANCH  14  15
ENDBRANCH   5  14
TORSDOF 3
ENDMDL
MODEL 7
REMARK VINA RESULT:      -4.3      2.698      5.155
REMARK  3 active torsions:
REMARK  status: ('A' for Active; 'I' for Inactive)
REMARK    1  A    between atoms: C_1  and  N_2 
REMARK    2  A    between atoms: C_7  and  C_14 
REMARK    3  A    between atoms: O_11  and  C_14 
ROOT
HETATM    1  C   UNL     1      61.608   8.719   3.313  1.00  0.00     0.103 A 
HETATM    2  N   UNL     1      61.402  10.035   3.498  1.00  0.00    -0.352 N 
ATOM      3  HN  UNL     1      60.662  10.528   2.999  1.00  0.00     0.166 HD
HETATM    4  C   UNL     1      62.644   8.047   3.970  1.00  0.00     0.057 A 
HETATM    5  C   UNL     1      63.496   8.729   4.837  1.00  0.00    -0.030 A 
HETATM    6  C   UNL     1      62.212  10.680   4.370  1.00  0.00     0.090 A 
HETATM    7  C   UNL     1      63.259  10.082   5.051  1.00  0.00     0.026 A 
ENDROOT
BRANCH   1   8
HETATM    8  N   UNL     1      60.865   8.001   2.397  1.00  0.00    -0.363 N 
HETATM    9  C   UNL     1      60.896   6.538   2.423  1.00  0.00     0.150 C 
HETATM   10  C   UNL     1      59.572   6.062   1.783  1.00  0.00     0.187 C 
HETATM   11  O   UNL     1      59.402   6.582   0.447  1.00  0.00    -0.388 OA
HETATM   12  C   UNL     1      59.451   8.020   0.440  1.00  0.00     0.187 C 
HETATM   13  C   UNL     1      60.773   8.532   1.031  1.00  0.00     0.150 C 
ENDBRANCH   1   8
BRANCH   5  14
HETATM   14  C   UNL     1      64.646   8.009   5.482  1.00  0.00     0.203 C 
BRANCH  14  15
HETATM   15  O   UNL     1      65.831   8.785   5.368  1.00  0.00    -0.396 OA
HETATM   16  H   UNL     1      65.668   9.676   5.712  1.00  0.00     0.209 HD
ENDBRANCH  14  15
ENDBRANCH   5  14
TORSDOF 3
ENDMDL
MODEL 8
REMARK VINA RESULT:      -4.2      2.029      5.943
REMARK  3 active torsions:
REMARK  status: ('A' for Active; 'I' for Inactive)
REMARK    1  A    between atoms: C_1  and  N_2 
REMARK    2  A    between atoms: C_7  and  C_14 
REMARK    3  A    between atoms: O_11  and  C_14 
ROOT
HETATM    1  C   UNL     1      64.493   7.883   5.767  1.00  0.00     0.103 A 
HETATM    2  N   UNL     1      65.578   8.671   5.860  1.00  0.00    -0.352 N 
ATOM      3  HN  UNL     1      65.592   9.601   5.442  1.00  0.00     0.166 HD
HETATM    4  C   UNL     1      64.483   6.594   6.310  1.00  0.00     0.057 A 
HETATM    5  C   UNL     1      65.606   6.090   6.964  1.00  0.00    -0.030 A 
HETATM    6  C   UNL     1      66.651   8.185   6.529  1.00  0.00     0.090 A 
HETATM    7  C   UNL     1      66.714   6.920   7.087  1.00  0.00     0.026 A 
ENDROOT
BRANCH   1   8
HETATM    8  N   UNL     1      63.381   8.279   5.051  1.00  0.00    -0.363 N 
HETATM    9  C   UNL     1      62.992   9.690   5.033  1.00  0.00     0.150 C 
HETATM   10  C   UNL     1      62.188   9.905   3.731  1.00  0.00     0.187 C 
HETATM   11  O   UNL     1      61.049   9.023   3.648  1.00  0.00    -0.388 OA
HETATM   12  C   UNL     1      61.452   7.645   3.745  1.00  0.00     0.187 C 
HETATM   13  C   UNL     1      62.219   7.381   5.049  1.00  0.00     0.150 C 
ENDBRANCH   1   8
BRANCH   5  14
HETATM   14  C   UNL     1      65.605   4.679   7.482  1.00  0.00     0.203 C 
BRANCH  14  15
HETATM   15  O   UNL     1      66.193   4.635   8.774  1.00  0.00    -0.396 OA
HETATM   16  H   UNL     1      66.259   5.535   9.130  1.00  0.00     0.209 HD
ENDBRANCH  14  15
ENDBRANCH   5  14
TORSDOF 3
ENDMDL
MODEL 9
REMARK VINA RESULT:      -4.2      2.504      3.477
REMARK  3 active torsions:
REMARK  status: ('A' for Active; 'I' for Inactive)
REMARK    1  A    between atoms: C_1  and  N_2 
REMARK    2  A    between atoms: C_7  and  C_14 
REMARK    3  A    between atoms: O_11  and  C_14 
ROOT
HETATM    1  C   UNL     1      64.897   7.915   5.125  1.00  0.00     0.103 A 
HETATM    2  N   UNL     1      64.409   9.034   5.687  1.00  0.00    -0.352 N 
ATOM      3  HN  UNL     1      64.812   9.414   6.543  1.00  0.00     0.166 HD
HETATM    4  C   UNL     1      64.324   7.374   3.969  1.00  0.00     0.057 A 
HETATM    5  C   UNL     1      63.224   7.984   3.369  1.00  0.00    -0.030 A 
HETATM    6  C   UNL     1      63.363   9.640   5.075  1.00  0.00     0.090 A 
HETATM    7  C   UNL     1      62.743   9.159   3.934  1.00  0.00     0.026 A 
ENDROOT
BRANCH   1   8
HETATM    8  N   UNL     1      65.922   7.205   5.718  1.00  0.00    -0.363 N 
HETATM    9  C   UNL     1      66.575   7.735   6.916  1.00  0.00     0.150 C 
HETATM   10  C   UNL     1      67.163   6.519   7.667  1.00  0.00     0.187 C 
HETATM   11  O   UNL     1      68.071   5.761   6.839  1.00  0.00    -0.388 OA
HETATM   12  C   UNL     1      67.425   5.317   5.632  1.00  0.00     0.187 C 
HETATM   13  C   UNL     1      66.862   6.504   4.835  1.00  0.00     0.150 C 
ENDBRANCH   1   8
BRANCH   5  14
HETATM   14  C   UNL     1      62.576   7.353   2.168  1.00  0.00     0.203 C 
BRANCH  14  15
HETATM   15  O   UNL     1      61.198   7.123   2.424  1.00  0.00    -0.396 OA
HETATM   16  H   UNL     1      60.671   7.820   2.005  1.00  0.00     0.209 HD
ENDBRANCH  14  15
ENDBRANCH   5  14
TORSDOF 3
ENDMDL
