MODEL 1
REMARK VINA RESULT:      -4.8      0.000      0.000
REMARK  2 active torsions:
REMARK  status: ('A' for Active; 'I' for Inactive)
REMARK    1  A    between atoms: C_5  and  C_11 
REMARK    2  A    between atoms: C_11  and  O_13 
ROOT
HETATM    1  C   UNL     1      62.616   9.868   3.717  1.00  0.00     0.018 A 
HETATM    2  N   UNL     1      63.435   7.763   3.932  1.00  0.00    -0.298 N 
ATOM      3  HN  UNL     1      63.726   6.801   3.761  1.00  0.00     0.187 HD
HETATM    4  N   UNL     1      63.565   8.470   5.076  1.00  0.00    -0.297 N 
HETATM    5  C   UNL     1      63.084   9.758   5.005  1.00  0.00     0.064 A 
HETATM    6  C   UNL     1      62.841   8.599   3.068  1.00  0.00     0.060 A 
HETATM    7  C   UNL     1      62.023  10.994   3.147  1.00  0.00     0.016 A 
HETATM    8  C   UNL     1      62.454   8.389   1.737  1.00  0.00     0.032 A 
HETATM    9  C   UNL     1      61.640  10.753   1.810  1.00  0.00     0.001 A 
HETATM   10  C   UNL     1      61.844   9.511   1.135  1.00  0.00     0.002 A 
HETATM   11  C   UNL     1      64.146   7.790   6.212  1.00  0.00     0.177 C 
ENDROOT
BRANCH   5  12
HETATM   12  C   UNL     1      63.119  10.715   6.131  1.00  0.00     0.223 C 
BRANCH  12  13
HETATM   13  O   UNL     1      64.428  11.262   6.175  1.00  0.00    -0.395 OA
HETATM   14  H   UNL     1      64.494  11.884   6.916  1.00  0.00     0.209 HD
ENDBRANCH  12  13
ENDBRANCH   5  12
TORSDOF 2
ENDMDL
MODEL 2
REMARK VINA RESULT:      -4.7      1.713      2.315
REMARK  2 active torsions:
REMARK  status: ('A' for Active; 'I' for Inactive)
REMARK    1  A    between atoms: C_5  and  C_11 
REMARK    2  A    between atoms: C_11  and  O_13 
ROOT
HETATM    1  C   UNL     1      62.824   9.204   4.008  1.00  0.00     0.018 A 
HETATM    2  N   UNL     1      62.879   7.695   2.315  1.00  0.00    -0.298 N 
ATOM      3  HN  UNL     1      62.800   7.231   1.410  1.00  0.00     0.187 HD
HETATM    4  N   UNL     1      63.358   7.173   3.466  1.00  0.00    -0.297 N 
HETATM    5  C   UNL     1      63.349   8.045   4.531  1.00  0.00     0.064 A 
HETATM    6  C   UNL     1      62.530   8.953   2.618  1.00  0.00     0.060 A 
HETATM    7  C   UNL     1      62.606  10.395   4.697  1.00  0.00     0.016 A 
HETATM    8  C   UNL     1      61.966   9.949   1.807  1.00  0.00     0.032 A 
HETATM    9  C   UNL     1      62.035  11.377   3.860  1.00  0.00     0.001 A 
HETATM   10  C   UNL     1      61.727  11.167   2.480  1.00  0.00     0.002 A 
HETATM   11  C   UNL     1      63.775   5.788   3.442  1.00  0.00     0.177 C 
ENDROOT
BRANCH   5  12
HETATM   12  C   UNL     1      63.824   7.697   5.886  1.00  0.00     0.223 C 
BRANCH  12  13
HETATM   13  O   UNL     1      62.686   7.669   6.735  1.00  0.00    -0.395 OA
HETATM   14  H   UNL     1      62.031   7.050   6.377  1.00  0.00     0.209 HD
ENDBRANCH  12  13
ENDBRANCH   5  12
TORSDOF 2
ENDMDL
MODEL 3
REMARK VINA RESULT:      -4.7      1.614      2.593
REMARK  2 active torsions:
REMARK  status: ('A' for Active; 'I' for Inactive)
REMARK    1  A    between atoms: C_5  and  C_11 
REMARK    2  A    between atoms: C_11  and  O_13 
ROOT
HETATM    1  C   UNL     1      62.878   8.559   3.146  1.00  0.00     0.018 A 
HETATM    2  N   UNL     1      61.978  10.613   3.492  1.00  0.00    -0.298 N 
ATOM      3  HN  UNL     1      61.462  11.488   3.397  1.00  0.00     0.187 HD
HETATM    4  N   UNL     1      62.731  10.213   4.540  1.00  0.00    -0.297 N 
HETATM    5  C   UNL     1      63.304   8.971   4.386  1.00  0.00     0.064 A 
HETATM    6  C   UNL     1      62.054   9.612   2.604  1.00  0.00     0.060 A 
HETATM    7  C   UNL     1      63.193   7.352   2.523  1.00  0.00     0.016 A 
HETATM    8  C   UNL     1      61.475   9.495   1.331  1.00  0.00     0.032 A 
HETATM    9  C   UNL     1      62.602   7.263   1.245  1.00  0.00     0.001 A 
HETATM   10  C   UNL     1      61.783   8.285   0.673  1.00  0.00     0.002 A 
HETATM   11  C   UNL     1      62.866  11.134   5.648  1.00  0.00     0.177 C 
ENDROOT
BRANCH   5  12
HETATM   12  C   UNL     1      64.167   8.329   5.400  1.00  0.00     0.223 C 
BRANCH  12  13
HETATM   13  O   UNL     1      65.491   8.789   5.174  1.00  0.00    -0.395 OA
HETATM   14  H   UNL     1      65.964   8.841   6.019  1.00  0.00     0.209 HD
ENDBRANCH  12  13
ENDBRANCH   5  12
TORSDOF 2
ENDMDL
MODEL 4
REMARK VINA RESULT:      -4.7      1.984      2.942
REMARK  2 active torsions:
REMARK  status: ('A' for Active; 'I' for Inactive)
REMARK    1  A    between atoms: C_5  and  C_11 
REMARK    2  A    between atoms: C_11  and  O_13 
ROOT
HETATM    1  C   UNL     1      62.644   8.851   3.384  1.00  0.00     0.018 A 
HETATM    2  N   UNL     1      63.011   9.234   5.590  1.00  0.00    -0.298 N 
ATOM      3  HN  UNL     1      63.081   9.660   6.515  1.00  0.00     0.187 HD
HETATM    4  N   UNL     1      63.311   7.962   5.247  1.00  0.00    -0.297 N 
HETATM    5  C   UNL     1      63.107   7.671   3.916  1.00  0.00     0.064 A 
HETATM    6  C   UNL     1      62.601   9.817   4.454  1.00  0.00     0.060 A 
HETATM    7  C   UNL     1      62.293   9.074   2.054  1.00  0.00     0.016 A 
HETATM    8  C   UNL     1      62.180  11.135   4.223  1.00  0.00     0.032 A 
HETATM    9  C   UNL     1      61.877  10.407   1.849  1.00  0.00     0.001 A 
HETATM   10  C   UNL     1      61.824  11.393   2.881  1.00  0.00     0.002 A 
HETATM   11  C   UNL     1      63.828   7.100   6.287  1.00  0.00     0.177 C 
ENDROOT
BRANCH   5  12
HETATM   12  C   UNL     1      63.366   6.346   3.314  1.00  0.00     0.223 C 
BRANCH  12  13
HETATM   13  O   UNL     1      64.728   6.328   2.912  1.00  0.00    -0.395 OA
HETATM   14  H   UNL     1      65.063   7.236   2.863  1.00  0.00     0.209 HD
ENDBRANCH  12  13
ENDBRANCH   5  12
TORSDOF 2
ENDMDL
MODEL 5
REMARK VINA RESULT:      -4.3      2.547      3.603
REMARK  2 active torsions:
REMARK  status: ('A' for Active; 'I' for Inactive)
REMARK    1  A    between atoms: C_5  and  C_11 
REMARK    2  A    between atoms: C_11  and  O_13 
ROOT
HETATM    1  C   UNL     1      64.283   7.631   4.014  1.00  0.00     0.018 A 
HETATM    2  N   UNL     1      64.694   9.065   5.724  1.00  0.00    -0.298 N 
ATOM      3  HN  UNL     1      64.648   9.831   6.395  1.00  0.00     0.187 HD
HETATM    4  N   UNL     1      65.610   8.074   5.671  1.00  0.00    -0.297 N 
HETATM    5  C   UNL     1      65.411   7.170   4.651  1.00  0.00     0.064 A 
HETATM    6  C   UNL     1      63.858   8.825   4.703  1.00  0.00     0.060 A 
HETATM    7  C   UNL     1      63.669   7.055   2.903  1.00  0.00     0.016 A 
HETATM    8  C   UNL     1      62.731   9.543   4.279  1.00  0.00     0.032 A 
HETATM    9  C   UNL     1      62.541   7.799   2.495  1.00  0.00     0.001 A 
HETATM   10  C   UNL     1      62.092   8.987   3.149  1.00  0.00     0.002 A 
HETATM   11  C   UNL     1      66.678   8.106   6.646  1.00  0.00     0.177 C 
ENDROOT
BRANCH   5  12
HETATM   12  C   UNL     1      66.285   6.006   4.398  1.00  0.00     0.223 C 
BRANCH  12  13
HETATM   13  O   UNL     1      67.377   6.463   3.614  1.00  0.00    -0.395 OA
HETATM   14  H   UNL     1      67.545   7.398   3.808  1.00  0.00     0.209 HD
ENDBRANCH  12  13
ENDBRANCH   5  12
TORSDOF 2
ENDMDL
MODEL 6
REMARK VINA RESULT:      -4.2      2.257      3.793
REMARK  2 active torsions:
REMARK  status: ('A' for Active; 'I' for Inactive)
REMARK    1  A    between atoms: C_5  and  C_11 
REMARK    2  A    between atoms: C_11  and  O_13 
ROOT
HETATM    1  C   UNL     1      63.596   8.140   3.736  1.00  0.00     0.018 A 
HETATM    2  N   UNL     1      64.367   9.247   5.560  1.00  0.00    -0.298 N 
ATOM      3  HN  UNL     1      64.897   9.535   6.383  1.00  0.00     0.187 HD
HETATM    4  N   UNL     1      63.321   9.886   4.991  1.00  0.00    -0.297 N 
HETATM    5  C   UNL     1      62.810   9.259   3.877  1.00  0.00     0.064 A 
HETATM    6  C   UNL     1      64.559   8.152   4.809  1.00  0.00     0.060 A 
HETATM    7  C   UNL     1      63.476   7.167   2.745  1.00  0.00     0.016 A 
HETATM    8  C   UNL     1      65.503   7.124   4.947  1.00  0.00     0.032 A 
HETATM    9  C   UNL     1      64.433   6.143   2.910  1.00  0.00     0.001 A 
HETATM   10  C   UNL     1      65.401   6.119   3.960  1.00  0.00     0.002 A 
HETATM   11  C   UNL     1      62.861  11.099   5.630  1.00  0.00     0.177 C 
ENDROOT
BRANCH   5  12
HETATM   12  C   UNL     1      61.668   9.773   3.093  1.00  0.00     0.223 C 
BRANCH  12  13
HETATM   13  O   UNL     1      60.521   9.037   3.491  1.00  0.00    -0.395 OA
HETATM   14  H   UNL     1      60.747   8.097   3.557  1.00  0.00     0.209 HD
ENDBRANCH  12  13
ENDBRANCH   5  12
TORSDOF 2
ENDMDL
MODEL 7
REMARK VINA RESULT:      -4.1      2.595      4.239
REMARK  2 active torsions:
REMARK  status: ('A' for Active; 'I' for Inactive)
REMARK    1  A    between atoms: C_5  and  C_11 
REMARK    2  A    between atoms: C_11  and  O_13 
ROOT
HETATM    1  C   UNL     1      62.835   8.971   3.477  1.00  0.00     0.018 A 
HETATM    2  N   UNL     1      61.367   9.799   1.958  1.00  0.00    -0.298 N 
ATOM      3  HN  UNL     1      60.709  10.389   1.449  1.00  0.00     0.187 HD
HETATM    4  N   UNL     1      61.812   8.572   1.607  1.00  0.00    -0.297 N 
HETATM    5  C   UNL     1      62.708   8.018   2.494  1.00  0.00     0.064 A 
HETATM    6  C   UNL     1      61.977  10.074   3.120  1.00  0.00     0.060 A 
HETATM    7  C   UNL     1      63.636   8.882   4.614  1.00  0.00     0.016 A 
HETATM    8  C   UNL     1      61.875  11.207   3.941  1.00  0.00     0.032 A 
HETATM    9  C   UNL     1      63.512  10.031   5.423  1.00  0.00     0.001 A 
HETATM   10  C   UNL     1      62.671  11.142   5.105  1.00  0.00     0.002 A 
HETATM   11  C   UNL     1      61.277   7.996   0.393  1.00  0.00     0.177 C 
ENDROOT
BRANCH   5  12
HETATM   12  C   UNL     1      63.327   6.688   2.318  1.00  0.00     0.223 C 
BRANCH  12  13
HETATM   13  O   UNL     1      62.553   5.764   3.069  1.00  0.00    -0.395 OA
HETATM   14  H   UNL     1      62.063   6.237   3.758  1.00  0.00     0.209 HD
ENDBRANCH  12  13
ENDBRANCH   5  12
TORSDOF 2
ENDMDL
MODEL 8
REMARK VINA RESULT:      -4.1      2.019      3.749
REMARK  2 active torsions:
REMARK  status: ('A' for Active; 'I' for Inactive)
REMARK    1  A    between atoms: C_5  and  C_11 
REMARK    2  A    between atoms: C_11  and  O_13 
ROOT
HETATM    1  C   UNL     1      63.425   8.704   3.916  1.00  0.00     0.018 A 
HETATM    2  N   UNL     1      62.771   7.449   2.143  1.00  0.00    -0.298 N 
ATOM      3  HN  UNL     1      62.678   6.716   1.439  1.00  0.00     0.187 HD
HETATM    4  N   UNL     1      62.034   8.575   2.258  1.00  0.00    -0.297 N 
HETATM    5  C   UNL     1      62.387   9.379   3.319  1.00  0.00     0.064 A 
HETATM    6  C   UNL     1      63.651   7.501   3.153  1.00  0.00     0.060 A 
HETATM    7  C   UNL     1      64.136   9.114   5.043  1.00  0.00     0.016 A 
HETATM    8  C   UNL     1      64.665   6.599   3.507  1.00  0.00     0.032 A 
HETATM    9  C   UNL     1      65.151   8.192   5.374  1.00  0.00     0.001 A 
HETATM   10  C   UNL     1      65.407   6.991   4.642  1.00  0.00     0.002 A 
HETATM   11  C   UNL     1      61.017   8.806   1.255  1.00  0.00     0.177 C 
ENDROOT
BRANCH   5  12
HETATM   12  C   UNL     1      61.722  10.659   3.641  1.00  0.00     0.223 C 
BRANCH  12  13
HETATM   13  O   UNL     1      62.111  11.595   2.647  1.00  0.00    -0.395 OA
HETATM   14  H   UNL     1      62.959  11.995   2.895  1.00  0.00     0.209 HD
ENDBRANCH  12  13
ENDBRANCH   5  12
TORSDOF 2
ENDMDL
MODEL 9
REMARK VINA RESULT:      -4.0     12.809     14.191
REMARK  2 active torsions:
REMARK  status: ('A' for Active; 'I' for Inactive)
REMARK    1  A    between atoms: C_5  and  C_11 
REMARK    2  A    between atoms: C_11  and  O_13 
ROOT
HETATM    1  C   UNL     1      56.735   2.001  13.053  1.00  0.00     0.018 A 
HETATM    2  N   UNL     1      56.026   0.690  14.764  1.00  0.00    -0.298 N 
ATOM      3  HN  UNL     1      55.978   0.037  15.546  1.00  0.00     0.187 HD
HETATM    4  N   UNL     1      55.008   1.386  14.211  1.00  0.00    -0.297 N 
HETATM    5  C   UNL     1      55.379   2.201  13.165  1.00  0.00     0.064 A 
HETATM    6  C   UNL     1      57.113   1.043  14.062  1.00  0.00     0.060 A 
HETATM    7  C   UNL     1      57.584   2.605  12.127  1.00  0.00     0.016 A 
HETATM    8  C   UNL     1      58.443   0.618  14.195  1.00  0.00     0.032 A 
HETATM    9  C   UNL     1      58.913   2.157  12.280  1.00  0.00     0.001 A 
HETATM   10  C   UNL     1      59.326   1.208  13.265  1.00  0.00     0.002 A 
HETATM   11  C   UNL     1      53.684   1.164  14.751  1.00  0.00     0.177 C 
ENDROOT
BRANCH   5  12
HETATM   12  C   UNL     1      54.437   3.053  12.410  1.00  0.00     0.223 C 
BRANCH  12  13
HETATM   13  O   UNL     1      54.451   4.335  13.020  1.00  0.00    -0.395 OA
HETATM   14  H   UNL     1      55.078   4.909  12.553  1.00  0.00     0.209 HD
ENDBRANCH  12  13
ENDBRANCH   5  12
TORSDOF 2
ENDMDL
