MODEL 1
REMARK VINA RESULT:      -5.1      0.000      0.000
REMARK  3 active torsions:
REMARK  status: ('A' for Active; 'I' for Inactive)
REMARK    1  A    between atoms: C_1  and  C_2 
REMARK    2  A    between atoms: C_12  and  C_16 
REMARK    3  A    between atoms: O_15  and  C_16 
ROOT
HETATM    1  C   UNL     1      64.241   8.083   4.948  1.00  0.00    -0.023 A 
HETATM    2  C   UNL     1      64.028   7.352   3.766  1.00  0.00     0.013 A 
HETATM    3  C   UNL     1      63.539   9.294   5.087  1.00  0.00     0.013 A 
HETATM    4  C   UNL     1      62.663   9.753   4.094  1.00  0.00     0.010 A 
HETATM    5  C   UNL     1      63.162   7.815   2.766  1.00  0.00     0.010 A 
HETATM    6  C   UNL     1      62.471   9.021   2.921  1.00  0.00    -0.035 A 
ENDROOT
BRANCH   1   7
HETATM    7  C   UNL     1      65.163   7.600   5.997  1.00  0.00     0.005 A 
HETATM    8  C   UNL     1      64.887   6.523   6.825  1.00  0.00     0.102 A 
HETATM    9  N   UNL     1      65.705   6.060   7.798  1.00  0.00    -0.361 N 
HETATM   10  C   UNL     1      66.868   6.709   7.933  1.00  0.00     0.180 A 
ATOM     11  HN  UNL     1      65.453   5.267   8.389  1.00  0.00     0.166 HD
HETATM   12  N   UNL     1      67.268   7.755   7.203  1.00  0.00    -0.361 N 
HETATM   13  C   UNL     1      66.399   8.174   6.254  1.00  0.00     0.102 A 
ATOM     14  HN  UNL     1      68.170   8.209   7.353  1.00  0.00     0.166 HD
ENDBRANCH   1   7
BRANCH   6  15
HETATM   15  C   UNL     1      61.541   9.509   1.843  1.00  0.00     0.202 C 
BRANCH  15  16
HETATM   16  O   UNL     1      61.285  10.897   2.001  1.00  0.00    -0.396 OA
HETATM   17  H   UNL     1      62.121  11.365   2.152  1.00  0.00     0.209 HD
ENDBRANCH  15  16
ENDBRANCH   6  15
TORSDOF 3
ENDMDL
MODEL 2
REMARK VINA RESULT:      -5.1      0.061      1.795
REMARK  3 active torsions:
REMARK  status: ('A' for Active; 'I' for Inactive)
REMARK    1  A    between atoms: C_1  and  C_2 
REMARK    2  A    between atoms: C_12  and  C_16 
REMARK    3  A    between atoms: O_15  and  C_16 
ROOT
HETATM    1  C   UNL     1      64.272   8.042   4.943  1.00  0.00    -0.023 A 
HETATM    2  C   UNL     1      63.578   9.260   5.060  1.00  0.00     0.013 A 
HETATM    3  C   UNL     1      64.054   7.293   3.773  1.00  0.00     0.013 A 
HETATM    4  C   UNL     1      63.187   7.737   2.766  1.00  0.00     0.010 A 
HETATM    5  C   UNL     1      62.702   9.702   4.060  1.00  0.00     0.010 A 
HETATM    6  C   UNL     1      62.498   8.944   2.903  1.00  0.00    -0.035 A 
ENDROOT
BRANCH   1   7
HETATM    7  C   UNL     1      65.187   7.572   6.003  1.00  0.00     0.005 A 
HETATM    8  C   UNL     1      66.410   8.163   6.279  1.00  0.00     0.102 A 
HETATM    9  N   UNL     1      67.274   7.754   7.237  1.00  0.00    -0.361 N 
HETATM   10  C   UNL     1      66.876   6.701   7.963  1.00  0.00     0.180 A 
ATOM     11  HN  UNL     1      68.169   8.218   7.396  1.00  0.00     0.166 HD
HETATM   12  N   UNL     1      65.725   6.039   7.813  1.00  0.00    -0.361 N 
HETATM   13  C   UNL     1      64.911   6.494   6.831  1.00  0.00     0.102 A 
ATOM     14  HN  UNL     1      65.476   5.243   8.400  1.00  0.00     0.166 HD
ENDBRANCH   1   7
BRANCH   6  15
HETATM   15  C   UNL     1      61.556   9.427   1.833  1.00  0.00     0.202 C 
BRANCH  15  16
HETATM   16  O   UNL     1      61.259  10.804   2.019  1.00  0.00    -0.396 OA
HETATM   17  H   UNL     1      61.402  11.280   1.187  1.00  0.00     0.209 HD
ENDBRANCH  15  16
ENDBRANCH   6  15
TORSDOF 3
ENDMDL
MODEL 3
REMARK VINA RESULT:      -5.0      1.418      2.236
REMARK  3 active torsions:
REMARK  status: ('A' for Active; 'I' for Inactive)
REMARK    1  A    between atoms: C_1  and  C_2 
REMARK    2  A    between atoms: C_12  and  C_16 
REMARK    3  A    between atoms: O_15  and  C_16 
ROOT
HETATM    1  C   UNL     1      64.466   7.190   6.159  1.00  0.00    -0.023 A 
HETATM    2  C   UNL     1      64.791   8.204   5.240  1.00  0.00     0.013 A 
HETATM    3  C   UNL     1      63.129   6.756   6.186  1.00  0.00     0.013 A 
HETATM    4  C   UNL     1      62.160   7.306   5.336  1.00  0.00     0.010 A 
HETATM    5  C   UNL     1      63.822   8.764   4.396  1.00  0.00     0.010 A 
HETATM    6  C   UNL     1      62.497   8.319   4.437  1.00  0.00    -0.035 A 
ENDROOT
BRANCH   1   7
HETATM    7  C   UNL     1      65.486   6.609   7.055  1.00  0.00     0.005 A 
HETATM    8  C   UNL     1      66.615   7.291   7.480  1.00  0.00     0.102 A 
HETATM    9  N   UNL     1      67.571   6.787   8.294  1.00  0.00    -0.361 N 
HETATM   10  C   UNL     1      67.369   5.531   8.712  1.00  0.00     0.180 A 
ATOM     11  HN  UNL     1      68.390   7.328   8.572  1.00  0.00     0.166 HD
HETATM   12  N   UNL     1      66.327   4.758   8.390  1.00  0.00    -0.361 N 
HETATM   13  C   UNL     1      65.413   5.321   7.565  1.00  0.00     0.102 A 
ATOM     14  HN  UNL     1      66.228   3.806   8.743  1.00  0.00     0.166 HD
ENDBRANCH   1   7
BRANCH   6  15
HETATM   15  C   UNL     1      61.463   8.925   3.526  1.00  0.00     0.202 C 
BRANCH  15  16
HETATM   16  O   UNL     1      61.250  10.290   3.856  1.00  0.00    -0.396 OA
HETATM   17  H   UNL     1      60.419  10.378   4.348  1.00  0.00     0.209 HD
ENDBRANCH  15  16
ENDBRANCH   6  15
TORSDOF 3
ENDMDL
MODEL 4
REMARK VINA RESULT:      -4.8      3.905      5.869
REMARK  3 active torsions:
REMARK  status: ('A' for Active; 'I' for Inactive)
REMARK    1  A    between atoms: C_1  and  C_2 
REMARK    2  A    between atoms: C_12  and  C_16 
REMARK    3  A    between atoms: O_15  and  C_16 
ROOT
HETATM    1  C   UNL     1      64.260   8.200   5.454  1.00  0.00    -0.023 A 
HETATM    2  C   UNL     1      63.683   7.073   6.065  1.00  0.00     0.013 A 
HETATM    3  C   UNL     1      65.662   8.305   5.502  1.00  0.00     0.013 A 
HETATM    4  C   UNL     1      66.451   7.333   6.130  1.00  0.00     0.010 A 
HETATM    5  C   UNL     1      64.468   6.104   6.704  1.00  0.00     0.010 A 
HETATM    6  C   UNL     1      65.861   6.225   6.742  1.00  0.00    -0.035 A 
ENDROOT
BRANCH   1   7
HETATM    7  C   UNL     1      63.430   9.226   4.790  1.00  0.00     0.005 A 
HETATM    8  C   UNL     1      63.197  10.485   5.319  1.00  0.00     0.102 A 
HETATM    9  N   UNL     1      62.438  11.445   4.742  1.00  0.00    -0.361 N 
HETATM   10  C   UNL     1      61.895  11.120   3.562  1.00  0.00     0.180 A 
ATOM     11  HN  UNL     1      62.289  12.356   5.177  1.00  0.00     0.166 HD
HETATM   12  N   UNL     1      62.038   9.950   2.932  1.00  0.00    -0.361 N 
HETATM   13  C   UNL     1      62.803   9.032   3.568  1.00  0.00     0.102 A 
ATOM     14  HN  UNL     1      61.600   9.761   2.030  1.00  0.00     0.166 HD
ENDBRANCH   1   7
BRANCH   6  15
HETATM   15  C   UNL     1      66.697   5.179   7.429  1.00  0.00     0.202 C 
BRANCH  15  16
HETATM   16  O   UNL     1      66.031   4.694   8.586  1.00  0.00    -0.396 OA
HETATM   17  H   UNL     1      66.371   3.813   8.808  1.00  0.00     0.209 HD
ENDBRANCH  15  16
ENDBRANCH   6  15
TORSDOF 3
ENDMDL
MODEL 5
REMARK VINA RESULT:      -4.5      4.198      6.258
REMARK  3 active torsions:
REMARK  status: ('A' for Active; 'I' for Inactive)
REMARK    1  A    between atoms: C_1  and  C_2 
REMARK    2  A    between atoms: C_12  and  C_16 
REMARK    3  A    between atoms: O_15  and  C_16 
ROOT
HETATM    1  C   UNL     1      62.556   7.905   3.188  1.00  0.00    -0.023 A 
HETATM    2  C   UNL     1      62.845   8.922   4.115  1.00  0.00     0.013 A 
HETATM    3  C   UNL     1      63.515   6.887   3.037  1.00  0.00     0.013 A 
HETATM    4  C   UNL     1      64.705   6.883   3.777  1.00  0.00     0.010 A 
HETATM    5  C   UNL     1      64.039   8.927   4.848  1.00  0.00     0.010 A 
HETATM    6  C   UNL     1      64.980   7.907   4.686  1.00  0.00    -0.035 A 
ENDROOT
BRANCH   1   7
HETATM    7  C   UNL     1      61.302   7.907   2.407  1.00  0.00     0.005 A 
HETATM    8  C   UNL     1      60.046   7.748   2.971  1.00  0.00     0.102 A 
HETATM    9  N   UNL     1      58.880   7.739   2.286  1.00  0.00    -0.361 N 
HETATM   10  C   UNL     1      58.986   7.911   0.962  1.00  0.00     0.180 A 
ATOM     11  HN  UNL     1      57.979   7.609   2.746  1.00  0.00     0.166 HD
HETATM   12  N   UNL     1      60.127   8.083   0.286  1.00  0.00    -0.361 N 
HETATM   13  C   UNL     1      61.257   8.073   1.031  1.00  0.00     0.102 A 
ATOM     14  HN  UNL     1      60.144   8.212  -0.726  1.00  0.00     0.166 HD
ENDBRANCH   1   7
BRANCH   6  15
HETATM   15  C   UNL     1      66.260   7.919   5.479  1.00  0.00     0.202 C 
BRANCH  15  16
HETATM   16  O   UNL     1      66.196   8.897   6.507  1.00  0.00    -0.396 OA
HETATM   17  H   UNL     1      66.212   8.458   7.372  1.00  0.00     0.209 HD
ENDBRANCH  15  16
ENDBRANCH   6  15
TORSDOF 3
ENDMDL
MODEL 6
REMARK VINA RESULT:      -4.4      4.056      6.140
REMARK  3 active torsions:
REMARK  status: ('A' for Active; 'I' for Inactive)
REMARK    1  A    between atoms: C_1  and  C_2 
REMARK    2  A    between atoms: C_12  and  C_16 
REMARK    3  A    between atoms: O_15  and  C_16 
ROOT
HETATM    1  C   UNL     1      63.599   7.715   3.423  1.00  0.00    -0.023 A 
HETATM    2  C   UNL     1      63.824   8.660   4.440  1.00  0.00     0.013 A 
HETATM    3  C   UNL     1      64.545   6.683   3.289  1.00  0.00     0.013 A 
HETATM    4  C   UNL     1      65.661   6.595   4.131  1.00  0.00     0.010 A 
HETATM    5  C   UNL     1      64.946   8.582   5.276  1.00  0.00     0.010 A 
HETATM    6  C   UNL     1      65.875   7.548   5.129  1.00  0.00    -0.035 A 
ENDROOT
BRANCH   1   7
HETATM    7  C   UNL     1      62.422   7.805   2.535  1.00  0.00     0.005 A 
HETATM    8  C   UNL     1      61.724   8.979   2.301  1.00  0.00     0.102 A 
HETATM    9  N   UNL     1      60.639   9.094   1.500  1.00  0.00    -0.361 N 
HETATM   10  C   UNL     1      60.247   7.967   0.894  1.00  0.00     0.180 A 
ATOM     11  HN  UNL     1      60.154   9.981   1.367  1.00  0.00     0.166 HD
HETATM   12  N   UNL     1      60.826   6.769   1.020  1.00  0.00    -0.361 N 
HETATM   13  C   UNL     1      61.900   6.722   1.843  1.00  0.00     0.102 A 
ATOM     14  HN  UNL     1      60.480   5.944   0.529  1.00  0.00     0.166 HD
ENDBRANCH   1   7
BRANCH   6  15
HETATM   15  C   UNL     1      67.077   7.471   6.033  1.00  0.00     0.202 C 
BRANCH  15  16
HETATM   16  O   UNL     1      67.063   8.541   6.967  1.00  0.00    -0.396 OA
HETATM   17  H   UNL     1      67.403   9.344   6.544  1.00  0.00     0.209 HD
ENDBRANCH  15  16
ENDBRANCH   6  15
TORSDOF 3
ENDMDL
MODEL 7
REMARK VINA RESULT:      -4.2      4.354      6.488
REMARK  3 active torsions:
REMARK  status: ('A' for Active; 'I' for Inactive)
REMARK    1  A    between atoms: C_1  and  C_2 
REMARK    2  A    between atoms: C_12  and  C_16 
REMARK    3  A    between atoms: O_15  and  C_16 
ROOT
HETATM    1  C   UNL     1      61.881   7.800   3.223  1.00  0.00    -0.023 A 
HETATM    2  C   UNL     1      62.210   8.866   4.079  1.00  0.00     0.013 A 
HETATM    3  C   UNL     1      62.869   6.821   3.012  1.00  0.00     0.013 A 
HETATM    4  C   UNL     1      64.125   6.900   3.628  1.00  0.00     0.010 A 
HETATM    5  C   UNL     1      63.470   8.954   4.687  1.00  0.00     0.010 A 
HETATM    6  C   UNL     1      64.439   7.971   4.467  1.00  0.00    -0.035 A 
ENDROOT
BRANCH   1   7
HETATM    7  C   UNL     1      60.557   7.715   2.574  1.00  0.00     0.005 A 
HETATM    8  C   UNL     1      60.242   8.350   1.383  1.00  0.00     0.102 A 
HETATM    9  N   UNL     1      59.039   8.298   0.766  1.00  0.00    -0.361 N 
HETATM   10  C   UNL     1      58.108   7.554   1.378  1.00  0.00     0.180 A 
ATOM     11  HN  UNL     1      58.854   8.792  -0.107  1.00  0.00     0.166 HD
HETATM   12  N   UNL     1      58.272   6.883   2.522  1.00  0.00    -0.361 N 
HETATM   13  C   UNL     1      59.496   6.985   3.091  1.00  0.00     0.102 A 
ATOM     14  HN  UNL     1      57.523   6.331   2.939  1.00  0.00     0.166 HD
ENDBRANCH   1   7
BRANCH   6  15
HETATM   15  C   UNL     1      65.789   8.073   5.126  1.00  0.00     0.202 C 
BRANCH  15  16
HETATM   16  O   UNL     1      65.764   9.048   6.158  1.00  0.00    -0.396 OA
HETATM   17  H   UNL     1      66.069   9.899   5.806  1.00  0.00     0.209 HD
ENDBRANCH  15  16
ENDBRANCH   6  15
TORSDOF 3
ENDMDL
MODEL 8
REMARK VINA RESULT:      -4.2      1.633      2.410
REMARK  3 active torsions:
REMARK  status: ('A' for Active; 'I' for Inactive)
REMARK    1  A    between atoms: C_1  and  C_2 
REMARK    2  A    between atoms: C_12  and  C_16 
REMARK    3  A    between atoms: O_15  and  C_16 
ROOT
HETATM    1  C   UNL     1      63.959   7.579   3.587  1.00  0.00    -0.023 A 
HETATM    2  C   UNL     1      62.992   8.598   3.652  1.00  0.00     0.013 A 
HETATM    3  C   UNL     1      63.765   6.575   2.621  1.00  0.00     0.013 A 
HETATM    4  C   UNL     1      62.661   6.588   1.758  1.00  0.00     0.010 A 
HETATM    5  C   UNL     1      61.881   8.608   2.798  1.00  0.00     0.010 A 
HETATM    6  C   UNL     1      61.705   7.602   1.843  1.00  0.00    -0.035 A 
ENDROOT
BRANCH   1   7
HETATM    7  C   UNL     1      65.124   7.564   4.495  1.00  0.00     0.005 A 
HETATM    8  C   UNL     1      66.250   6.783   4.287  1.00  0.00     0.102 A 
HETATM    9  N   UNL     1      67.330   6.741   5.100  1.00  0.00    -0.361 N 
HETATM   10  C   UNL     1      67.276   7.538   6.175  1.00  0.00     0.180 A 
ATOM     11  HN  UNL     1      68.133   6.142   4.908  1.00  0.00     0.166 HD
HETATM   12  N   UNL     1      66.261   8.346   6.498  1.00  0.00    -0.361 N 
HETATM   13  C   UNL     1      65.209   8.333   5.646  1.00  0.00     0.102 A 
ATOM     14  HN  UNL     1      66.278   8.933   7.331  1.00  0.00     0.166 HD
ENDBRANCH   1   7
BRANCH   6  15
HETATM   15  C   UNL     1      60.509   7.622   0.929  1.00  0.00     0.202 C 
BRANCH  15  16
HETATM   16  O   UNL     1      59.784   8.833   1.088  1.00  0.00    -0.396 OA
HETATM   17  H   UNL     1      59.900   9.384   0.299  1.00  0.00     0.209 HD
ENDBRANCH  15  16
ENDBRANCH   6  15
TORSDOF 3
ENDMDL
MODEL 9
REMARK VINA RESULT:      -4.1      4.147      5.923
REMARK  3 active torsions:
REMARK  status: ('A' for Active; 'I' for Inactive)
REMARK    1  A    between atoms: C_1  and  C_2 
REMARK    2  A    between atoms: C_12  and  C_16 
REMARK    3  A    between atoms: O_15  and  C_16 
ROOT
HETATM    1  C   UNL     1      62.727   7.474   4.975  1.00  0.00    -0.023 A 
HETATM    2  C   UNL     1      63.626   8.353   4.344  1.00  0.00     0.013 A 
HETATM    3  C   UNL     1      63.216   6.735   6.068  1.00  0.00     0.013 A 
HETATM    4  C   UNL     1      64.539   6.868   6.511  1.00  0.00     0.010 A 
HETATM    5  C   UNL     1      64.952   8.479   4.778  1.00  0.00     0.010 A 
HETATM    6  C   UNL     1      65.421   7.737   5.866  1.00  0.00    -0.035 A 
ENDROOT
BRANCH   1   7
HETATM    7  C   UNL     1      61.332   7.334   4.510  1.00  0.00     0.005 A 
HETATM    8  C   UNL     1      60.752   8.160   3.560  1.00  0.00     0.102 A 
HETATM    9  N   UNL     1      59.478   8.063   3.117  1.00  0.00    -0.361 N 
HETATM   10  C   UNL     1      58.754   7.072   3.652  1.00  0.00     0.180 A 
ATOM     11  HN  UNL     1      59.094   8.703   2.421  1.00  0.00     0.166 HD
HETATM   12  N   UNL     1      59.182   6.198   4.569  1.00  0.00    -0.361 N 
HETATM   13  C   UNL     1      60.464   6.357   4.975  1.00  0.00     0.102 A 
ATOM     14  HN  UNL     1      58.582   5.461   4.938  1.00  0.00     0.166 HD
ENDBRANCH   1   7
BRANCH   6  15
HETATM   15  C   UNL     1      66.847   7.880   6.327  1.00  0.00     0.202 C 
BRANCH  15  16
HETATM   16  O   UNL     1      66.900   8.012   7.740  1.00  0.00    -0.396 OA
HETATM   17  H   UNL     1      67.825   8.084   8.023  1.00  0.00     0.209 HD
ENDBRANCH  15  16
ENDBRANCH   6  15
TORSDOF 3
ENDMDL
