MODEL 1
REMARK VINA RESULT:      -5.6      0.000      0.000
REMARK  3 active torsions:
REMARK  status: ('A' for Active; 'I' for Inactive)
REMARK    1  A    between atoms: N_1  and  C_2 
REMARK    2  A    between atoms: C_3  and  C_6 
REMARK    3  A    between atoms: C_6  and  O_7 
ROOT
HETATM    1  C   UNL     1      63.173   9.232   4.546  1.00  0.00     0.038 A 
HETATM    2  C   UNL     1      62.773  10.573   4.832  1.00  0.00    -0.008 A 
HETATM    3  C   UNL     1      62.770   8.740   3.276  1.00  0.00     0.030 A 
HETATM    4  C   UNL     1      62.082  11.329   3.844  1.00  0.00     0.011 A 
HETATM    5  C   UNL     1      62.097   9.502   2.316  1.00  0.00     0.002 A 
HETATM    6  C   UNL     1      61.759  10.808   2.597  1.00  0.00     0.001 A 
ENDROOT
BRANCH   1   7
HETATM    7  N   UNL     1      63.880   8.397   5.397  1.00  0.00    -0.380 N 
HETATM    8  C   UNL     1      65.329   8.189   5.351  1.00  0.00     0.123 C 
HETATM    9  C   UNL     1      65.497   6.686   5.560  1.00  0.00     0.021 C 
HETATM   10  C   UNL     1      64.393   6.360   6.536  1.00  0.00     0.021 C 
HETATM   11  C   UNL     1      63.244   7.247   6.072  1.00  0.00     0.123 C 
ENDBRANCH   1   7
BRANCH   2  12
HETATM   12  C   UNL     1      62.993  11.305   6.138  1.00  0.00     0.205 C 
BRANCH  12  13
HETATM   13  O   UNL     1      64.360  11.566   6.411  1.00  0.00    -0.396 OA
HETATM   14  H   UNL     1      64.853  10.730   6.423  1.00  0.00     0.209 HD
ENDBRANCH  12  13
ENDBRANCH   2  12
TORSDOF 3
ENDMDL
MODEL 2
REMARK VINA RESULT:      -4.9      1.461      1.895
REMARK  3 active torsions:
REMARK  status: ('A' for Active; 'I' for Inactive)
REMARK    1  A    between atoms: N_1  and  C_2 
REMARK    2  A    between atoms: C_3  and  C_6 
REMARK    3  A    between atoms: C_6  and  O_7 
ROOT
HETATM    1  C   UNL     1      62.990   8.429   3.464  1.00  0.00     0.038 A 
HETATM    2  C   UNL     1      62.332   9.663   3.172  1.00  0.00    -0.008 A 
HETATM    3  C   UNL     1      62.996   7.483   2.404  1.00  0.00     0.030 A 
HETATM    4  C   UNL     1      61.802   9.890   1.872  1.00  0.00     0.011 A 
HETATM    5  C   UNL     1      62.475   7.729   1.129  1.00  0.00     0.002 A 
HETATM    6  C   UNL     1      61.883   8.943   0.857  1.00  0.00     0.001 A 
ENDROOT
BRANCH   1   7
HETATM    7  N   UNL     1      63.582   8.090   4.671  1.00  0.00    -0.380 N 
HETATM    8  C   UNL     1      65.018   8.174   4.951  1.00  0.00     0.123 C 
HETATM    9  C   UNL     1      65.320   6.895   5.729  1.00  0.00     0.021 C 
HETATM   10  C   UNL     1      64.072   6.705   6.555  1.00  0.00     0.021 C 
HETATM   11  C   UNL     1      62.958   7.134   5.606  1.00  0.00     0.123 C 
ENDBRANCH   1   7
BRANCH   2  12
HETATM   12  C   UNL     1      62.106  10.799   4.146  1.00  0.00     0.205 C 
BRANCH  12  13
HETATM   13  O   UNL     1      61.883  12.047   3.510  1.00  0.00    -0.396 OA
HETATM   14  H   UNL     1      62.703  12.564   3.516  1.00  0.00     0.209 HD
ENDBRANCH  12  13
ENDBRANCH   2  12
TORSDOF 3
ENDMDL
MODEL 3
REMARK VINA RESULT:      -4.7      1.287      1.354
REMARK  3 active torsions:
REMARK  status: ('A' for Active; 'I' for Inactive)
REMARK    1  A    between atoms: N_1  and  C_2 
REMARK    2  A    between atoms: C_3  and  C_6 
REMARK    3  A    between atoms: C_6  and  O_7 
ROOT
HETATM    1  C   UNL     1      62.815   8.777   3.581  1.00  0.00     0.038 A 
HETATM    2  C   UNL     1      62.574  10.056   4.170  1.00  0.00    -0.008 A 
HETATM    3  C   UNL     1      62.450   8.663   2.212  1.00  0.00     0.030 A 
HETATM    4  C   UNL     1      62.065  11.116   3.369  1.00  0.00     0.011 A 
HETATM    5  C   UNL     1      61.958   9.721   1.441  1.00  0.00     0.002 A 
HETATM    6  C   UNL     1      61.773  10.958   2.019  1.00  0.00     0.001 A 
ENDROOT
BRANCH   1   7
HETATM    7  N   UNL     1      63.340   7.670   4.230  1.00  0.00    -0.380 N 
HETATM    8  C   UNL     1      64.619   7.036   3.903  1.00  0.00     0.123 C 
HETATM    9  C   UNL     1      64.325   5.540   3.981  1.00  0.00     0.021 C 
HETATM   10  C   UNL     1      63.341   5.453   5.121  1.00  0.00     0.021 C 
HETATM   11  C   UNL     1      62.481   6.698   4.936  1.00  0.00     0.123 C 
ENDBRANCH   1   7
BRANCH   2  12
HETATM   12  C   UNL     1      62.787  10.417   5.623  1.00  0.00     0.205 C 
BRANCH  12  13
HETATM   13  O   UNL     1      63.996  11.121   5.855  1.00  0.00    -0.396 OA
HETATM   14  H   UNL     1      64.743  10.504   5.812  1.00  0.00     0.209 HD
ENDBRANCH  12  13
ENDBRANCH   2  12
TORSDOF 3
ENDMDL
MODEL 4
REMARK VINA RESULT:      -4.6      2.474      3.460
REMARK  3 active torsions:
REMARK  status: ('A' for Active; 'I' for Inactive)
REMARK    1  A    between atoms: N_1  and  C_2 
REMARK    2  A    between atoms: C_3  and  C_6 
REMARK    3  A    between atoms: C_6  and  O_7 
ROOT
HETATM    1  C   UNL     1      62.405   9.029   3.644  1.00  0.00     0.038 A 
HETATM    2  C   UNL     1      62.261   9.004   2.223  1.00  0.00    -0.008 A 
HETATM    3  C   UNL     1      62.263  10.309   4.242  1.00  0.00     0.030 A 
HETATM    4  C   UNL     1      61.931  10.200   1.526  1.00  0.00     0.011 A 
HETATM    5  C   UNL     1      61.931  11.472   3.540  1.00  0.00     0.002 A 
HETATM    6  C   UNL     1      61.754  11.416   2.174  1.00  0.00     0.001 A 
ENDROOT
BRANCH   1   7
HETATM    7  N   UNL     1      62.687   7.937   4.450  1.00  0.00    -0.380 N 
HETATM    8  C   UNL     1      61.707   6.935   4.875  1.00  0.00     0.123 C 
HETATM    9  C   UNL     1      62.042   6.686   6.343  1.00  0.00     0.021 C 
HETATM   10  C   UNL     1      63.546   6.796   6.366  1.00  0.00     0.021 C 
HETATM   11  C   UNL     1      63.827   7.933   5.390  1.00  0.00     0.123 C 
ENDBRANCH   1   7
BRANCH   2  12
HETATM   12  C   UNL     1      62.452   7.795   1.333  1.00  0.00     0.205 C 
BRANCH  12  13
HETATM   13  O   UNL     1      61.598   7.791   0.201  1.00  0.00    -0.396 OA
HETATM   14  H   UNL     1      60.721   8.119   0.456  1.00  0.00     0.209 HD
ENDBRANCH  12  13
ENDBRANCH   2  12
TORSDOF 3
ENDMDL
MODEL 5
REMARK VINA RESULT:      -4.4      1.891      2.697
REMARK  3 active torsions:
REMARK  status: ('A' for Active; 'I' for Inactive)
REMARK    1  A    between atoms: N_1  and  C_2 
REMARK    2  A    between atoms: C_3  and  C_6 
REMARK    3  A    between atoms: C_6  and  O_7 
ROOT
HETATM    1  C   UNL     1      63.141   9.157   4.533  1.00  0.00     0.038 A 
HETATM    2  C   UNL     1      62.751   8.870   3.189  1.00  0.00    -0.008 A 
HETATM    3  C   UNL     1      62.830  10.467   4.986  1.00  0.00     0.030 A 
HETATM    4  C   UNL     1      62.043   9.848   2.436  1.00  0.00     0.011 A 
HETATM    5  C   UNL     1      62.127  11.411   4.232  1.00  0.00     0.002 A 
HETATM    6  C   UNL     1      61.721  11.098   2.952  1.00  0.00     0.001 A 
ENDROOT
BRANCH   1   7
HETATM    7  N   UNL     1      63.800   8.288   5.389  1.00  0.00    -0.380 N 
HETATM    8  C   UNL     1      65.229   7.972   5.325  1.00  0.00     0.123 C 
HETATM    9  C   UNL     1      65.288   6.465   5.561  1.00  0.00     0.021 C 
HETATM   10  C   UNL     1      64.181   6.241   6.561  1.00  0.00     0.021 C 
HETATM   11  C   UNL     1      63.092   7.202   6.097  1.00  0.00     0.123 C 
ENDBRANCH   1   7
BRANCH   2  12
HETATM   12  C   UNL     1      63.040   7.590   2.435  1.00  0.00     0.205 C 
BRANCH  12  13
HETATM   13  O   UNL     1      62.145   6.537   2.754  1.00  0.00    -0.396 OA
HETATM   14  H   UNL     1      62.601   5.881   3.305  1.00  0.00     0.209 HD
ENDBRANCH  12  13
ENDBRANCH   2  12
TORSDOF 3
ENDMDL
MODEL 6
REMARK VINA RESULT:      -4.3      1.900      4.790
REMARK  3 active torsions:
REMARK  status: ('A' for Active; 'I' for Inactive)
REMARK    1  A    between atoms: N_1  and  C_2 
REMARK    2  A    between atoms: C_3  and  C_6 
REMARK    3  A    between atoms: C_6  and  O_7 
ROOT
HETATM    1  C   UNL     1      63.493   8.263   5.044  1.00  0.00     0.038 A 
HETATM    2  C   UNL     1      63.179   7.065   5.756  1.00  0.00    -0.008 A 
HETATM    3  C   UNL     1      64.838   8.704   5.168  1.00  0.00     0.030 A 
HETATM    4  C   UNL     1      64.203   6.376   6.463  1.00  0.00     0.011 A 
HETATM    5  C   UNL     1      65.831   8.007   5.863  1.00  0.00     0.002 A 
HETATM    6  C   UNL     1      65.516   6.830   6.506  1.00  0.00     0.001 A 
ENDROOT
BRANCH   1   7
HETATM    7  N   UNL     1      62.607   9.013   4.286  1.00  0.00    -0.380 N 
HETATM    8  C   UNL     1      62.111   8.636   2.961  1.00  0.00     0.123 C 
HETATM    9  C   UNL     1      62.143   9.939   2.166  1.00  0.00     0.021 C 
HETATM   10  C   UNL     1      61.768  10.970   3.201  1.00  0.00     0.021 C 
HETATM   11  C   UNL     1      62.473  10.474   4.459  1.00  0.00     0.123 C 
ENDBRANCH   1   7
BRANCH   2  12
HETATM   12  C   UNL     1      61.809   6.432   5.865  1.00  0.00     0.205 C 
BRANCH  12  13
HETATM   13  O   UNL     1      61.203   6.621   7.133  1.00  0.00    -0.396 OA
HETATM   14  H   UNL     1      60.238   6.640   7.031  1.00  0.00     0.209 HD
ENDBRANCH  12  13
ENDBRANCH   2  12
TORSDOF 3
ENDMDL
MODEL 7
REMARK VINA RESULT:      -4.3      2.329      4.449
REMARK  3 active torsions:
REMARK  status: ('A' for Active; 'I' for Inactive)
REMARK    1  A    between atoms: N_1  and  C_2 
REMARK    2  A    between atoms: C_3  and  C_6 
REMARK    3  A    between atoms: C_6  and  O_7 
ROOT
HETATM    1  C   UNL     1      62.112   8.565   3.267  1.00  0.00     0.038 A 
HETATM    2  C   UNL     1      62.491   9.779   3.918  1.00  0.00    -0.008 A 
HETATM    3  C   UNL     1      62.944   7.447   3.542  1.00  0.00     0.030 A 
HETATM    4  C   UNL     1      63.594   9.782   4.818  1.00  0.00     0.011 A 
HETATM    5  C   UNL     1      64.019   7.469   4.436  1.00  0.00     0.002 A 
HETATM    6  C   UNL     1      64.341   8.641   5.086  1.00  0.00     0.001 A 
ENDROOT
BRANCH   1   7
HETATM    7  N   UNL     1      61.042   8.410   2.399  1.00  0.00    -0.380 N 
HETATM    8  C   UNL     1      59.867   7.575   2.660  1.00  0.00     0.123 C 
HETATM    9  C   UNL     1      59.600   6.882   1.326  1.00  0.00     0.021 C 
HETATM   10  C   UNL     1      59.962   7.945   0.319  1.00  0.00     0.021 C 
HETATM   11  C   UNL     1      61.181   8.616   0.943  1.00  0.00     0.123 C 
ENDBRANCH   1   7
BRANCH   2  12
HETATM   12  C   UNL     1      61.834  11.129   3.730  1.00  0.00     0.205 C 
BRANCH  12  13
HETATM   13  O   UNL     1      62.269  12.100   4.669  1.00  0.00    -0.396 OA
HETATM   14  H   UNL     1      61.503  12.595   5.000  1.00  0.00     0.209 HD
ENDBRANCH  12  13
ENDBRANCH   2  12
TORSDOF 3
ENDMDL
MODEL 8
REMARK VINA RESULT:      -4.2      3.102      6.317
REMARK  3 active torsions:
REMARK  status: ('A' for Active; 'I' for Inactive)
REMARK    1  A    between atoms: N_1  and  C_2 
REMARK    2  A    between atoms: C_3  and  C_6 
REMARK    3  A    between atoms: C_6  and  O_7 
ROOT
HETATM    1  C   UNL     1      66.203   6.409   6.779  1.00  0.00     0.038 A 
HETATM    2  C   UNL     1      67.158   5.401   6.440  1.00  0.00    -0.008 A 
HETATM    3  C   UNL     1      66.219   6.823   8.137  1.00  0.00     0.030 A 
HETATM    4  C   UNL     1      68.075   4.939   7.424  1.00  0.00     0.011 A 
HETATM    5  C   UNL     1      67.134   6.360   9.088  1.00  0.00     0.002 A 
HETATM    6  C   UNL     1      68.075   5.420   8.728  1.00  0.00     0.001 A 
ENDROOT
BRANCH   1   7
HETATM    7  N   UNL     1      65.279   6.975   5.914  1.00  0.00    -0.380 N 
HETATM    8  C   UNL     1      65.519   8.168   5.098  1.00  0.00     0.123 C 
HETATM    9  C   UNL     1      64.221   8.964   5.212  1.00  0.00     0.021 C 
HETATM   10  C   UNL     1      63.170   7.883   5.255  1.00  0.00     0.021 C 
HETATM   11  C   UNL     1      63.825   6.793   6.095  1.00  0.00     0.123 C 
ENDBRANCH   1   7
BRANCH   2  12
HETATM   12  C   UNL     1      67.292   4.724   5.093  1.00  0.00     0.205 C 
BRANCH  12  13
HETATM   13  O   UNL     1      67.601   5.625   4.041  1.00  0.00    -0.396 OA
HETATM   14  H   UNL     1      66.937   5.542   3.339  1.00  0.00     0.209 HD
ENDBRANCH  12  13
ENDBRANCH   2  12
TORSDOF 3
ENDMDL
MODEL 9
REMARK VINA RESULT:      -4.1      2.496      3.396
REMARK  3 active torsions:
REMARK  status: ('A' for Active; 'I' for Inactive)
REMARK    1  A    between atoms: N_1  and  C_2 
REMARK    2  A    between atoms: C_3  and  C_6 
REMARK    3  A    between atoms: C_6  and  O_7 
ROOT
HETATM    1  C   UNL     1      62.720   8.725   3.718  1.00  0.00     0.038 A 
HETATM    2  C   UNL     1      62.028   9.635   2.863  1.00  0.00    -0.008 A 
HETATM    3  C   UNL     1      63.204   9.285   4.931  1.00  0.00     0.030 A 
HETATM    4  C   UNL     1      61.814  10.977   3.286  1.00  0.00     0.011 A 
HETATM    5  C   UNL     1      62.977  10.606   5.331  1.00  0.00     0.002 A 
HETATM    6  C   UNL     1      62.269  11.455   4.509  1.00  0.00     0.001 A 
ENDROOT
BRANCH   1   7
HETATM    7  N   UNL     1      62.966   7.387   3.451  1.00  0.00    -0.380 N 
HETATM    8  C   UNL     1      62.028   6.294   3.720  1.00  0.00     0.123 C 
HETATM    9  C   UNL     1      62.905   5.182   4.289  1.00  0.00     0.021 C 
HETATM   10  C   UNL     1      64.185   5.333   3.505  1.00  0.00     0.021 C 
HETATM   11  C   UNL     1      64.337   6.844   3.372  1.00  0.00     0.123 C 
ENDBRANCH   1   7
BRANCH   2  12
HETATM   12  C   UNL     1      61.492   9.322   1.482  1.00  0.00     0.205 C 
BRANCH  12  13
HETATM   13  O   UNL     1      62.512   9.113   0.519  1.00  0.00    -0.396 OA
HETATM   14  H   UNL     1      63.379   9.155   0.952  1.00  0.00     0.209 HD
ENDBRANCH  12  13
ENDBRANCH   2  12
TORSDOF 3
ENDMDL
