MODEL 1
REMARK VINA RESULT:      -5.2      0.000      0.000
REMARK  3 active torsions:
REMARK  status: ('A' for Active; 'I' for Inactive)
REMARK    1  A    between atoms: C_1  and  C_3 
REMARK    2  A    between atoms: C_8  and  C_12 
REMARK    3  A    between atoms: N_9  and  C_12 
ROOT
HETATM    1  C   UNL     1      63.335   9.143   4.608  1.00  0.00    -0.018 A 
HETATM    2  C   UNL     1      62.887   8.764   3.331  1.00  0.00     0.021 A 
HETATM    3  C   UNL     1      62.080   9.608   2.547  1.00  0.00    -0.032 A 
HETATM    4  C   UNL     1      62.985  10.418   5.075  1.00  0.00     0.013 A 
HETATM    5  C   UNL     1      62.197  11.275   4.302  1.00  0.00     0.001 A 
HETATM    6  C   UNL     1      61.742  10.871   3.047  1.00  0.00     0.009 A 
ENDROOT
BRANCH   1   7
HETATM    7  C   UNL     1      64.135   8.193   5.410  1.00  0.00     0.015 A 
HETATM    8  S   UNL     1      63.392   6.859   6.205  1.00  0.00    -0.101 SA
HETATM    9  C   UNL     1      64.885   6.272   6.785  1.00  0.00     0.050 A 
HETATM   10  C   UNL     1      65.940   7.061   6.392  1.00  0.00     0.008 A 
HETATM   11  C   UNL     1      65.506   8.169   5.608  1.00  0.00     0.020 A 
ENDBRANCH   1   7
BRANCH   3  12
HETATM   12  C   UNL     1      61.588   9.154   1.192  1.00  0.00     0.270 C 
BRANCH  12  13
HETATM   13  N   UNL     1      60.167   8.805   1.233  1.00  0.00    -0.075 N 
HETATM   14  C   UNL     1      59.865   7.708   0.330  1.00  0.00     0.267 C 
HETATM   15  H   UNL     1      59.617   9.620   0.962  1.00  0.00     0.277 HD
HETATM   16  H   UNL     1      59.935   8.512   2.182  1.00  0.00     0.277 HD
ENDBRANCH  12  13
ENDBRANCH   3  12
TORSDOF 3
ENDMDL
MODEL 2
REMARK VINA RESULT:      -4.7      3.006      6.018
REMARK  3 active torsions:
REMARK  status: ('A' for Active; 'I' for Inactive)
REMARK    1  A    between atoms: C_1  and  C_3 
REMARK    2  A    between atoms: C_8  and  C_12 
REMARK    3  A    between atoms: N_9  and  C_12 
ROOT
HETATM    1  C   UNL     1      63.276   8.277   4.637  1.00  0.00    -0.018 A 
HETATM    2  C   UNL     1      64.631   8.408   4.985  1.00  0.00     0.021 A 
HETATM    3  C   UNL     1      65.224   7.605   5.975  1.00  0.00    -0.032 A 
HETATM    4  C   UNL     1      62.525   7.285   5.284  1.00  0.00     0.013 A 
HETATM    5  C   UNL     1      63.103   6.468   6.259  1.00  0.00     0.001 A 
HETATM    6  C   UNL     1      64.444   6.630   6.607  1.00  0.00     0.009 A 
ENDROOT
BRANCH   1   7
HETATM    7  C   UNL     1      62.693   9.187   3.628  1.00  0.00     0.015 A 
HETATM    8  S   UNL     1      62.211  10.785   4.048  1.00  0.00    -0.101 SA
HETATM    9  C   UNL     1      61.761  11.155   2.444  1.00  0.00     0.050 A 
HETATM   10  C   UNL     1      61.966  10.097   1.591  1.00  0.00     0.008 A 
HETATM   11  C   UNL     1      62.495   8.964   2.275  1.00  0.00     0.020 A 
ENDBRANCH   1   7
BRANCH   3  12
HETATM   12  C   UNL     1      66.676   7.796   6.348  1.00  0.00     0.270 C 
BRANCH  12  13
HETATM   13  N   UNL     1      67.488   6.653   5.926  1.00  0.00    -0.075 N 
HETATM   14  C   UNL     1      68.039   5.944   7.068  1.00  0.00     0.267 C 
HETATM   15  H   UNL     1      68.254   6.988   5.342  1.00  0.00     0.277 HD
HETATM   16  H   UNL     1      66.891   6.010   5.406  1.00  0.00     0.277 HD
ENDBRANCH  12  13
ENDBRANCH   3  12
TORSDOF 3
ENDMDL
MODEL 3
REMARK VINA RESULT:      -4.5      2.577      5.529
REMARK  3 active torsions:
REMARK  status: ('A' for Active; 'I' for Inactive)
REMARK    1  A    between atoms: C_1  and  C_3 
REMARK    2  A    between atoms: C_8  and  C_12 
REMARK    3  A    between atoms: N_9  and  C_12 
ROOT
HETATM    1  C   UNL     1      61.817   8.697   3.242  1.00  0.00    -0.018 A 
HETATM    2  C   UNL     1      62.771   7.934   3.937  1.00  0.00     0.021 A 
HETATM    3  C   UNL     1      63.599   8.501   4.922  1.00  0.00    -0.032 A 
HETATM    4  C   UNL     1      61.681  10.050   3.586  1.00  0.00     0.013 A 
HETATM    5  C   UNL     1      62.485  10.624   4.574  1.00  0.00     0.001 A 
HETATM    6  C   UNL     1      63.443   9.856   5.235  1.00  0.00     0.009 A 
ENDROOT
BRANCH   1   7
HETATM    7  C   UNL     1      61.013   8.061   2.177  1.00  0.00     0.015 A 
HETATM    8  S   UNL     1      60.347   6.488   2.389  1.00  0.00    -0.101 SA
HETATM    9  C   UNL     1      59.570   6.527   0.870  1.00  0.00     0.050 A 
HETATM   10  C   UNL     1      59.800   7.705   0.201  1.00  0.00     0.008 A 
HETATM   11  C   UNL     1      60.636   8.582   0.950  1.00  0.00     0.020 A 
ENDBRANCH   1   7
BRANCH   3  12
HETATM   12  C   UNL     1      64.639   7.658   5.626  1.00  0.00     0.270 C 
BRANCH  12  13
HETATM   13  N   UNL     1      65.646   8.495   6.280  1.00  0.00    -0.075 N 
HETATM   14  C   UNL     1      66.985   7.971   6.075  1.00  0.00     0.267 C 
HETATM   15  H   UNL     1      65.451   8.527   7.281  1.00  0.00     0.277 HD
HETATM   16  H   UNL     1      65.600   9.430   5.874  1.00  0.00     0.277 HD
ENDBRANCH  12  13
ENDBRANCH   3  12
TORSDOF 3
ENDMDL
MODEL 4
REMARK VINA RESULT:      -4.2      3.372      6.609
REMARK  3 active torsions:
REMARK  status: ('A' for Active; 'I' for Inactive)
REMARK    1  A    between atoms: C_1  and  C_3 
REMARK    2  A    between atoms: C_8  and  C_12 
REMARK    3  A    between atoms: N_9  and  C_12 
ROOT
HETATM    1  C   UNL     1      65.101   7.396   5.376  1.00  0.00    -0.018 A 
HETATM    2  C   UNL     1      65.170   6.844   6.666  1.00  0.00     0.021 A 
HETATM    3  C   UNL     1      66.397   6.512   7.266  1.00  0.00    -0.032 A 
HETATM    4  C   UNL     1      66.305   7.645   4.702  1.00  0.00     0.013 A 
HETATM    5  C   UNL     1      67.534   7.335   5.291  1.00  0.00     0.001 A 
HETATM    6  C   UNL     1      67.581   6.766   6.563  1.00  0.00     0.009 A 
ENDROOT
BRANCH   1   7
HETATM    7  C   UNL     1      63.779   7.674   4.774  1.00  0.00     0.015 A 
HETATM    8  S   UNL     1      62.450   6.609   5.021  1.00  0.00    -0.101 SA
HETATM    9  C   UNL     1      61.384   7.606   4.138  1.00  0.00     0.050 A 
HETATM   10  C   UNL     1      62.008   8.732   3.656  1.00  0.00     0.008 A 
HETATM   11  C   UNL     1      63.387   8.766   4.016  1.00  0.00     0.020 A 
ENDBRANCH   1   7
BRANCH   3  12
HETATM   12  C   UNL     1      66.433   5.889   8.643  1.00  0.00     0.270 C 
BRANCH  12  13
HETATM   13  N   UNL     1      66.399   4.427   8.566  1.00  0.00    -0.075 N 
HETATM   14  C   UNL     1      67.711   3.853   8.807  1.00  0.00     0.267 C 
HETATM   15  H   UNL     1      66.082   4.152   7.636  1.00  0.00     0.277 HD
HETATM   16  H   UNL     1      65.760   4.083   9.282  1.00  0.00     0.277 HD
ENDBRANCH  12  13
ENDBRANCH   3  12
TORSDOF 3
ENDMDL
MODEL 5
REMARK VINA RESULT:      -4.2      1.726      2.487
REMARK  3 active torsions:
REMARK  status: ('A' for Active; 'I' for Inactive)
REMARK    1  A    between atoms: C_1  and  C_3 
REMARK    2  A    between atoms: C_8  and  C_12 
REMARK    3  A    between atoms: N_9  and  C_12 
ROOT
HETATM    1  C   UNL     1      62.768   7.637   4.656  1.00  0.00    -0.018 A 
HETATM    2  C   UNL     1      62.648   8.424   3.499  1.00  0.00     0.021 A 
HETATM    3  C   UNL     1      61.464   8.452   2.740  1.00  0.00    -0.032 A 
HETATM    4  C   UNL     1      61.650   6.896   5.066  1.00  0.00     0.013 A 
HETATM    5  C   UNL     1      60.461   6.926   4.333  1.00  0.00     0.001 A 
HETATM    6  C   UNL     1      60.369   7.695   3.173  1.00  0.00     0.009 A 
ENDROOT
BRANCH   1   7
HETATM    7  C   UNL     1      64.056   7.604   5.382  1.00  0.00     0.015 A 
HETATM    8  S   UNL     1      64.406   6.351   6.509  1.00  0.00    -0.101 SA
HETATM    9  C   UNL     1      65.974   6.953   6.811  1.00  0.00     0.050 A 
HETATM   10  C   UNL     1      66.244   8.083   6.078  1.00  0.00     0.008 A 
HETATM   11  C   UNL     1      65.138   8.461   5.263  1.00  0.00     0.020 A 
ENDBRANCH   1   7
BRANCH   3  12
HETATM   12  C   UNL     1      61.380   9.285   1.481  1.00  0.00     0.270 C 
BRANCH  12  13
HETATM   13  N   UNL     1      62.326  10.401   1.518  1.00  0.00    -0.075 N 
HETATM   14  C   UNL     1      61.713  11.597   2.068  1.00  0.00     0.267 C 
HETATM   15  H   UNL     1      62.645  10.597   0.569  1.00  0.00     0.277 HD
HETATM   16  H   UNL     1      63.110  10.138   2.116  1.00  0.00     0.277 HD
ENDBRANCH  12  13
ENDBRANCH   3  12
TORSDOF 3
ENDMDL
MODEL 6
REMARK VINA RESULT:      -4.0      3.199      4.274
REMARK  3 active torsions:
REMARK  status: ('A' for Active; 'I' for Inactive)
REMARK    1  A    between atoms: C_1  and  C_3 
REMARK    2  A    between atoms: C_8  and  C_12 
REMARK    3  A    between atoms: N_9  and  C_12 
ROOT
HETATM    1  C   UNL     1      65.057   7.011   6.147  1.00  0.00    -0.018 A 
HETATM    2  C   UNL     1      63.780   6.427   6.187  1.00  0.00     0.021 A 
HETATM    3  C   UNL     1      62.664   7.042   5.592  1.00  0.00    -0.032 A 
HETATM    4  C   UNL     1      65.204   8.224   5.458  1.00  0.00     0.013 A 
HETATM    5  C   UNL     1      64.108   8.840   4.848  1.00  0.00     0.001 A 
HETATM    6  C   UNL     1      62.844   8.256   4.919  1.00  0.00     0.009 A 
ENDROOT
BRANCH   1   7
HETATM    7  C   UNL     1      66.182   6.346   6.838  1.00  0.00     0.015 A 
HETATM    8  S   UNL     1      66.345   6.427   8.549  1.00  0.00    -0.101 SA
HETATM    9  C   UNL     1      67.727   5.427   8.545  1.00  0.00     0.050 A 
HETATM   10  C   UNL     1      68.073   5.028   7.276  1.00  0.00     0.008 A 
HETATM   11  C   UNL     1      67.189   5.564   6.295  1.00  0.00     0.020 A 
ENDBRANCH   1   7
BRANCH   3  12
HETATM   12  C   UNL     1      61.297   6.402   5.683  1.00  0.00     0.270 C 
BRANCH  12  13
HETATM   13  N   UNL     1      61.278   5.331   6.680  1.00  0.00    -0.075 N 
HETATM   14  C   UNL     1      60.147   5.466   7.582  1.00  0.00     0.267 C 
HETATM   15  H   UNL     1      62.141   5.367   7.222  1.00  0.00     0.277 HD
HETATM   16  H   UNL     1      61.194   4.439   6.192  1.00  0.00     0.277 HD
ENDBRANCH  12  13
ENDBRANCH   3  12
TORSDOF 3
ENDMDL
MODEL 7
REMARK VINA RESULT:      -4.0     10.231     12.159
REMARK  3 active torsions:
REMARK  status: ('A' for Active; 'I' for Inactive)
REMARK    1  A    between atoms: C_1  and  C_3 
REMARK    2  A    between atoms: C_8  and  C_12 
REMARK    3  A    between atoms: N_9  and  C_12 
ROOT
HETATM    1  C   UNL     1      58.055   2.594  11.349  1.00  0.00    -0.018 A 
HETATM    2  C   UNL     1      56.794   2.563  11.967  1.00  0.00     0.021 A 
HETATM    3  C   UNL     1      56.621   2.084  13.278  1.00  0.00    -0.032 A 
HETATM    4  C   UNL     1      59.163   2.164  12.094  1.00  0.00     0.013 A 
HETATM    5  C   UNL     1      59.011   1.701  13.404  1.00  0.00     0.001 A 
HETATM    6  C   UNL     1      57.747   1.656  13.991  1.00  0.00     0.009 A 
ENDROOT
BRANCH   1   7
HETATM    7  C   UNL     1      58.168   3.056   9.949  1.00  0.00     0.015 A 
HETATM    8  S   UNL     1      57.420   2.186   8.666  1.00  0.00    -0.101 SA
HETATM    9  C   UNL     1      57.919   3.325   7.497  1.00  0.00     0.050 A 
HETATM   10  C   UNL     1      58.641   4.354   8.053  1.00  0.00     0.008 A 
HETATM   11  C   UNL     1      58.790   4.194   9.461  1.00  0.00     0.020 A 
ENDBRANCH   1   7
BRANCH   3  12
HETATM   12  C   UNL     1      55.245   2.033  13.900  1.00  0.00     0.270 C 
BRANCH  12  13
HETATM   13  N   UNL     1      54.989   3.217  14.723  1.00  0.00    -0.075 N 
HETATM   14  C   UNL     1      54.289   4.244  13.971  1.00  0.00     0.267 C 
HETATM   15  H   UNL     1      55.880   3.592  15.048  1.00  0.00     0.277 HD
HETATM   16  H   UNL     1      54.404   2.941  15.511  1.00  0.00     0.277 HD
ENDBRANCH  12  13
ENDBRANCH   3  12
TORSDOF 3
ENDMDL
MODEL 8
REMARK VINA RESULT:      -4.0      3.091      5.610
REMARK  3 active torsions:
REMARK  status: ('A' for Active; 'I' for Inactive)
REMARK    1  A    between atoms: C_1  and  C_3 
REMARK    2  A    between atoms: C_8  and  C_12 
REMARK    3  A    between atoms: N_9  and  C_12 
ROOT
HETATM    1  C   UNL     1      63.398   7.742   3.096  1.00  0.00    -0.018 A 
HETATM    2  C   UNL     1      64.406   7.094   3.829  1.00  0.00     0.021 A 
HETATM    3  C   UNL     1      64.892   5.827   3.463  1.00  0.00    -0.032 A 
HETATM    4  C   UNL     1      62.904   7.101   1.950  1.00  0.00     0.013 A 
HETATM    5  C   UNL     1      63.388   5.849   1.563  1.00  0.00     0.001 A 
HETATM    6  C   UNL     1      64.372   5.212   2.318  1.00  0.00     0.009 A 
ENDROOT
BRANCH   1   7
HETATM    7  C   UNL     1      62.887   9.050   3.559  1.00  0.00     0.015 A 
HETATM    8  S   UNL     1      63.196   9.605   5.159  1.00  0.00    -0.101 SA
HETATM    9  C   UNL     1      62.404  11.091   4.881  1.00  0.00     0.050 A 
HETATM   10  C   UNL     1      61.908  11.181   3.602  1.00  0.00     0.008 A 
HETATM   11  C   UNL     1      62.179  10.004   2.846  1.00  0.00     0.020 A 
ENDBRANCH   1   7
BRANCH   3  12
HETATM   12  C   UNL     1      65.954   5.143   4.294  1.00  0.00     0.270 C 
BRANCH  12  13
HETATM   13  N   UNL     1      66.291   5.934   5.479  1.00  0.00    -0.075 N 
HETATM   14  C   UNL     1      67.702   6.276   5.505  1.00  0.00     0.267 C 
HETATM   15  H   UNL     1      66.065   5.392   6.313  1.00  0.00     0.277 HD
HETATM   16  H   UNL     1      65.750   6.798   5.453  1.00  0.00     0.277 HD
ENDBRANCH  12  13
ENDBRANCH   3  12
TORSDOF 3
ENDMDL
MODEL 9
REMARK VINA RESULT:      -3.9      1.812      2.302
REMARK  3 active torsions:
REMARK  status: ('A' for Active; 'I' for Inactive)
REMARK    1  A    between atoms: C_1  and  C_3 
REMARK    2  A    between atoms: C_8  and  C_12 
REMARK    3  A    between atoms: N_9  and  C_12 
ROOT
HETATM    1  C   UNL     1      64.625   7.738   4.773  1.00  0.00    -0.018 A 
HETATM    2  C   UNL     1      64.256   7.074   3.591  1.00  0.00     0.021 A 
HETATM    3  C   UNL     1      63.226   7.553   2.762  1.00  0.00    -0.032 A 
HETATM    4  C   UNL     1      63.957   8.929   5.094  1.00  0.00     0.013 A 
HETATM    5  C   UNL     1      62.943   9.427   4.271  1.00  0.00     0.001 A 
HETATM    6  C   UNL     1      62.575   8.741   3.115  1.00  0.00     0.009 A 
ENDROOT
BRANCH   1   7
HETATM    7  C   UNL     1      65.677   7.158   5.635  1.00  0.00     0.015 A 
HETATM    8  S   UNL     1      67.201   6.696   4.984  1.00  0.00    -0.101 SA
HETATM    9  C   UNL     1      67.805   6.239   6.514  1.00  0.00     0.050 A 
HETATM   10  C   UNL     1      66.880   6.428   7.513  1.00  0.00     0.008 A 
HETATM   11  C   UNL     1      65.654   6.949   7.005  1.00  0.00     0.020 A 
ENDBRANCH   1   7
BRANCH   3  12
HETATM   12  C   UNL     1      62.832   6.795   1.514  1.00  0.00     0.270 C 
BRANCH  12  13
HETATM   13  N   UNL     1      61.696   7.429   0.845  1.00  0.00    -0.075 N 
HETATM   14  C   UNL     1      60.548   6.541   0.793  1.00  0.00     0.267 C 
HETATM   15  H   UNL     1      61.968   7.676  -0.107  1.00  0.00     0.277 HD
HETATM   16  H   UNL     1      61.435   8.261   1.374  1.00  0.00     0.277 HD
ENDBRANCH  12  13
ENDBRANCH   3  12
TORSDOF 3
ENDMDL
