MODEL 1
REMARK VINA RESULT:      -5.4      0.000      0.000
REMARK  1 active torsions:
REMARK  status: ('A' for Active; 'I' for Inactive)
REMARK    1  A    between atoms: C_5  and  C_6 
ROOT
HETATM    1  C   UNL     1      62.884   7.958   2.416  1.00  0.00     0.045 A 
HETATM    2  N   UNL     1      63.316   6.685   2.107  1.00  0.00    -0.360 N 
HETATM    3  C   UNL     1      62.984   8.700   3.606  1.00  0.00     0.049 A 
HETATM    4  C   UNL     1      62.985   6.374   0.814  1.00  0.00     0.091 A 
HETATM    5  C   UNL     1      62.458  10.001   3.618  1.00  0.00     0.043 A 
HETATM    6  C   UNL     1      62.344   7.464   0.270  1.00  0.00     0.031 A 
HETATM    7  C   UNL     1      62.277   8.473   1.268  1.00  0.00    -0.008 A 
HETATM    8  C   UNL     1      61.852  10.534   2.477  1.00  0.00     0.019 A 
HETATM    9  C   UNL     1      61.754   9.781   1.300  1.00  0.00     0.015 A 
HETATM   10  C   UNL     1      64.033   5.813   3.009  1.00  0.00     0.155 C 
ENDROOT
BRANCH   5  11
HETATM   11  C   UNL     1      62.529  10.849   4.834  1.00  0.00     0.209 C 
HETATM   12  O   UNL     1      63.035  10.536   5.897  1.00  0.00    -0.644 OA
HETATM   13  O   UNL     1      61.959  12.057   4.665  1.00  0.00    -0.644 OA
ENDBRANCH   5  11
TORSDOF 1
ENDMDL
MODEL 2
REMARK VINA RESULT:      -5.1      1.807      2.546
REMARK  1 active torsions:
REMARK  status: ('A' for Active; 'I' for Inactive)
REMARK    1  A    between atoms: C_5  and  C_6 
ROOT
HETATM    1  C   UNL     1      64.530   7.765   4.473  1.00  0.00     0.045 A 
HETATM    2  N   UNL     1      65.497   6.800   4.665  1.00  0.00    -0.360 N 
HETATM    3  C   UNL     1      64.256   8.947   5.183  1.00  0.00     0.049 A 
HETATM    4  C   UNL     1      65.374   5.812   3.724  1.00  0.00     0.091 A 
HETATM    5  C   UNL     1      63.200   9.755   4.734  1.00  0.00     0.043 A 
HETATM    6  C   UNL     1      64.324   6.145   2.898  1.00  0.00     0.031 A 
HETATM    7  C   UNL     1      63.784   7.378   3.356  1.00  0.00    -0.008 A 
HETATM    8  C   UNL     1      62.447   9.387   3.616  1.00  0.00     0.019 A 
HETATM    9  C   UNL     1      62.727   8.202   2.922  1.00  0.00     0.015 A 
HETATM   10  C   UNL     1      66.507   6.837   5.697  1.00  0.00     0.155 C 
ENDROOT
BRANCH   5  11
HETATM   11  C   UNL     1      62.851  11.021   5.426  1.00  0.00     0.209 C 
HETATM   12  O   UNL     1      63.200  11.343   6.548  1.00  0.00    -0.644 OA
HETATM   13  O   UNL     1      62.075  11.829   4.680  1.00  0.00    -0.644 OA
ENDBRANCH   5  11
TORSDOF 1
ENDMDL
MODEL 3
REMARK VINA RESULT:      -5.0      1.899      2.600
REMARK  1 active torsions:
REMARK  status: ('A' for Active; 'I' for Inactive)
REMARK    1  A    between atoms: C_5  and  C_6 
ROOT
HETATM    1  C   UNL     1      62.880   7.986   2.487  1.00  0.00     0.045 A 
HETATM    2  N   UNL     1      62.642   7.356   1.283  1.00  0.00    -0.360 N 
HETATM    3  C   UNL     1      63.698   7.620   3.570  1.00  0.00     0.049 A 
HETATM    4  C   UNL     1      61.755   8.084   0.535  1.00  0.00     0.091 A 
HETATM    5  C   UNL     1      63.754   8.485   4.674  1.00  0.00     0.043 A 
HETATM    6  C   UNL     1      61.424   9.210   1.253  1.00  0.00     0.031 A 
HETATM    7  C   UNL     1      62.130   9.164   2.486  1.00  0.00    -0.008 A 
HETATM    8  C   UNL     1      63.014   9.671   4.688  1.00  0.00     0.019 A 
HETATM    9  C   UNL     1      62.199  10.019   3.604  1.00  0.00     0.015 A 
HETATM   10  C   UNL     1      63.257   6.117   0.862  1.00  0.00     0.155 C 
ENDROOT
BRANCH   5  11
HETATM   11  C   UNL     1      64.598   8.173   5.855  1.00  0.00     0.209 C 
HETATM   12  O   UNL     1      64.393   7.290   6.668  1.00  0.00    -0.644 OA
HETATM   13  O   UNL     1      65.666   8.985   5.966  1.00  0.00    -0.644 OA
ENDBRANCH   5  11
TORSDOF 1
ENDMDL
MODEL 4
REMARK VINA RESULT:      -5.0      2.261      3.626
REMARK  1 active torsions:
REMARK  status: ('A' for Active; 'I' for Inactive)
REMARK    1  A    between atoms: C_5  and  C_6 
ROOT
HETATM    1  C   UNL     1      62.844   9.009   3.161  1.00  0.00     0.045 A 
HETATM    2  N   UNL     1      62.108   9.965   2.492  1.00  0.00    -0.360 N 
HETATM    3  C   UNL     1      63.477   9.046   4.415  1.00  0.00     0.049 A 
HETATM    4  C   UNL     1      61.693   9.480   1.279  1.00  0.00     0.091 A 
HETATM    5  C   UNL     1      64.150   7.893   4.849  1.00  0.00     0.043 A 
HETATM    6  C   UNL     1      62.149   8.187   1.164  1.00  0.00     0.031 A 
HETATM    7  C   UNL     1      62.875   7.874   2.346  1.00  0.00    -0.008 A 
HETATM    8  C   UNL     1      64.186   6.747   4.050  1.00  0.00     0.019 A 
HETATM    9  C   UNL     1      63.556   6.727   2.798  1.00  0.00     0.015 A 
HETATM   10  C   UNL     1      61.801  11.280   3.005  1.00  0.00     0.155 C 
ENDROOT
BRANCH   5  11
HETATM   11  C   UNL     1      64.838   7.852   6.163  1.00  0.00     0.209 C 
HETATM   12  O   UNL     1      64.532   7.149   7.109  1.00  0.00    -0.644 OA
HETATM   13  O   UNL     1      65.882   8.698   6.235  1.00  0.00    -0.644 OA
ENDBRANCH   5  11
TORSDOF 1
ENDMDL
MODEL 5
REMARK VINA RESULT:      -4.9      1.839      1.923
REMARK  1 active torsions:
REMARK  status: ('A' for Active; 'I' for Inactive)
REMARK    1  A    between atoms: C_5  and  C_6 
ROOT
HETATM    1  C   UNL     1      60.878   7.956   2.662  1.00  0.00     0.045 A 
HETATM    2  N   UNL     1      60.266   6.723   2.563  1.00  0.00    -0.360 N 
HETATM    3  C   UNL     1      61.291   8.691   3.787  1.00  0.00     0.049 A 
HETATM    4  C   UNL     1      60.041   6.410   1.249  1.00  0.00     0.091 A 
HETATM    5  C   UNL     1      61.912   9.931   3.573  1.00  0.00     0.043 A 
HETATM    6  C   UNL     1      60.526   7.444   0.481  1.00  0.00     0.031 A 
HETATM    7  C   UNL     1      61.061   8.425   1.359  1.00  0.00    -0.008 A 
HETATM    8  C   UNL     1      62.109  10.413   2.276  1.00  0.00     0.019 A 
HETATM    9  C   UNL     1      61.687   9.673   1.164  1.00  0.00     0.015 A 
HETATM   10  C   UNL     1      59.932   5.875   3.684  1.00  0.00     0.155 C 
ENDROOT
BRANCH   5  11
HETATM   11  C   UNL     1      62.381  10.764   4.708  1.00  0.00     0.209 C 
HETATM   12  O   UNL     1      63.056  10.380   5.646  1.00  0.00    -0.644 OA
HETATM   13  O   UNL     1      61.980  12.046   4.618  1.00  0.00    -0.644 OA
ENDBRANCH   5  11
TORSDOF 1
ENDMDL
MODEL 6
REMARK VINA RESULT:      -4.8      1.230      2.702
REMARK  1 active torsions:
REMARK  status: ('A' for Active; 'I' for Inactive)
REMARK    1  A    between atoms: C_5  and  C_6 
ROOT
HETATM    1  C   UNL     1      63.323   7.687   3.038  1.00  0.00     0.045 A 
HETATM    2  N   UNL     1      63.000   6.828   2.008  1.00  0.00    -0.360 N 
HETATM    3  C   UNL     1      62.728   8.891   3.454  1.00  0.00     0.049 A 
HETATM    4  C   UNL     1      63.877   5.776   1.975  1.00  0.00     0.091 A 
HETATM    5  C   UNL     1      63.277   9.547   4.566  1.00  0.00     0.043 A 
HETATM    6  C   UNL     1      64.773   5.943   3.005  1.00  0.00     0.031 A 
HETATM    7  C   UNL     1      64.434   7.143   3.688  1.00  0.00    -0.008 A 
HETATM    8  C   UNL     1      64.384   9.015   5.232  1.00  0.00     0.019 A 
HETATM    9  C   UNL     1      64.971   7.818   4.802  1.00  0.00     0.015 A 
HETATM   10  C   UNL     1      61.883   7.002   1.107  1.00  0.00     0.155 C 
ENDROOT
BRANCH   5  11
HETATM   11  C   UNL     1      62.702  10.820   5.070  1.00  0.00     0.209 C 
HETATM   12  O   UNL     1      61.955  11.560   4.457  1.00  0.00    -0.644 OA
HETATM   13  O   UNL     1      63.094  11.111   6.325  1.00  0.00    -0.644 OA
ENDBRANCH   5  11
TORSDOF 1
ENDMDL
MODEL 7
REMARK VINA RESULT:      -4.7      2.385      3.161
REMARK  1 active torsions:
REMARK  status: ('A' for Active; 'I' for Inactive)
REMARK    1  A    between atoms: C_5  and  C_6 
ROOT
HETATM    1  C   UNL     1      63.249   7.956   4.837  1.00  0.00     0.045 A 
HETATM    2  N   UNL     1      64.201   7.220   5.511  1.00  0.00    -0.360 N 
HETATM    3  C   UNL     1      63.206   9.321   4.504  1.00  0.00     0.049 A 
HETATM    4  C   UNL     1      63.806   5.912   5.612  1.00  0.00     0.091 A 
HETATM    5  C   UNL     1      62.096   9.790   3.786  1.00  0.00     0.043 A 
HETATM    6  C   UNL     1      62.588   5.791   4.982  1.00  0.00     0.031 A 
HETATM    7  C   UNL     1      62.226   7.073   4.484  1.00  0.00    -0.008 A 
HETATM    8  C   UNL     1      61.066   8.919   3.419  1.00  0.00     0.019 A 
HETATM    9  C   UNL     1      61.118   7.562   3.764  1.00  0.00     0.015 A 
HETATM   10  C   UNL     1      65.447   7.749   6.019  1.00  0.00     0.155 C 
ENDROOT
BRANCH   5  11
HETATM   11  C   UNL     1      61.980  11.216   3.391  1.00  0.00     0.209 C 
HETATM   12  O   UNL     1      61.975  11.646   2.252  1.00  0.00    -0.644 OA
HETATM   13  O   UNL     1      61.876  12.045   4.447  1.00  0.00    -0.644 OA
ENDBRANCH   5  11
TORSDOF 1
ENDMDL
MODEL 8
REMARK VINA RESULT:      -4.6      2.911      4.451
REMARK  1 active torsions:
REMARK  status: ('A' for Active; 'I' for Inactive)
REMARK    1  A    between atoms: C_5  and  C_6 
ROOT
HETATM    1  C   UNL     1      62.540   9.482   3.100  1.00  0.00     0.045 A 
HETATM    2  N   UNL     1      62.445  10.535   3.986  1.00  0.00    -0.360 N 
HETATM    3  C   UNL     1      63.038   8.178   3.269  1.00  0.00     0.049 A 
HETATM    4  C   UNL     1      61.897  11.627   3.367  1.00  0.00     0.091 A 
HETATM    5  C   UNL     1      62.988   7.306   2.171  1.00  0.00     0.043 A 
HETATM    6  C   UNL     1      61.615  11.277   2.067  1.00  0.00     0.031 A 
HETATM    7  C   UNL     1      62.013   9.924   1.884  1.00  0.00    -0.008 A 
HETATM    8  C   UNL     1      62.458   7.729   0.949  1.00  0.00     0.019 A 
HETATM    9  C   UNL     1      61.971   9.033   0.793  1.00  0.00     0.015 A 
HETATM   10  C   UNL     1      62.847  10.485   5.374  1.00  0.00     0.155 C 
ENDROOT
BRANCH   5  11
HETATM   11  C   UNL     1      63.489   5.912   2.271  1.00  0.00     0.209 C 
HETATM   12  O   UNL     1      62.908   4.913   1.888  1.00  0.00    -0.644 OA
HETATM   13  O   UNL     1      64.701   5.831   2.853  1.00  0.00    -0.644 OA
ENDBRANCH   5  11
TORSDOF 1
ENDMDL
MODEL 9
REMARK VINA RESULT:      -4.5      2.393      3.307
REMARK  1 active torsions:
REMARK  status: ('A' for Active; 'I' for Inactive)
REMARK    1  A    between atoms: C_5  and  C_6 
ROOT
HETATM    1  C   UNL     1      61.312   7.542   3.906  1.00  0.00     0.045 A 
HETATM    2  N   UNL     1      60.594   6.402   3.609  1.00  0.00    -0.360 N 
HETATM    3  C   UNL     1      61.187   8.859   3.428  1.00  0.00     0.049 A 
HETATM    4  C   UNL     1      61.085   5.336   4.316  1.00  0.00     0.091 A 
HETATM    5  C   UNL     1      62.064   9.829   3.935  1.00  0.00     0.043 A 
HETATM    6  C   UNL     1      62.124   5.790   5.095  1.00  0.00     0.031 A 
HETATM    7  C   UNL     1      62.277   7.182   4.850  1.00  0.00    -0.008 A 
HETATM    8  C   UNL     1      63.032   9.488   4.885  1.00  0.00     0.019 A 
HETATM    9  C   UNL     1      63.149   8.171   5.347  1.00  0.00     0.015 A 
HETATM   10  C   UNL     1      59.473   6.345   2.699  1.00  0.00     0.155 C 
ENDROOT
BRANCH   5  11
HETATM   11  C   UNL     1      61.993  11.242   3.486  1.00  0.00     0.209 C 
HETATM   12  O   UNL     1      61.902  12.219   4.207  1.00  0.00    -0.644 OA
HETATM   13  O   UNL     1      62.037  11.368   2.146  1.00  0.00    -0.644 OA
ENDBRANCH   5  11
TORSDOF 1
ENDMDL
