MODEL 1
REMARK VINA RESULT:      -5.2      0.000      0.000
REMARK  4 active torsions:
REMARK  status: ('A' for Active; 'I' for Inactive)
REMARK    1  A    between atoms: C_1  and  C_3 
REMARK    2  A    between atoms: C_1  and  O_9 
REMARK    3  A    between atoms: N_2  and  C_5 
REMARK    4  A    between atoms: C_5  and  C_8 
ROOT
HETATM    1  C   UNL     1      62.822   8.751   4.032  1.00  0.00     0.039 A 
HETATM    2  C   UNL     1      63.350   7.572   3.489  1.00  0.00     0.018 A 
HETATM    3  C   UNL     1      63.552   9.425   5.019  1.00  0.00     0.018 A 
HETATM    4  C   UNL     1      65.339   7.773   4.882  1.00  0.00    -0.033 A 
HETATM    5  C   UNL     1      64.595   7.084   3.912  1.00  0.00     0.010 A 
HETATM    6  C   UNL     1      64.794   8.936   5.443  1.00  0.00     0.010 A 
ENDROOT
BRANCH   4   7
HETATM    7  C   UNL     1      66.720   7.287   5.299  1.00  0.00     0.273 C 
BRANCH   7   8
HETATM    8  N   UNL     1      66.694   6.270   6.370  1.00  0.00    -0.067 N 
HETATM    9  C   UNL     1      67.684   5.205   6.135  1.00  0.00     0.235 C 
HETATM   10  C   UNL     1      67.629   4.136   7.231  1.00  0.00     0.028 C 
HETATM   11  C   UNL     1      67.812   4.746   8.614  1.00  0.00     0.003 C 
HETATM   12  C   UNL     1      66.817   5.882   8.818  1.00  0.00     0.028 C 
HETATM   13  C   UNL     1      66.915   6.904   7.682  1.00  0.00     0.235 C 
HETATM   14  H   UNL     1      65.771   5.836   6.361  1.00  0.00     0.280 HD
ENDBRANCH   7   8
ENDBRANCH   4   7
BRANCH   1  15
HETATM   15  C   UNL     1      61.504   9.254   3.529  1.00  0.00     0.292 C 
HETATM   16  O   UNL     1      60.621   8.525   3.115  1.00  0.00    -0.259 OA
BRANCH  15  17
HETATM   17  O   UNL     1      61.452  10.611   3.594  1.00  0.00    -0.323 OA
HETATM   18  C   UNL     1      61.820  11.312   2.401  1.00  0.00     0.213 C 
ENDBRANCH  15  17
ENDBRANCH   1  15
TORSDOF 4
ENDMDL
MODEL 2
REMARK VINA RESULT:      -5.1      3.632      6.986
REMARK  4 active torsions:
REMARK  status: ('A' for Active; 'I' for Inactive)
REMARK    1  A    between atoms: C_1  and  C_3 
REMARK    2  A    between atoms: C_1  and  O_9 
REMARK    3  A    between atoms: N_2  and  C_5 
REMARK    4  A    between atoms: C_5  and  C_8 
ROOT
HETATM    1  C   UNL     1      66.088   6.313   6.530  1.00  0.00     0.039 A 
HETATM    2  C   UNL     1      64.741   5.973   6.716  1.00  0.00     0.018 A 
HETATM    3  C   UNL     1      66.397   7.489   5.833  1.00  0.00     0.018 A 
HETATM    4  C   UNL     1      64.028   7.993   5.555  1.00  0.00    -0.033 A 
HETATM    5  C   UNL     1      63.720   6.803   6.230  1.00  0.00     0.010 A 
HETATM    6  C   UNL     1      65.376   8.315   5.345  1.00  0.00     0.010 A 
ENDROOT
BRANCH   4   7
HETATM    7  C   UNL     1      62.927   8.931   5.082  1.00  0.00     0.273 C 
BRANCH   7   8
HETATM    8  N   UNL     1      62.868   9.086   3.614  1.00  0.00    -0.067 N 
HETATM    9  C   UNL     1      62.401   7.854   2.953  1.00  0.00     0.235 C 
HETATM   10  C   UNL     1      62.374   8.011   1.430  1.00  0.00     0.028 C 
HETATM   11  C   UNL     1      61.526   9.203   1.007  1.00  0.00     0.003 C 
HETATM   12  C   UNL     1      61.987  10.456   1.741  1.00  0.00     0.028 C 
HETATM   13  C   UNL     1      62.005  10.226   3.255  1.00  0.00     0.235 C 
HETATM   14  H   UNL     1      63.815   9.269   3.284  1.00  0.00     0.280 HD
ENDBRANCH   7   8
ENDBRANCH   4   7
BRANCH   1  15
HETATM   15  C   UNL     1      67.147   5.417   7.093  1.00  0.00     0.292 C 
HETATM   16  O   UNL     1      67.987   4.858   6.411  1.00  0.00    -0.259 OA
BRANCH  15  17
HETATM   17  O   UNL     1      67.023   5.317   8.443  1.00  0.00    -0.323 OA
HETATM   18  C   UNL     1      68.075   5.905   9.217  1.00  0.00     0.213 C 
ENDBRANCH  15  17
ENDBRANCH   1  15
TORSDOF 4
ENDMDL
MODEL 3
REMARK VINA RESULT:      -4.9      3.660      7.206
REMARK  4 active torsions:
REMARK  status: ('A' for Active; 'I' for Inactive)
REMARK    1  A    between atoms: C_1  and  C_3 
REMARK    2  A    between atoms: C_1  and  O_9 
REMARK    3  A    between atoms: N_2  and  C_5 
REMARK    4  A    between atoms: C_5  and  C_8 
ROOT
HETATM    1  C   UNL     1      64.384   8.256   4.807  1.00  0.00     0.039 A 
HETATM    2  C   UNL     1      64.213   7.312   3.786  1.00  0.00     0.018 A 
HETATM    3  C   UNL     1      63.554   9.384   4.830  1.00  0.00     0.018 A 
HETATM    4  C   UNL     1      62.367   8.600   2.851  1.00  0.00    -0.033 A 
HETATM    5  C   UNL     1      63.215   7.484   2.814  1.00  0.00     0.010 A 
HETATM    6  C   UNL     1      62.561   9.556   3.857  1.00  0.00     0.010 A 
ENDROOT
BRANCH   4   7
HETATM    7  C   UNL     1      61.241   8.760   1.840  1.00  0.00     0.273 C 
BRANCH   7   8
HETATM    8  N   UNL     1      60.193   7.725   1.947  1.00  0.00    -0.067 N 
HETATM    9  C   UNL     1      59.576   7.709   3.285  1.00  0.00     0.235 C 
HETATM   10  C   UNL     1      58.514   6.611   3.400  1.00  0.00     0.028 C 
HETATM   11  C   UNL     1      57.451   6.748   2.319  1.00  0.00     0.003 C 
HETATM   12  C   UNL     1      58.110   6.819   0.947  1.00  0.00     0.028 C 
HETATM   13  C   UNL     1      59.169   7.925   0.906  1.00  0.00     0.235 C 
HETATM   14  H   UNL     1      60.638   6.818   1.806  1.00  0.00     0.280 HD
ENDBRANCH   7   8
ENDBRANCH   4   7
BRANCH   1  15
HETATM   15  C   UNL     1      65.439   8.019   5.843  1.00  0.00     0.292 C 
HETATM   16  O   UNL     1      66.596   8.378   5.720  1.00  0.00    -0.259 OA
BRANCH  15  17
HETATM   17  O   UNL     1      64.923   7.349   6.908  1.00  0.00    -0.323 OA
HETATM   18  C   UNL     1      65.835   6.505   7.622  1.00  0.00     0.213 C 
ENDBRANCH  15  17
ENDBRANCH   1  15
TORSDOF 4
ENDMDL
MODEL 4
REMARK VINA RESULT:      -4.7      1.441      2.285
REMARK  4 active torsions:
REMARK  status: ('A' for Active; 'I' for Inactive)
REMARK    1  A    between atoms: C_1  and  C_3 
REMARK    2  A    between atoms: C_1  and  O_9 
REMARK    3  A    between atoms: N_2  and  C_5 
REMARK    4  A    between atoms: C_5  and  C_8 
ROOT
HETATM    1  C   UNL     1      62.734   8.615   3.049  1.00  0.00     0.039 A 
HETATM    2  C   UNL     1      62.999   9.193   4.299  1.00  0.00     0.018 A 
HETATM    3  C   UNL     1      62.967   7.244   2.877  1.00  0.00     0.018 A 
HETATM    4  C   UNL     1      63.680   7.032   5.198  1.00  0.00    -0.033 A 
HETATM    5  C   UNL     1      63.471   8.409   5.363  1.00  0.00     0.010 A 
HETATM    6  C   UNL     1      63.442   6.464   3.939  1.00  0.00     0.010 A 
ENDROOT
BRANCH   4   7
HETATM    7  C   UNL     1      64.129   6.164   6.364  1.00  0.00     0.273 C 
BRANCH   7   8
HETATM    8  N   UNL     1      65.594   5.999   6.453  1.00  0.00    -0.067 N 
HETATM    9  C   UNL     1      66.089   6.241   7.820  1.00  0.00     0.235 C 
HETATM   10  C   UNL     1      67.613   6.101   7.897  1.00  0.00     0.028 C 
HETATM   11  C   UNL     1      68.074   4.741   7.391  1.00  0.00     0.003 C 
HETATM   12  C   UNL     1      67.507   4.485   6.000  1.00  0.00     0.028 C 
HETATM   13  C   UNL     1      65.985   4.655   5.990  1.00  0.00     0.235 C 
HETATM   14  H   UNL     1      66.021   6.698   5.845  1.00  0.00     0.280 HD
ENDBRANCH   7   8
ENDBRANCH   4   7
BRANCH   1  15
HETATM   15  C   UNL     1      62.201   9.480   1.950  1.00  0.00     0.292 C 
HETATM   16  O   UNL     1      62.410   9.271   0.768  1.00  0.00    -0.259 OA
BRANCH  15  17
HETATM   17  O   UNL     1      61.476  10.511   2.459  1.00  0.00    -0.323 OA
HETATM   18  C   UNL     1      61.794  11.813   1.954  1.00  0.00     0.213 C 
ENDBRANCH  15  17
ENDBRANCH   1  15
TORSDOF 4
ENDMDL
MODEL 5
REMARK VINA RESULT:      -4.4      3.617      7.124
REMARK  4 active torsions:
REMARK  status: ('A' for Active; 'I' for Inactive)
REMARK    1  A    between atoms: C_1  and  C_3 
REMARK    2  A    between atoms: C_1  and  O_9 
REMARK    3  A    between atoms: N_2  and  C_5 
REMARK    4  A    between atoms: C_5  and  C_8 
ROOT
HETATM    1  C   UNL     1      65.338   7.293   5.021  1.00  0.00     0.039 A 
HETATM    2  C   UNL     1      64.804   6.637   3.903  1.00  0.00     0.018 A 
HETATM    3  C   UNL     1      64.818   8.543   5.381  1.00  0.00     0.018 A 
HETATM    4  C   UNL     1      63.218   8.453   3.544  1.00  0.00    -0.033 A 
HETATM    5  C   UNL     1      63.756   7.213   3.169  1.00  0.00     0.010 A 
HETATM    6  C   UNL     1      63.774   9.118   4.645  1.00  0.00     0.010 A 
ENDROOT
BRANCH   4   7
HETATM    7  C   UNL     1      62.039   9.053   2.793  1.00  0.00     0.273 C 
BRANCH   7   8
HETATM    8  N   UNL     1      61.142   8.046   2.190  1.00  0.00    -0.067 N 
HETATM    9  C   UNL     1      60.015   7.717   3.078  1.00  0.00     0.235 C 
HETATM   10  C   UNL     1      59.108   6.647   2.461  1.00  0.00     0.028 C 
HETATM   11  C   UNL     1      58.605   7.068   1.087  1.00  0.00     0.003 C 
HETATM   12  C   UNL     1      59.781   7.458   0.200  1.00  0.00     0.028 C 
HETATM   13  C   UNL     1      60.652   8.517   0.882  1.00  0.00     0.235 C 
HETATM   14  H   UNL     1      61.684   7.192   2.054  1.00  0.00     0.280 HD
ENDBRANCH   7   8
ENDBRANCH   4   7
BRANCH   1  15
HETATM   15  C   UNL     1      66.433   6.629   5.796  1.00  0.00     0.292 C 
HETATM   16  O   UNL     1      66.977   5.598   5.442  1.00  0.00    -0.259 OA
BRANCH  15  17
HETATM   17  O   UNL     1      66.711   7.327   6.928  1.00  0.00    -0.323 OA
HETATM   18  C   UNL     1      66.545   6.618   8.161  1.00  0.00     0.213 C 
ENDBRANCH  15  17
ENDBRANCH   1  15
TORSDOF 4
ENDMDL
MODEL 6
REMARK VINA RESULT:      -4.4      5.042      7.468
REMARK  4 active torsions:
REMARK  status: ('A' for Active; 'I' for Inactive)
REMARK    1  A    between atoms: C_1  and  C_3 
REMARK    2  A    between atoms: C_1  and  O_9 
REMARK    3  A    between atoms: N_2  and  C_5 
REMARK    4  A    between atoms: C_5  and  C_8 
ROOT
HETATM    1  C   UNL     1      58.693   5.525   6.965  1.00  0.00     0.039 A 
HETATM    2  C   UNL     1      59.999   5.639   7.462  1.00  0.00     0.018 A 
HETATM    3  C   UNL     1      58.432   5.943   5.653  1.00  0.00     0.018 A 
HETATM    4  C   UNL     1      60.775   6.539   5.334  1.00  0.00    -0.033 A 
HETATM    5  C   UNL     1      61.030   6.145   6.655  1.00  0.00     0.010 A 
HETATM    6  C   UNL     1      59.462   6.451   4.850  1.00  0.00     0.010 A 
ENDROOT
BRANCH   4   7
HETATM    7  C   UNL     1      61.899   7.027   4.432  1.00  0.00     0.273 C 
BRANCH   7   8
HETATM    8  N   UNL     1      61.545   8.216   3.631  1.00  0.00    -0.067 N 
HETATM    9  C   UNL     1      62.252   9.421   4.100  1.00  0.00     0.235 C 
HETATM   10  C   UNL     1      61.855  10.656   3.287  1.00  0.00     0.028 C 
HETATM   11  C   UNL     1      62.087  10.442   1.797  1.00  0.00     0.003 C 
HETATM   12  C   UNL     1      61.395   9.163   1.342  1.00  0.00     0.028 C 
HETATM   13  C   UNL     1      61.824   7.972   2.204  1.00  0.00     0.235 C 
HETATM   14  H   UNL     1      60.545   8.383   3.750  1.00  0.00     0.280 HD
ENDBRANCH   7   8
ENDBRANCH   4   7
BRANCH   1  15
HETATM   15  C   UNL     1      57.630   4.951   7.847  1.00  0.00     0.292 C 
HETATM   16  O   UNL     1      57.792   4.718   9.032  1.00  0.00    -0.259 OA
BRANCH  15  17
HETATM   17  O   UNL     1      56.490   4.724   7.141  1.00  0.00    -0.323 OA
HETATM   18  C   UNL     1      55.261   4.959   7.838  1.00  0.00     0.213 C 
ENDBRANCH  15  17
ENDBRANCH   1  15
TORSDOF 4
ENDMDL
MODEL 7
REMARK VINA RESULT:      -4.4      1.954      2.767
REMARK  4 active torsions:
REMARK  status: ('A' for Active; 'I' for Inactive)
REMARK    1  A    between atoms: C_1  and  C_3 
REMARK    2  A    between atoms: C_1  and  O_9 
REMARK    3  A    between atoms: N_2  and  C_5 
REMARK    4  A    between atoms: C_5  and  C_8 
ROOT
HETATM    1  C   UNL     1      61.665   8.041   2.420  1.00  0.00     0.039 A 
HETATM    2  C   UNL     1      62.724   7.128   2.512  1.00  0.00     0.018 A 
HETATM    3  C   UNL     1      61.652   9.148   3.278  1.00  0.00     0.018 A 
HETATM    4  C   UNL     1      63.763   8.449   4.277  1.00  0.00    -0.033 A 
HETATM    5  C   UNL     1      63.762   7.328   3.434  1.00  0.00     0.010 A 
HETATM    6  C   UNL     1      62.687   9.345   4.201  1.00  0.00     0.010 A 
ENDROOT
BRANCH   4   7
HETATM    7  C   UNL     1      64.918   8.708   5.234  1.00  0.00     0.273 C 
BRANCH   7   8
HETATM    8  N   UNL     1      65.678   7.493   5.591  1.00  0.00    -0.067 N 
HETATM    9  C   UNL     1      67.126   7.756   5.661  1.00  0.00     0.235 C 
HETATM   10  C   UNL     1      67.911   6.484   5.998  1.00  0.00     0.028 C 
HETATM   11  C   UNL     1      67.415   5.850   7.291  1.00  0.00     0.003 C 
HETATM   12  C   UNL     1      65.909   5.636   7.221  1.00  0.00     0.028 C 
HETATM   13  C   UNL     1      65.188   6.940   6.867  1.00  0.00     0.235 C 
HETATM   14  H   UNL     1      65.528   6.806   4.851  1.00  0.00     0.280 HD
ENDBRANCH   7   8
ENDBRANCH   4   7
BRANCH   1  15
HETATM   15  C   UNL     1      60.594   7.808   1.400  1.00  0.00     0.292 C 
HETATM   16  O   UNL     1      60.166   8.679   0.664  1.00  0.00    -0.259 OA
BRANCH  15  17
HETATM   17  O   UNL     1      60.178   6.515   1.428  1.00  0.00    -0.323 OA
HETATM   18  C   UNL     1      59.266   6.125   0.394  1.00  0.00     0.213 C 
ENDBRANCH  15  17
ENDBRANCH   1  15
TORSDOF 4
ENDMDL
MODEL 8
REMARK VINA RESULT:      -4.4      5.455      7.674
REMARK  4 active torsions:
REMARK  status: ('A' for Active; 'I' for Inactive)
REMARK    1  A    between atoms: C_1  and  C_3 
REMARK    2  A    between atoms: C_1  and  O_9 
REMARK    3  A    between atoms: N_2  and  C_5 
REMARK    4  A    between atoms: C_5  and  C_8 
ROOT
HETATM    1  C   UNL     1      59.235   5.702   7.133  1.00  0.00     0.039 A 
HETATM    2  C   UNL     1      60.493   5.466   6.560  1.00  0.00     0.018 A 
HETATM    3  C   UNL     1      58.209   6.207   6.324  1.00  0.00     0.018 A 
HETATM    4  C   UNL     1      59.681   6.196   4.381  1.00  0.00    -0.033 A 
HETATM    5  C   UNL     1      60.715   5.714   5.197  1.00  0.00     0.010 A 
HETATM    6  C   UNL     1      58.434   6.458   4.964  1.00  0.00     0.010 A 
ENDROOT
BRANCH   4   7
HETATM    7  C   UNL     1      59.895   6.406   2.889  1.00  0.00     0.273 C 
BRANCH   7   8
HETATM    8  N   UNL     1      60.958   7.382   2.572  1.00  0.00    -0.067 N 
HETATM    9  C   UNL     1      60.982   7.716   1.137  1.00  0.00     0.235 C 
HETATM   10  C   UNL     1      62.107   8.702   0.810  1.00  0.00     0.028 C 
HETATM   11  C   UNL     1      62.005   9.965   1.655  1.00  0.00     0.003 C 
HETATM   12  C   UNL     1      61.926   9.597   3.131  1.00  0.00     0.028 C 
HETATM   13  C   UNL     1      60.792   8.599   3.386  1.00  0.00     0.235 C 
HETATM   14  H   UNL     1      61.853   6.949   2.800  1.00  0.00     0.280 HD
ENDBRANCH   7   8
ENDBRANCH   4   7
BRANCH   1  15
HETATM   15  C   UNL     1      59.031   5.393   8.583  1.00  0.00     0.292 C 
HETATM   16  O   UNL     1      58.661   6.217   9.401  1.00  0.00    -0.259 OA
BRANCH  15  17
HETATM   17  O   UNL     1      59.324   4.091   8.843  1.00  0.00    -0.323 OA
HETATM   18  C   UNL     1      58.518   3.451   9.839  1.00  0.00     0.213 C 
ENDBRANCH  15  17
ENDBRANCH   1  15
TORSDOF 4
ENDMDL
MODEL 9
REMARK VINA RESULT:      -4.4      5.705      7.957
REMARK  4 active torsions:
REMARK  status: ('A' for Active; 'I' for Inactive)
REMARK    1  A    between atoms: C_1  and  C_3 
REMARK    2  A    between atoms: C_1  and  O_9 
REMARK    3  A    between atoms: N_2  and  C_5 
REMARK    4  A    between atoms: C_5  and  C_8 
ROOT
HETATM    1  C   UNL     1      56.859   6.483   6.352  1.00  0.00     0.039 A 
HETATM    2  C   UNL     1      56.903   7.044   5.068  1.00  0.00     0.018 A 
HETATM    3  C   UNL     1      58.021   5.897   6.872  1.00  0.00     0.018 A 
HETATM    4  C   UNL     1      59.262   6.471   4.854  1.00  0.00    -0.033 A 
HETATM    5  C   UNL     1      58.092   7.035   4.324  1.00  0.00     0.010 A 
HETATM    6  C   UNL     1      59.207   5.886   6.127  1.00  0.00     0.010 A 
ENDROOT
BRANCH   4   7
HETATM    7  C   UNL     1      60.572   6.515   4.081  1.00  0.00     0.273 C 
BRANCH   7   8
HETATM    8  N   UNL     1      60.686   7.673   3.170  1.00  0.00    -0.067 N 
HETATM    9  C   UNL     1      61.760   8.591   3.586  1.00  0.00     0.235 C 
HETATM   10  C   UNL     1      61.851   9.806   2.657  1.00  0.00     0.028 C 
HETATM   11  C   UNL     1      62.035   9.385   1.205  1.00  0.00     0.003 C 
HETATM   12  C   UNL     1      60.948   8.393   0.810  1.00  0.00     0.028 C 
HETATM   13  C   UNL     1      60.902   7.214   1.786  1.00  0.00     0.235 C 
HETATM   14  H   UNL     1      59.808   8.190   3.215  1.00  0.00     0.280 HD
ENDBRANCH   7   8
ENDBRANCH   4   7
BRANCH   1  15
HETATM   15  C   UNL     1      55.579   6.543   7.125  1.00  0.00     0.292 C 
HETATM   16  O   UNL     1      55.528   6.542   8.342  1.00  0.00    -0.259 OA
BRANCH  15  17
HETATM   17  O   UNL     1      54.512   6.587   6.285  1.00  0.00    -0.323 OA
HETATM   18  C   UNL     1      53.298   6.010   6.778  1.00  0.00     0.213 C 
ENDBRANCH  15  17
ENDBRANCH   1  15
TORSDOF 4
ENDMDL
