MODEL 1
REMARK VINA RESULT:      -5.6      0.000      0.000
REMARK  1 active torsions:
REMARK  status: ('A' for Active; 'I' for Inactive)
REMARK    1  A    between atoms: C_5  and  C_7 
ROOT
HETATM    1  C   UNL     1      62.868   8.967   3.430  1.00  0.00     0.009 A 
HETATM    2  C   UNL     1      63.393   9.045   4.755  1.00  0.00     0.032 A 
HETATM    3  N   UNL     1      63.766   6.995   4.001  1.00  0.00    -0.360 N 
HETATM    4  C   UNL     1      63.126   7.665   2.977  1.00  0.00     0.045 A 
HETATM    5  C   UNL     1      62.197   9.867   2.562  1.00  0.00     0.053 A 
HETATM    6  C   UNL     1      63.938   7.822   5.076  1.00  0.00     0.091 A 
HETATM    7  C   UNL     1      62.753   7.228   1.696  1.00  0.00     0.030 A 
HETATM    8  C   UNL     1      64.184   5.611   3.950  1.00  0.00     0.155 C 
HETATM    9  C   UNL     1      61.822   9.425   1.279  1.00  0.00     0.019 A 
HETATM   10  C   UNL     1      62.098   8.128   0.856  1.00  0.00     0.003 A 
ENDROOT
BRANCH   5  11
HETATM   11  C   UNL     1      61.899  11.251   3.010  1.00  0.00     0.210 C 
HETATM   12  O   UNL     1      61.684  11.631   4.145  1.00  0.00    -0.644 OA
HETATM   13  O   UNL     1      61.881  12.127   1.985  1.00  0.00    -0.644 OA
ENDBRANCH   5  11
TORSDOF 1
ENDMDL
MODEL 2
REMARK VINA RESULT:      -5.4      2.821      4.177
REMARK  1 active torsions:
REMARK  status: ('A' for Active; 'I' for Inactive)
REMARK    1  A    between atoms: C_5  and  C_7 
ROOT
HETATM    1  C   UNL     1      62.875   9.301   4.443  1.00  0.00     0.009 A 
HETATM    2  C   UNL     1      62.705  10.490   5.214  1.00  0.00     0.032 A 
HETATM    3  N   UNL     1      62.082  10.939   3.136  1.00  0.00    -0.360 N 
HETATM    4  C   UNL     1      62.465   9.612   3.138  1.00  0.00     0.045 A 
HETATM    5  C   UNL     1      63.335   7.986   4.713  1.00  0.00     0.053 A 
HETATM    6  C   UNL     1      62.216  11.475   4.386  1.00  0.00     0.091 A 
HETATM    7  C   UNL     1      62.486   8.668   2.099  1.00  0.00     0.030 A 
HETATM    8  C   UNL     1      61.617  11.664   1.974  1.00  0.00     0.155 C 
HETATM    9  C   UNL     1      63.357   7.043   3.668  1.00  0.00     0.019 A 
HETATM   10  C   UNL     1      62.938   7.381   2.384  1.00  0.00     0.003 A 
ENDROOT
BRANCH   5  11
HETATM   11  C   UNL     1      63.785   7.622   6.080  1.00  0.00     0.210 C 
HETATM   12  O   UNL     1      64.928   7.473   6.467  1.00  0.00    -0.644 OA
HETATM   13  O   UNL     1      62.752   7.451   6.930  1.00  0.00    -0.644 OA
ENDBRANCH   5  11
TORSDOF 1
ENDMDL
MODEL 3
REMARK VINA RESULT:      -5.4      2.654      4.083
REMARK  1 active torsions:
REMARK  status: ('A' for Active; 'I' for Inactive)
REMARK    1  A    between atoms: C_5  and  C_7 
ROOT
HETATM    1  C   UNL     1      63.337   8.453   3.740  1.00  0.00     0.009 A 
HETATM    2  C   UNL     1      63.676   7.214   3.117  1.00  0.00     0.032 A 
HETATM    3  N   UNL     1      62.187   8.230   1.829  1.00  0.00    -0.360 N 
HETATM    4  C   UNL     1      62.402   9.076   2.900  1.00  0.00     0.045 A 
HETATM    5  C   UNL     1      63.724   9.116   4.933  1.00  0.00     0.053 A 
HETATM    6  C   UNL     1      62.957   7.107   1.948  1.00  0.00     0.091 A 
HETATM    7  C   UNL     1      61.848  10.332   3.194  1.00  0.00     0.030 A 
HETATM    8  C   UNL     1      61.268   8.489   0.743  1.00  0.00     0.155 C 
HETATM    9  C   UNL     1      63.165  10.374   5.227  1.00  0.00     0.019 A 
HETATM   10  C   UNL     1      62.243  10.969   4.369  1.00  0.00     0.003 A 
ENDROOT
BRANCH   5  11
HETATM   11  C   UNL     1      64.704   8.483   5.851  1.00  0.00     0.210 C 
HETATM   12  O   UNL     1      65.875   8.777   6.000  1.00  0.00    -0.644 OA
HETATM   13  O   UNL     1      64.161   7.477   6.565  1.00  0.00    -0.644 OA
ENDBRANCH   5  11
TORSDOF 1
ENDMDL
MODEL 4
REMARK VINA RESULT:      -5.2      1.249      1.597
REMARK  1 active torsions:
REMARK  status: ('A' for Active; 'I' for Inactive)
REMARK    1  A    between atoms: C_5  and  C_7 
ROOT
HETATM    1  C   UNL     1      62.779   8.687   3.832  1.00  0.00     0.009 A 
HETATM    2  C   UNL     1      63.252   7.893   4.920  1.00  0.00     0.032 A 
HETATM    3  N   UNL     1      63.044   6.566   3.158  1.00  0.00    -0.360 N 
HETATM    4  C   UNL     1      62.665   7.825   2.732  1.00  0.00     0.045 A 
HETATM    5  C   UNL     1      62.432  10.052   3.662  1.00  0.00     0.053 A 
HETATM    6  C   UNL     1      63.406   6.599   4.475  1.00  0.00     0.091 A 
HETATM    7  C   UNL     1      62.232   8.268   1.472  1.00  0.00     0.030 A 
HETATM    8  C   UNL     1      63.044   5.379   2.332  1.00  0.00     0.155 C 
HETATM    9  C   UNL     1      61.995  10.493   2.398  1.00  0.00     0.019 A 
HETATM   10  C   UNL     1      61.899   9.613   1.324  1.00  0.00     0.003 A 
ENDROOT
BRANCH   5  11
HETATM   11  C   UNL     1      62.531  10.993   4.806  1.00  0.00     0.210 C 
HETATM   12  O   UNL     1      63.130  10.827   5.851  1.00  0.00    -0.644 OA
HETATM   13  O   UNL     1      61.853  12.139   4.586  1.00  0.00    -0.644 OA
ENDBRANCH   5  11
TORSDOF 1
ENDMDL
MODEL 5
REMARK VINA RESULT:      -4.9      1.803      2.943
REMARK  1 active torsions:
REMARK  status: ('A' for Active; 'I' for Inactive)
REMARK    1  A    between atoms: C_5  and  C_7 
ROOT
HETATM    1  C   UNL     1      63.091   8.376   3.291  1.00  0.00     0.009 A 
HETATM    2  C   UNL     1      63.628   7.102   2.934  1.00  0.00     0.032 A 
HETATM    3  N   UNL     1      64.521   7.690   4.874  1.00  0.00    -0.360 N 
HETATM    4  C   UNL     1      63.666   8.717   4.524  1.00  0.00     0.045 A 
HETATM    5  C   UNL     1      62.174   9.281   2.697  1.00  0.00     0.053 A 
HETATM    6  C   UNL     1      64.499   6.707   3.924  1.00  0.00     0.091 A 
HETATM    7  C   UNL     1      63.358   9.913   5.191  1.00  0.00     0.030 A 
HETATM    8  C   UNL     1      65.334   7.662   6.070  1.00  0.00     0.155 C 
HETATM    9  C   UNL     1      61.870  10.481   3.366  1.00  0.00     0.019 A 
HETATM   10  C   UNL     1      62.453  10.788   4.593  1.00  0.00     0.003 A 
ENDROOT
BRANCH   5  11
HETATM   11  C   UNL     1      61.552   8.958   1.388  1.00  0.00     0.210 C 
HETATM   12  O   UNL     1      60.402   8.623   1.179  1.00  0.00    -0.644 OA
HETATM   13  O   UNL     1      62.424   9.072   0.365  1.00  0.00    -0.644 OA
ENDBRANCH   5  11
TORSDOF 1
ENDMDL
MODEL 6
REMARK VINA RESULT:      -4.9      1.337      2.983
REMARK  1 active torsions:
REMARK  status: ('A' for Active; 'I' for Inactive)
REMARK    1  A    between atoms: C_5  and  C_7 
ROOT
HETATM    1  C   UNL     1      61.807   8.892   2.334  1.00  0.00     0.009 A 
HETATM    2  C   UNL     1      61.039   8.943   1.133  1.00  0.00     0.032 A 
HETATM    3  N   UNL     1      61.572   6.824   1.503  1.00  0.00    -0.360 N 
HETATM    4  C   UNL     1      62.122   7.541   2.547  1.00  0.00     0.045 A 
HETATM    5  C   UNL     1      62.272   9.852   3.270  1.00  0.00     0.053 A 
HETATM    6  C   UNL     1      60.910   7.660   0.648  1.00  0.00     0.091 A 
HETATM    7  C   UNL     1      62.869   7.110   3.655  1.00  0.00     0.030 A 
HETATM    8  C   UNL     1      61.690   5.393   1.330  1.00  0.00     0.155 C 
HETATM    9  C   UNL     1      63.024   9.416   4.377  1.00  0.00     0.019 A 
HETATM   10  C   UNL     1      63.315   8.067   4.564  1.00  0.00     0.003 A 
ENDROOT
BRANCH   5  11
HETATM   11  C   UNL     1      61.967  11.291   3.073  1.00  0.00     0.210 C 
HETATM   12  O   UNL     1      61.918  11.900   2.022  1.00  0.00    -0.644 OA
HETATM   13  O   UNL     1      61.729  11.927   4.239  1.00  0.00    -0.644 OA
ENDBRANCH   5  11
TORSDOF 1
ENDMDL
MODEL 7
REMARK VINA RESULT:      -4.8      1.744      3.071
REMARK  1 active torsions:
REMARK  status: ('A' for Active; 'I' for Inactive)
REMARK    1  A    between atoms: C_5  and  C_7 
ROOT
HETATM    1  C   UNL     1      62.360   8.608   3.941  1.00  0.00     0.009 A 
HETATM    2  C   UNL     1      61.044   8.726   3.400  1.00  0.00     0.032 A 
HETATM    3  N   UNL     1      61.838   6.740   2.817  1.00  0.00    -0.360 N 
HETATM    4  C   UNL     1      62.832   7.342   3.565  1.00  0.00     0.045 A 
HETATM    5  C   UNL     1      63.206   9.444   4.714  1.00  0.00     0.053 A 
HETATM    6  C   UNL     1      60.752   7.565   2.718  1.00  0.00     0.091 A 
HETATM    7  C   UNL     1      64.103   6.874   3.934  1.00  0.00     0.030 A 
HETATM    8  C   UNL     1      61.935   5.430   2.213  1.00  0.00     0.155 C 
HETATM    9  C   UNL     1      64.481   8.973   5.081  1.00  0.00     0.019 A 
HETATM   10  C   UNL     1      64.918   7.709   4.697  1.00  0.00     0.003 A 
ENDROOT
BRANCH   5  11
HETATM   11  C   UNL     1      62.744  10.794   5.124  1.00  0.00     0.210 C 
HETATM   12  O   UNL     1      62.072  11.575   4.477  1.00  0.00    -0.644 OA
HETATM   13  O   UNL     1      63.158  11.122   6.366  1.00  0.00    -0.644 OA
ENDBRANCH   5  11
TORSDOF 1
ENDMDL
MODEL 8
REMARK VINA RESULT:      -4.6      2.553      4.038
REMARK  1 active torsions:
REMARK  status: ('A' for Active; 'I' for Inactive)
REMARK    1  A    between atoms: C_5  and  C_7 
ROOT
HETATM    1  C   UNL     1      62.370   8.410   3.872  1.00  0.00     0.009 A 
HETATM    2  C   UNL     1      62.468   9.237   2.713  1.00  0.00     0.032 A 
HETATM    3  N   UNL     1      60.643   7.998   2.504  1.00  0.00    -0.360 N 
HETATM    4  C   UNL     1      61.204   7.646   3.717  1.00  0.00     0.045 A 
HETATM    5  C   UNL     1      63.150   8.227   5.043  1.00  0.00     0.053 A 
HETATM    6  C   UNL     1      61.395   8.962   1.894  1.00  0.00     0.091 A 
HETATM    7  C   UNL     1      60.781   6.718   4.681  1.00  0.00     0.030 A 
HETATM    8  C   UNL     1      59.439   7.419   1.952  1.00  0.00     0.155 C 
HETATM    9  C   UNL     1      62.724   7.294   6.007  1.00  0.00     0.019 A 
HETATM   10  C   UNL     1      61.558   6.555   5.827  1.00  0.00     0.003 A 
ENDROOT
BRANCH   5  11
HETATM   11  C   UNL     1      64.395   9.012   5.238  1.00  0.00     0.210 C 
HETATM   12  O   UNL     1      65.537   8.652   5.027  1.00  0.00    -0.644 OA
HETATM   13  O   UNL     1      64.149  10.253   5.707  1.00  0.00    -0.644 OA
ENDBRANCH   5  11
TORSDOF 1
ENDMDL
MODEL 9
REMARK VINA RESULT:      -4.5      2.703      3.935
REMARK  1 active torsions:
REMARK  status: ('A' for Active; 'I' for Inactive)
REMARK    1  A    between atoms: C_5  and  C_7 
ROOT
HETATM    1  C   UNL     1      64.266   7.143   3.848  1.00  0.00     0.009 A 
HETATM    2  C   UNL     1      65.003   5.937   3.648  1.00  0.00     0.032 A 
HETATM    3  N   UNL     1      63.688   6.223   1.887  1.00  0.00    -0.360 N 
HETATM    4  C   UNL     1      63.452   7.302   2.716  1.00  0.00     0.045 A 
HETATM    5  C   UNL     1      64.202   8.122   4.872  1.00  0.00     0.053 A 
HETATM    6  C   UNL     1      64.628   5.397   2.437  1.00  0.00     0.091 A 
HETATM    7  C   UNL     1      62.587   8.397   2.562  1.00  0.00     0.030 A 
HETATM    8  C   UNL     1      63.027   5.991   0.622  1.00  0.00     0.155 C 
HETATM    9  C   UNL     1      63.332   9.218   4.715  1.00  0.00     0.019 A 
HETATM   10  C   UNL     1      62.541   9.350   3.577  1.00  0.00     0.003 A 
ENDROOT
BRANCH   5  11
HETATM   11  C   UNL     1      65.043   7.983   6.088  1.00  0.00     0.210 C 
HETATM   12  O   UNL     1      64.952   7.138   6.957  1.00  0.00    -0.644 OA
HETATM   13  O   UNL     1      65.990   8.940   6.167  1.00  0.00    -0.644 OA
ENDBRANCH   5  11
TORSDOF 1
ENDMDL
