MODEL 1
REMARK VINA RESULT:      -5.7      0.000      0.000
REMARK  4 active torsions:
REMARK  status: ('A' for Active; 'I' for Inactive)
REMARK    1  A    between atoms: N_1  and  C_3 
REMARK    2  A    between atoms: C_3  and  C_8 
REMARK    3  A    between atoms: C_9  and  C_16 
REMARK    4  A    between atoms: O_15  and  C_16 
ROOT
HETATM    1  C   UNL     1      63.738   7.254   6.031  1.00  0.00     0.273 C 
ENDROOT
BRANCH   1   2
HETATM    2  N   UNL     1      65.129   7.481   6.469  1.00  0.00    -0.064 N 
HETATM    3  C   UNL     1      65.471   6.673   7.659  1.00  0.00     0.263 C 
HETATM    4  C   UNL     1      66.954   6.817   8.072  1.00  0.00     0.262 C 
HETATM    5  N   UNL     1      67.927   6.526   7.002  1.00  0.00    -0.072 N 
HETATM    6  C   UNL     1      67.558   7.302   5.802  1.00  0.00     0.262 C 
HETATM    7  C   UNL     1      68.004   5.094   6.722  1.00  0.00     0.269 C 
HETATM    8  H   UNL     1      68.859   6.805   7.307  1.00  0.00     0.279 HD
HETATM    9  C   UNL     1      66.073   7.188   5.373  1.00  0.00     0.263 C 
HETATM   10  H   UNL     1      65.207   8.465   6.725  1.00  0.00     0.280 HD
ENDBRANCH   1   2
BRANCH   1  11
HETATM   11  C   UNL     1      63.299   8.203   4.932  1.00  0.00    -0.033 A 
HETATM   12  C   UNL     1      63.002   9.540   5.226  1.00  0.00     0.009 A 
HETATM   13  C   UNL     1      62.477  10.385   4.245  1.00  0.00     0.010 A 
HETATM   14  C   UNL     1      62.249   9.912   2.948  1.00  0.00    -0.035 A 
HETATM   15  C   UNL     1      62.602   8.591   2.638  1.00  0.00     0.010 A 
HETATM   16  C   UNL     1      63.124   7.745   3.619  1.00  0.00     0.009 A 
BRANCH  14  17
HETATM   17  C   UNL     1      61.590  10.783   1.913  1.00  0.00     0.202 C 
BRANCH  17  18
HETATM   18  O   UNL     1      62.139  12.093   1.917  1.00  0.00    -0.396 OA
HETATM   19  H   UNL     1      62.634  12.239   1.096  1.00  0.00     0.209 HD
ENDBRANCH  17  18
ENDBRANCH  14  17
ENDBRANCH   1  11
TORSDOF 4
ENDMDL
MODEL 2
REMARK VINA RESULT:      -5.1      1.478      2.310
REMARK  4 active torsions:
REMARK  status: ('A' for Active; 'I' for Inactive)
REMARK    1  A    between atoms: N_1  and  C_3 
REMARK    2  A    between atoms: C_3  and  C_8 
REMARK    3  A    between atoms: C_9  and  C_16 
REMARK    4  A    between atoms: O_15  and  C_16 
ROOT
HETATM    1  C   UNL     1      65.962   7.571   5.441  1.00  0.00     0.273 C 
ENDROOT
BRANCH   1   2
HETATM    2  N   UNL     1      65.706   6.729   6.625  1.00  0.00    -0.064 N 
HETATM    3  C   UNL     1      65.868   5.291   6.323  1.00  0.00     0.263 C 
HETATM    4  C   UNL     1      65.707   4.397   7.575  1.00  0.00     0.262 C 
HETATM    5  N   UNL     1      66.585   4.749   8.706  1.00  0.00    -0.072 N 
HETATM    6  C   UNL     1      66.452   6.194   8.978  1.00  0.00     0.262 C 
HETATM    7  C   UNL     1      67.971   4.368   8.448  1.00  0.00     0.269 C 
HETATM    8  H   UNL     1      66.298   4.226   9.534  1.00  0.00     0.279 HD
HETATM    9  C   UNL     1      66.595   7.114   7.738  1.00  0.00     0.263 C 
HETATM   10  H   UNL     1      64.736   6.884   6.902  1.00  0.00     0.280 HD
ENDBRANCH   1   2
BRANCH   1  11
HETATM   11  C   UNL     1      64.699   7.914   4.672  1.00  0.00    -0.033 A 
HETATM   12  C   UNL     1      64.326   7.162   3.550  1.00  0.00     0.009 A 
HETATM   13  C   UNL     1      63.237   7.548   2.764  1.00  0.00     0.010 A 
HETATM   14  C   UNL     1      62.495   8.688   3.091  1.00  0.00    -0.035 A 
HETATM   15  C   UNL     1      62.831   9.406   4.247  1.00  0.00     0.010 A 
HETATM   16  C   UNL     1      63.922   9.022   5.031  1.00  0.00     0.009 A 
BRANCH  14  17
HETATM   17  C   UNL     1      61.385   9.169   2.195  1.00  0.00     0.202 C 
BRANCH  17  18
HETATM   18  O   UNL     1      61.486  10.565   1.955  1.00  0.00    -0.396 OA
HETATM   19  H   UNL     1      62.420  10.825   1.943  1.00  0.00     0.209 HD
ENDBRANCH  17  18
ENDBRANCH  14  17
ENDBRANCH   1  11
TORSDOF 4
ENDMDL
MODEL 3
REMARK VINA RESULT:      -4.9      4.033      6.243
REMARK  4 active torsions:
REMARK  status: ('A' for Active; 'I' for Inactive)
REMARK    1  A    between atoms: N_1  and  C_3 
REMARK    2  A    between atoms: C_3  and  C_8 
REMARK    3  A    between atoms: C_9  and  C_16 
REMARK    4  A    between atoms: O_15  and  C_16 
ROOT
HETATM    1  C   UNL     1      62.121   7.517   1.787  1.00  0.00     0.273 C 
ENDROOT
BRANCH   1   2
HETATM    2  N   UNL     1      60.916   6.737   2.129  1.00  0.00    -0.064 N 
HETATM    3  C   UNL     1      60.759   6.578   3.590  1.00  0.00     0.263 C 
HETATM    4  C   UNL     1      59.447   5.855   3.973  1.00  0.00     0.262 C 
HETATM    5  N   UNL     1      58.220   6.462   3.425  1.00  0.00    -0.072 N 
HETATM    6  C   UNL     1      58.396   6.658   1.973  1.00  0.00     0.262 C 
HETATM    7  C   UNL     1      57.888   7.710   4.107  1.00  0.00     0.269 C 
HETATM    8  H   UNL     1      57.431   5.835   3.584  1.00  0.00     0.279 HD
HETATM    9  C   UNL     1      59.710   7.369   1.558  1.00  0.00     0.263 C 
HETATM   10  H   UNL     1      61.032   5.809   1.723  1.00  0.00     0.280 HD
ENDBRANCH   1   2
BRANCH   1  11
HETATM   11  C   UNL     1      62.467   8.563   2.830  1.00  0.00    -0.033 A 
HETATM   12  C   UNL     1      63.378   8.271   3.854  1.00  0.00     0.009 A 
HETATM   13  C   UNL     1      63.604   9.183   4.888  1.00  0.00     0.010 A 
HETATM   14  C   UNL     1      62.932  10.411   4.911  1.00  0.00    -0.035 A 
HETATM   15  C   UNL     1      62.066  10.728   3.856  1.00  0.00     0.010 A 
HETATM   16  C   UNL     1      61.837   9.815   2.824  1.00  0.00     0.009 A 
BRANCH  14  17
HETATM   17  C   UNL     1      63.092  11.356   6.072  1.00  0.00     0.202 C 
BRANCH  17  18
HETATM   18  O   UNL     1      64.453  11.465   6.463  1.00  0.00    -0.396 OA
HETATM   19  H   UNL     1      64.900  12.115   5.899  1.00  0.00     0.209 HD
ENDBRANCH  17  18
ENDBRANCH  14  17
ENDBRANCH   1  11
TORSDOF 4
ENDMDL
MODEL 4
REMARK VINA RESULT:      -4.7      3.428      6.627
REMARK  4 active torsions:
REMARK  status: ('A' for Active; 'I' for Inactive)
REMARK    1  A    between atoms: N_1  and  C_3 
REMARK    2  A    between atoms: C_3  and  C_8 
REMARK    3  A    between atoms: C_9  and  C_16 
REMARK    4  A    between atoms: O_15  and  C_16 
ROOT
HETATM    1  C   UNL     1      62.923   8.633   4.927  1.00  0.00     0.273 C 
ENDROOT
BRANCH   1   2
HETATM    2  N   UNL     1      62.953   8.763   3.457  1.00  0.00    -0.064 N 
HETATM    3  C   UNL     1      62.613   7.492   2.784  1.00  0.00     0.263 C 
HETATM    4  C   UNL     1      62.536   7.633   1.246  1.00  0.00     0.262 C 
HETATM    5  N   UNL     1      61.623   8.687   0.765  1.00  0.00    -0.072 N 
HETATM    6  C   UNL     1      61.939   9.946   1.469  1.00  0.00     0.262 C 
HETATM    7  C   UNL     1      60.224   8.304   0.934  1.00  0.00     0.269 C 
HETATM    8  H   UNL     1      61.761   8.823  -0.237  1.00  0.00     0.279 HD
HETATM    9  C   UNL     1      62.036   9.831   3.012  1.00  0.00     0.263 C 
HETATM   10  H   UNL     1      63.908   9.011   3.196  1.00  0.00     0.280 HD
ENDBRANCH   1   2
BRANCH   1  11
HETATM   11  C   UNL     1      64.133   7.906   5.483  1.00  0.00    -0.033 A 
HETATM   12  C   UNL     1      63.972   6.848   6.388  1.00  0.00     0.009 A 
HETATM   13  C   UNL     1      65.082   6.260   7.000  1.00  0.00     0.010 A 
HETATM   14  C   UNL     1      66.375   6.711   6.711  1.00  0.00    -0.035 A 
HETATM   15  C   UNL     1      66.540   7.729   5.762  1.00  0.00     0.010 A 
HETATM   16  C   UNL     1      65.431   8.320   5.152  1.00  0.00     0.009 A 
BRANCH  14  17
HETATM   17  C   UNL     1      67.568   6.153   7.441  1.00  0.00     0.202 C 
BRANCH  17  18
HETATM   18  O   UNL     1      67.789   6.839   8.664  1.00  0.00    -0.396 OA
HETATM   19  H   UNL     1      68.720   6.747   8.923  1.00  0.00     0.209 HD
ENDBRANCH  17  18
ENDBRANCH  14  17
ENDBRANCH   1  11
TORSDOF 4
ENDMDL
MODEL 5
REMARK VINA RESULT:      -4.6      4.164      5.265
REMARK  4 active torsions:
REMARK  status: ('A' for Active; 'I' for Inactive)
REMARK    1  A    between atoms: N_1  and  C_3 
REMARK    2  A    between atoms: C_3  and  C_8 
REMARK    3  A    between atoms: C_9  and  C_16 
REMARK    4  A    between atoms: O_15  and  C_16 
ROOT
HETATM    1  C   UNL     1      63.277   5.593   5.523  1.00  0.00     0.273 C 
ENDROOT
BRANCH   1   2
HETATM    2  N   UNL     1      64.208   6.453   6.279  1.00  0.00    -0.064 N 
HETATM    3  C   UNL     1      65.154   5.660   7.090  1.00  0.00     0.263 C 
HETATM    4  C   UNL     1      66.206   6.537   7.808  1.00  0.00     0.262 C 
HETATM    5  N   UNL     1      66.972   7.435   6.924  1.00  0.00    -0.072 N 
HETATM    6  C   UNL     1      66.025   8.196   6.085  1.00  0.00     0.262 C 
HETATM    7  C   UNL     1      67.942   6.697   6.118  1.00  0.00     0.269 C 
HETATM    8  H   UNL     1      67.515   8.088   7.490  1.00  0.00     0.279 HD
HETATM    9  C   UNL     1      64.950   7.342   5.364  1.00  0.00     0.263 C 
HETATM   10  H   UNL     1      63.647   7.019   6.915  1.00  0.00     0.280 HD
ENDBRANCH   1   2
BRANCH   1  11
HETATM   11  C   UNL     1      62.031   5.231   6.311  1.00  0.00    -0.033 A 
HETATM   12  C   UNL     1      61.081   6.210   6.628  1.00  0.00     0.009 A 
HETATM   13  C   UNL     1      59.999   5.911   7.459  1.00  0.00     0.010 A 
HETATM   14  C   UNL     1      59.840   4.622   7.981  1.00  0.00    -0.035 A 
HETATM   15  C   UNL     1      60.757   3.626   7.616  1.00  0.00     0.010 A 
HETATM   16  C   UNL     1      61.842   3.927   6.787  1.00  0.00     0.009 A 
BRANCH  14  17
HETATM   17  C   UNL     1      58.737   4.315   8.957  1.00  0.00     0.202 C 
BRANCH  17  18
HETATM   18  O   UNL     1      58.687   5.279   9.998  1.00  0.00    -0.396 OA
HETATM   19  H   UNL     1      59.585   5.459  10.316  1.00  0.00     0.209 HD
ENDBRANCH  17  18
ENDBRANCH  14  17
ENDBRANCH   1  11
TORSDOF 4
ENDMDL
MODEL 6
REMARK VINA RESULT:      -4.6      3.452      6.591
REMARK  4 active torsions:
REMARK  status: ('A' for Active; 'I' for Inactive)
REMARK    1  A    between atoms: N_1  and  C_3 
REMARK    2  A    between atoms: C_3  and  C_8 
REMARK    3  A    between atoms: C_9  and  C_16 
REMARK    4  A    between atoms: O_15  and  C_16 
ROOT
HETATM    1  C   UNL     1      64.372   7.191   3.511  1.00  0.00     0.273 C 
ENDROOT
BRANCH   1   2
HETATM    2  N   UNL     1      63.047   7.839   3.479  1.00  0.00    -0.064 N 
HETATM    3  C   UNL     1      63.072   9.174   4.112  1.00  0.00     0.263 C 
HETATM    4  C   UNL     1      61.719   9.914   3.997  1.00  0.00     0.262 C 
HETATM    5  N   UNL     1      61.201  10.048   2.623  1.00  0.00    -0.072 N 
HETATM    6  C   UNL     1      61.216   8.719   1.979  1.00  0.00     0.262 C 
HETATM    7  C   UNL     1      61.958  11.034   1.856  1.00  0.00     0.269 C 
HETATM    8  H   UNL     1      60.240  10.392   2.655  1.00  0.00     0.279 HD
HETATM    9  C   UNL     1      62.556   7.948   2.092  1.00  0.00     0.263 C 
HETATM   10  H   UNL     1      62.410   7.250   4.015  1.00  0.00     0.280 HD
ENDBRANCH   1   2
BRANCH   1  11
HETATM   11  C   UNL     1      64.993   7.175   4.895  1.00  0.00    -0.033 A 
HETATM   12  C   UNL     1      66.139   7.935   5.168  1.00  0.00     0.009 A 
HETATM   13  C   UNL     1      66.788   7.827   6.401  1.00  0.00     0.010 A 
HETATM   14  C   UNL     1      66.297   6.966   7.389  1.00  0.00    -0.035 A 
HETATM   15  C   UNL     1      65.117   6.252   7.138  1.00  0.00     0.010 A 
HETATM   16  C   UNL     1      64.470   6.356   5.905  1.00  0.00     0.009 A 
BRANCH  14  17
HETATM   17  C   UNL     1      67.044   6.767   8.680  1.00  0.00     0.202 C 
BRANCH  17  18
HETATM   18  O   UNL     1      67.102   5.393   9.035  1.00  0.00    -0.396 OA
HETATM   19  H   UNL     1      67.936   5.212   9.495  1.00  0.00     0.209 HD
ENDBRANCH  17  18
ENDBRANCH  14  17
ENDBRANCH   1  11
TORSDOF 4
ENDMDL
MODEL 7
REMARK VINA RESULT:      -4.2      2.196      3.053
REMARK  4 active torsions:
REMARK  status: ('A' for Active; 'I' for Inactive)
REMARK    1  A    between atoms: N_1  and  C_3 
REMARK    2  A    between atoms: C_3  and  C_8 
REMARK    3  A    between atoms: C_9  and  C_16 
REMARK    4  A    between atoms: O_15  and  C_16 
ROOT
HETATM    1  C   UNL     1      65.782   5.654   3.819  1.00  0.00     0.273 C 
ENDROOT
BRANCH   1   2
HETATM    2  N   UNL     1      65.987   4.814   5.015  1.00  0.00    -0.064 N 
HETATM    3  C   UNL     1      67.226   5.174   5.735  1.00  0.00     0.263 C 
HETATM    4  C   UNL     1      67.406   4.377   7.048  1.00  0.00     0.262 C 
HETATM    5  N   UNL     1      66.270   4.459   7.984  1.00  0.00    -0.072 N 
HETATM    6  C   UNL     1      65.028   4.139   7.252  1.00  0.00     0.262 C 
HETATM    7  C   UNL     1      66.200   5.766   8.631  1.00  0.00     0.269 C 
HETATM    8  H   UNL     1      66.398   3.779   8.734  1.00  0.00     0.279 HD
HETATM    9  C   UNL     1      64.829   4.914   5.924  1.00  0.00     0.263 C 
HETATM   10  H   UNL     1      66.080   3.850   4.694  1.00  0.00     0.280 HD
ENDBRANCH   1   2
BRANCH   1  11
HETATM   11  C   UNL     1      65.117   6.981   4.133  1.00  0.00    -0.033 A 
HETATM   12  C   UNL     1      65.680   7.852   5.075  1.00  0.00     0.009 A 
HETATM   13  C   UNL     1      65.008   9.015   5.461  1.00  0.00     0.010 A 
HETATM   14  C   UNL     1      63.764   9.334   4.903  1.00  0.00    -0.035 A 
HETATM   15  C   UNL     1      63.228   8.493   3.918  1.00  0.00     0.010 A 
HETATM   16  C   UNL     1      63.899   7.329   3.534  1.00  0.00     0.009 A 
BRANCH  14  17
HETATM   17  C   UNL     1      62.986  10.528   5.386  1.00  0.00     0.202 C 
BRANCH  17  18
HETATM   18  O   UNL     1      63.777  11.351   6.231  1.00  0.00    -0.396 OA
HETATM   19  H   UNL     1      64.373  10.796   6.757  1.00  0.00     0.209 HD
ENDBRANCH  17  18
ENDBRANCH  14  17
ENDBRANCH   1  11
TORSDOF 4
ENDMDL
MODEL 8
REMARK VINA RESULT:      -4.2      4.094      6.911
REMARK  4 active torsions:
REMARK  status: ('A' for Active; 'I' for Inactive)
REMARK    1  A    between atoms: N_1  and  C_3 
REMARK    2  A    between atoms: C_3  and  C_8 
REMARK    3  A    between atoms: C_9  and  C_16 
REMARK    4  A    between atoms: O_15  and  C_16 
ROOT
HETATM    1  C   UNL     1      61.762   8.108   2.168  1.00  0.00     0.273 C 
ENDROOT
BRANCH   1   2
HETATM    2  N   UNL     1      60.810   7.005   2.402  1.00  0.00    -0.064 N 
HETATM    3  C   UNL     1      59.805   7.353   3.429  1.00  0.00     0.263 C 
HETATM    4  C   UNL     1      58.736   6.252   3.614  1.00  0.00     0.262 C 
HETATM    5  N   UNL     1      58.036   5.853   2.379  1.00  0.00    -0.072 N 
HETATM    6  C   UNL     1      59.041   5.546   1.343  1.00  0.00     0.262 C 
HETATM    7  C   UNL     1      57.095   6.880   1.939  1.00  0.00     0.269 C 
HETATM    8  H   UNL     1      57.478   5.018   2.560  1.00  0.00     0.279 HD
HETATM    9  C   UNL     1      60.135   6.627   1.145  1.00  0.00     0.263 C 
HETATM   10  H   UNL     1      61.348   6.210   2.746  1.00  0.00     0.280 HD
ENDBRANCH   1   2
BRANCH   1  11
HETATM   11  C   UNL     1      62.955   8.071   3.104  1.00  0.00    -0.033 A 
HETATM   12  C   UNL     1      63.875   7.015   3.040  1.00  0.00     0.009 A 
HETATM   13  C   UNL     1      64.903   6.909   3.980  1.00  0.00     0.010 A 
HETATM   14  C   UNL     1      65.037   7.862   4.996  1.00  0.00    -0.035 A 
HETATM   15  C   UNL     1      64.154   8.950   5.024  1.00  0.00     0.010 A 
HETATM   16  C   UNL     1      63.124   9.055   4.087  1.00  0.00     0.009 A 
BRANCH  14  17
HETATM   17  C   UNL     1      66.077   7.701   6.072  1.00  0.00     0.202 C 
BRANCH  17  18
HETATM   18  O   UNL     1      66.394   8.948   6.673  1.00  0.00    -0.396 OA
HETATM   19  H   UNL     1      67.193   9.312   6.263  1.00  0.00     0.209 HD
ENDBRANCH  17  18
ENDBRANCH  14  17
ENDBRANCH   1  11
TORSDOF 4
ENDMDL
MODEL 9
REMARK VINA RESULT:      -4.1      4.325      5.801
REMARK  4 active torsions:
REMARK  status: ('A' for Active; 'I' for Inactive)
REMARK    1  A    between atoms: N_1  and  C_3 
REMARK    2  A    between atoms: C_3  and  C_8 
REMARK    3  A    between atoms: C_9  and  C_16 
REMARK    4  A    between atoms: O_15  and  C_16 
ROOT
HETATM    1  C   UNL     1      60.892   5.362   5.169  1.00  0.00     0.273 C 
ENDROOT
BRANCH   1   2
HETATM    2  N   UNL     1      59.721   5.568   6.042  1.00  0.00    -0.064 N 
HETATM    3  C   UNL     1      58.878   4.357   6.126  1.00  0.00     0.263 C 
HETATM    4  C   UNL     1      57.702   4.516   7.118  1.00  0.00     0.262 C 
HETATM    5  N   UNL     1      58.091   4.922   8.481  1.00  0.00    -0.072 N 
HETATM    6  C   UNL     1      58.967   6.107   8.391  1.00  0.00     0.262 C 
HETATM    7  C   UNL     1      58.729   3.827   9.206  1.00  0.00     0.269 C 
HETATM    8  H   UNL     1      57.255   5.165   9.014  1.00  0.00     0.279 HD
HETATM    9  C   UNL     1      60.147   5.981   7.394  1.00  0.00     0.263 C 
HETATM   10  H   UNL     1      59.161   6.311   5.625  1.00  0.00     0.280 HD
ENDBRANCH   1   2
BRANCH   1  11
HETATM   11  C   UNL     1      61.247   6.591   4.352  1.00  0.00    -0.033 A 
HETATM   12  C   UNL     1      62.385   7.346   4.662  1.00  0.00     0.009 A 
HETATM   13  C   UNL     1      62.647   8.546   3.997  1.00  0.00     0.010 A 
HETATM   14  C   UNL     1      61.780   9.009   3.000  1.00  0.00    -0.035 A 
HETATM   15  C   UNL     1      60.674   8.223   2.647  1.00  0.00     0.010 A 
HETATM   16  C   UNL     1      60.410   7.025   3.315  1.00  0.00     0.009 A 
BRANCH  14  17
HETATM   17  C   UNL     1      61.998  10.348   2.348  1.00  0.00     0.202 C 
BRANCH  17  18
HETATM   18  O   UNL     1      61.464  11.399   3.140  1.00  0.00    -0.396 OA
HETATM   19  H   UNL     1      62.095  12.134   3.171  1.00  0.00     0.209 HD
ENDBRANCH  17  18
ENDBRANCH  14  17
ENDBRANCH   1  11
TORSDOF 4
ENDMDL
