MODEL 1
REMARK VINA RESULT:      -5.4      0.000      0.000
REMARK  4 active torsions:
REMARK  status: ('A' for Active; 'I' for Inactive)
REMARK    1  A    between atoms: N_1  and  C_3 
REMARK    2  A    between atoms: C_3  and  C_8 
REMARK    3  A    between atoms: C_9  and  C_16 
REMARK    4  A    between atoms: N_10  and  C_16 
ROOT
HETATM    1  C   UNL     1      63.380   7.972   4.924  1.00  0.00    -0.033 A 
HETATM    2  C   UNL     1      62.309   9.524   2.816  1.00  0.00    -0.033 A 
HETATM    3  C   UNL     1      63.007   9.303   5.137  1.00  0.00     0.009 A 
HETATM    4  C   UNL     1      63.295   7.452   3.621  1.00  0.00     0.009 A 
HETATM    5  C   UNL     1      62.449  10.063   4.103  1.00  0.00     0.009 A 
HETATM    6  C   UNL     1      62.775   8.229   2.573  1.00  0.00     0.009 A 
ENDROOT
BRANCH   1   7
HETATM    7  C   UNL     1      63.811   7.091   6.091  1.00  0.00     0.273 C 
BRANCH   7   8
HETATM    8  N   UNL     1      65.200   7.338   6.538  1.00  0.00    -0.064 N 
HETATM    9  C   UNL     1      65.506   6.566   7.762  1.00  0.00     0.263 C 
HETATM   10  C   UNL     1      66.976   6.712   8.220  1.00  0.00     0.262 C 
HETATM   11  N   UNL     1      67.987   6.381   7.196  1.00  0.00    -0.072 N 
HETATM   12  C   UNL     1      67.663   7.119   5.962  1.00  0.00     0.262 C 
HETATM   13  C   UNL     1      68.075   4.942   6.955  1.00  0.00     0.269 C 
HETATM   14  H   UNL     1      68.907   6.664   7.533  1.00  0.00     0.279 HD
HETATM   15  C   UNL     1      66.189   7.000   5.491  1.00  0.00     0.263 C 
HETATM   16  H   UNL     1      65.270   8.336   6.736  1.00  0.00     0.280 HD
ENDBRANCH   7   8
ENDBRANCH   1   7
BRANCH   2  17
HETATM   17  C   UNL     1      61.648  10.331   1.725  1.00  0.00     0.268 C 
BRANCH  17  18
HETATM   18  N   UNL     1      61.615  11.750   2.059  1.00  0.00    -0.075 N 
HETATM   19  H   UNL     1      61.303  11.865   3.024  1.00  0.00     0.274 HD
HETATM   20  H   UNL     1      60.969  12.230   1.433  1.00  0.00     0.274 HD
HETATM   21  H   UNL     1      62.549  12.146   1.954  1.00  0.00     0.274 HD
ENDBRANCH  17  18
ENDBRANCH   2  17
TORSDOF 4
ENDMDL
MODEL 2
REMARK VINA RESULT:      -5.2      1.303      2.152
REMARK  4 active torsions:
REMARK  status: ('A' for Active; 'I' for Inactive)
REMARK    1  A    between atoms: N_1  and  C_3 
REMARK    2  A    between atoms: C_3  and  C_8 
REMARK    3  A    between atoms: C_9  and  C_16 
REMARK    4  A    between atoms: N_10  and  C_16 
ROOT
HETATM    1  C   UNL     1      64.675   8.134   4.816  1.00  0.00    -0.033 A 
HETATM    2  C   UNL     1      62.529   8.980   3.179  1.00  0.00    -0.033 A 
HETATM    3  C   UNL     1      64.280   7.374   3.711  1.00  0.00     0.009 A 
HETATM    4  C   UNL     1      63.926   9.276   5.147  1.00  0.00     0.009 A 
HETATM    5  C   UNL     1      63.238   7.806   2.882  1.00  0.00     0.009 A 
HETATM    6  C   UNL     1      62.852   9.686   4.340  1.00  0.00     0.009 A 
ENDROOT
BRANCH   1   7
HETATM    7  C   UNL     1      65.924   7.762   5.607  1.00  0.00     0.273 C 
BRANCH   7   8
HETATM    8  N   UNL     1      65.655   6.865   6.753  1.00  0.00    -0.064 N 
HETATM    9  C   UNL     1      65.706   5.447   6.335  1.00  0.00     0.263 C 
HETATM   10  C   UNL     1      65.527   4.461   7.513  1.00  0.00     0.262 C 
HETATM   11  N   UNL     1      66.467   4.649   8.636  1.00  0.00    -0.072 N 
HETATM   12  C   UNL     1      66.448   6.070   9.030  1.00  0.00     0.262 C 
HETATM   13  C   UNL     1      67.817   4.200   8.304  1.00  0.00     0.269 C 
HETATM   14  H   UNL     1      66.167   4.072   9.422  1.00  0.00     0.279 HD
HETATM   15  C   UNL     1      66.610   7.079   7.863  1.00  0.00     0.263 C 
HETATM   16  H   UNL     1      64.718   7.090   7.087  1.00  0.00     0.280 HD
ENDBRANCH   7   8
ENDBRANCH   1   7
BRANCH   2  17
HETATM   17  C   UNL     1      61.450   9.469   2.244  1.00  0.00     0.268 C 
BRANCH  17  18
HETATM   18  N   UNL     1      61.525  10.913   2.056  1.00  0.00    -0.075 N 
HETATM   19  H   UNL     1      62.476  11.173   1.793  1.00  0.00     0.274 HD
HETATM   20  H   UNL     1      61.272  11.382   2.925  1.00  0.00     0.274 HD
HETATM   21  H   UNL     1      60.880  11.194   1.318  1.00  0.00     0.274 HD
ENDBRANCH  17  18
ENDBRANCH   2  17
TORSDOF 4
ENDMDL
MODEL 3
REMARK VINA RESULT:      -5.1      0.793      1.334
REMARK  4 active torsions:
REMARK  status: ('A' for Active; 'I' for Inactive)
REMARK    1  A    between atoms: N_1  and  C_3 
REMARK    2  A    between atoms: C_3  and  C_8 
REMARK    3  A    between atoms: C_9  and  C_16 
REMARK    4  A    between atoms: N_10  and  C_16 
ROOT
HETATM    1  C   UNL     1      63.443   7.867   5.082  1.00  0.00    -0.033 A 
HETATM    2  C   UNL     1      62.443   9.345   2.888  1.00  0.00    -0.033 A 
HETATM    3  C   UNL     1      63.021   9.189   5.247  1.00  0.00     0.009 A 
HETATM    4  C   UNL     1      63.443   7.320   3.787  1.00  0.00     0.009 A 
HETATM    5  C   UNL     1      62.498   9.913   4.170  1.00  0.00     0.009 A 
HETATM    6  C   UNL     1      62.958   8.062   2.697  1.00  0.00     0.009 A 
ENDROOT
BRANCH   1   7
HETATM    7  C   UNL     1      63.837   7.021   6.288  1.00  0.00     0.273 C 
BRANCH   7   8
HETATM    8  N   UNL     1      65.147   6.349   6.137  1.00  0.00    -0.064 N 
HETATM    9  C   UNL     1      66.257   7.296   6.381  1.00  0.00     0.263 C 
HETATM   10  C   UNL     1      67.649   6.624   6.331  1.00  0.00     0.262 C 
HETATM   11  N   UNL     1      67.819   5.467   7.233  1.00  0.00    -0.072 N 
HETATM   12  C   UNL     1      66.693   4.539   7.021  1.00  0.00     0.262 C 
HETATM   13  C   UNL     1      67.926   5.872   8.633  1.00  0.00     0.269 C 
HETATM   14  H   UNL     1      68.696   4.998   7.010  1.00  0.00     0.279 HD
HETATM   15  C   UNL     1      65.286   5.193   7.050  1.00  0.00     0.263 C 
HETATM   16  H   UNL     1      65.192   6.008   5.177  1.00  0.00     0.280 HD
ENDBRANCH   7   8
ENDBRANCH   1   7
BRANCH   2  17
HETATM   17  C   UNL     1      61.818  10.112   1.748  1.00  0.00     0.268 C 
BRANCH  17  18
HETATM   18  N   UNL     1      61.572  11.501   2.113  1.00  0.00    -0.075 N 
HETATM   19  H   UNL     1      61.304  11.553   3.096  1.00  0.00     0.274 HD
HETATM   20  H   UNL     1      60.819  11.875   1.536  1.00  0.00     0.274 HD
HETATM   21  H   UNL     1      62.419  12.048   1.962  1.00  0.00     0.274 HD
ENDBRANCH  17  18
ENDBRANCH   2  17
TORSDOF 4
ENDMDL
MODEL 4
REMARK VINA RESULT:      -4.7      1.680      6.709
REMARK  4 active torsions:
REMARK  status: ('A' for Active; 'I' for Inactive)
REMARK    1  A    between atoms: N_1  and  C_3 
REMARK    2  A    between atoms: C_3  and  C_8 
REMARK    3  A    between atoms: C_9  and  C_16 
REMARK    4  A    between atoms: N_10  and  C_16 
ROOT
HETATM    1  C   UNL     1      64.173   7.937   5.462  1.00  0.00    -0.033 A 
HETATM    2  C   UNL     1      66.405   6.733   6.714  1.00  0.00    -0.033 A 
HETATM    3  C   UNL     1      64.003   6.863   6.341  1.00  0.00     0.009 A 
HETATM    4  C   UNL     1      65.481   8.345   5.146  1.00  0.00     0.009 A 
HETATM    5  C   UNL     1      65.103   6.285   6.985  1.00  0.00     0.009 A 
HETATM    6  C   UNL     1      66.588   7.736   5.760  1.00  0.00     0.009 A 
ENDROOT
BRANCH   1   7
HETATM    7  C   UNL     1      62.966   8.685   4.907  1.00  0.00     0.273 C 
BRANCH   7   8
HETATM    8  N   UNL     1      62.969   8.802   3.431  1.00  0.00    -0.064 N 
HETATM    9  C   UNL     1      62.603   7.515   2.800  1.00  0.00     0.263 C 
HETATM   10  C   UNL     1      62.496   7.605   1.259  1.00  0.00     0.262 C 
HETATM   11  N   UNL     1      61.581   8.649   0.754  1.00  0.00    -0.072 N 
HETATM   12  C   UNL     1      61.917   9.925   1.412  1.00  0.00     0.262 C 
HETATM   13  C   UNL     1      60.178   8.293   0.955  1.00  0.00     0.269 C 
HETATM   14  H   UNL     1      61.704   8.740  -0.253  1.00  0.00     0.279 HD
HETATM   15  C   UNL     1      62.046   9.856   2.957  1.00  0.00     0.263 C 
HETATM   16  H   UNL     1      63.918   9.059   3.161  1.00  0.00     0.280 HD
ENDBRANCH   7   8
ENDBRANCH   1   7
BRANCH   2  17
HETATM   17  C   UNL     1      67.577   6.145   7.461  1.00  0.00     0.268 C 
BRANCH  17  18
HETATM   18  N   UNL     1      67.699   6.719   8.796  1.00  0.00    -0.075 N 
HETATM   19  H   UNL     1      66.982   6.321   9.405  1.00  0.00     0.274 HD
HETATM   20  H   UNL     1      67.576   7.730   8.743  1.00  0.00     0.274 HD
HETATM   21  H   UNL     1      68.622   6.509   9.175  1.00  0.00     0.274 HD
ENDBRANCH  17  18
ENDBRANCH   2  17
TORSDOF 4
ENDMDL
MODEL 5
REMARK VINA RESULT:      -4.5      1.662      2.646
REMARK  4 active torsions:
REMARK  status: ('A' for Active; 'I' for Inactive)
REMARK    1  A    between atoms: N_1  and  C_3 
REMARK    2  A    between atoms: C_3  and  C_8 
REMARK    3  A    between atoms: C_9  and  C_16 
REMARK    4  A    between atoms: N_10  and  C_16 
ROOT
HETATM    1  C   UNL     1      65.040   7.438   4.407  1.00  0.00    -0.033 A 
HETATM    2  C   UNL     1      62.736   8.594   3.243  1.00  0.00    -0.033 A 
HETATM    3  C   UNL     1      64.384   6.807   3.345  1.00  0.00     0.009 A 
HETATM    4  C   UNL     1      64.477   8.611   4.940  1.00  0.00     0.009 A 
HETATM    5  C   UNL     1      63.262   7.391   2.748  1.00  0.00     0.009 A 
HETATM    6  C   UNL     1      63.325   9.175   4.368  1.00  0.00     0.009 A 
ENDROOT
BRANCH   1   7
HETATM    7  C   UNL     1      66.366   6.899   4.933  1.00  0.00     0.273 C 
BRANCH   7   8
HETATM    8  N   UNL     1      66.279   5.514   5.447  1.00  0.00    -0.064 N 
HETATM    9  C   UNL     1      67.627   4.946   5.663  1.00  0.00     0.263 C 
HETATM   10  C   UNL     1      67.597   3.533   6.292  1.00  0.00     0.262 C 
HETATM   11  N   UNL     1      66.839   3.426   7.555  1.00  0.00    -0.072 N 
HETATM   12  C   UNL     1      65.508   4.027   7.355  1.00  0.00     0.262 C 
HETATM   13  C   UNL     1      67.546   4.044   8.674  1.00  0.00     0.269 C 
HETATM   14  H   UNL     1      66.737   2.441   7.800  1.00  0.00     0.279 HD
HETATM   15  C   UNL     1      65.512   5.438   6.711  1.00  0.00     0.263 C 
HETATM   16  H   UNL     1      65.786   4.969   4.740  1.00  0.00     0.280 HD
ENDBRANCH   7   8
ENDBRANCH   1   7
BRANCH   2  17
HETATM   17  C   UNL     1      61.564   9.248   2.553  1.00  0.00     0.268 C 
BRANCH  17  18
HETATM   18  N   UNL     1      61.542  10.686   2.790  1.00  0.00    -0.075 N 
HETATM   19  H   UNL     1      62.242  11.139   2.201  1.00  0.00     0.274 HD
HETATM   20  H   UNL     1      61.752  10.872   3.770  1.00  0.00     0.274 HD
HETATM   21  H   UNL     1      60.618  11.055   2.564  1.00  0.00     0.274 HD
ENDBRANCH  17  18
ENDBRANCH   2  17
TORSDOF 4
ENDMDL
MODEL 6
REMARK VINA RESULT:      -4.4      1.622      2.570
REMARK  4 active torsions:
REMARK  status: ('A' for Active; 'I' for Inactive)
REMARK    1  A    between atoms: N_1  and  C_3 
REMARK    2  A    between atoms: C_3  and  C_8 
REMARK    3  A    between atoms: C_9  and  C_16 
REMARK    4  A    between atoms: N_10  and  C_16 
ROOT
HETATM    1  C   UNL     1      65.568   7.773   4.795  1.00  0.00    -0.033 A 
HETATM    2  C   UNL     1      63.001   8.110   3.655  1.00  0.00    -0.033 A 
HETATM    3  C   UNL     1      65.081   6.861   3.853  1.00  0.00     0.009 A 
HETATM    4  C   UNL     1      64.719   8.807   5.227  1.00  0.00     0.009 A 
HETATM    5  C   UNL     1      63.824   7.042   3.265  1.00  0.00     0.009 A 
HETATM    6  C   UNL     1      63.440   8.964   4.669  1.00  0.00     0.009 A 
ENDROOT
BRANCH   1   7
HETATM    7  C   UNL     1      67.005   7.681   5.294  1.00  0.00     0.273 C 
BRANCH   7   8
HETATM    8  N   UNL     1      67.194   6.690   6.377  1.00  0.00    -0.064 N 
HETATM    9  C   UNL     1      65.986   6.602   7.227  1.00  0.00     0.263 C 
HETATM   10  C   UNL     1      66.092   5.510   8.318  1.00  0.00     0.262 C 
HETATM   11  N   UNL     1      66.411   4.157   7.821  1.00  0.00    -0.072 N 
HETATM   12  C   UNL     1      67.591   4.247   6.942  1.00  0.00     0.262 C 
HETATM   13  C   UNL     1      65.277   3.540   7.138  1.00  0.00     0.269 C 
HETATM   14  H   UNL     1      66.621   3.552   8.615  1.00  0.00     0.279 HD
HETATM   15  C   UNL     1      67.515   5.345   5.849  1.00  0.00     0.263 C 
HETATM   16  H   UNL     1      67.983   7.014   6.935  1.00  0.00     0.280 HD
ENDBRANCH   7   8
ENDBRANCH   1   7
BRANCH   2  17
HETATM   17  C   UNL     1      61.675   8.331   2.969  1.00  0.00     0.268 C 
BRANCH  17  18
HETATM   18  N   UNL     1      61.063   9.586   3.390  1.00  0.00    -0.075 N 
HETATM   19  H   UNL     1      60.279   9.806   2.773  1.00  0.00     0.274 HD
HETATM   20  H   UNL     1      61.754  10.334   3.340  1.00  0.00     0.274 HD
HETATM   21  H   UNL     1      60.727   9.497   4.348  1.00  0.00     0.274 HD
ENDBRANCH  17  18
ENDBRANCH   2  17
TORSDOF 4
ENDMDL
MODEL 7
REMARK VINA RESULT:      -4.2      2.944      6.890
REMARK  4 active torsions:
REMARK  status: ('A' for Active; 'I' for Inactive)
REMARK    1  A    between atoms: N_1  and  C_3 
REMARK    2  A    between atoms: C_3  and  C_8 
REMARK    3  A    between atoms: C_9  and  C_16 
REMARK    4  A    between atoms: N_10  and  C_16 
ROOT
HETATM    1  C   UNL     1      62.622   8.665   2.898  1.00  0.00    -0.033 A 
HETATM    2  C   UNL     1      64.637   7.766   4.667  1.00  0.00    -0.033 A 
HETATM    3  C   UNL     1      62.918   9.379   4.063  1.00  0.00     0.009 A 
HETATM    4  C   UNL     1      63.284   7.446   2.673  1.00  0.00     0.009 A 
HETATM    5  C   UNL     1      63.935   8.953   4.924  1.00  0.00     0.009 A 
HETATM    6  C   UNL     1      64.275   6.995   3.561  1.00  0.00     0.009 A 
ENDROOT
BRANCH   1   7
HETATM    7  C   UNL     1      61.647   9.227   1.869  1.00  0.00     0.273 C 
BRANCH   7   8
HETATM    8  N   UNL     1      60.264   8.725   2.028  1.00  0.00    -0.064 N 
HETATM    9  C   UNL     1      59.834   7.977   0.826  1.00  0.00     0.263 C 
HETATM   10  C   UNL     1      58.429   7.347   0.976  1.00  0.00     0.262 C 
HETATM   11  N   UNL     1      58.256   6.474   2.154  1.00  0.00    -0.072 N 
HETATM   12  C   UNL     1      58.721   7.202   3.349  1.00  0.00     0.262 C 
HETATM   13  C   UNL     1      58.949   5.197   1.998  1.00  0.00     0.269 C 
HETATM   14  H   UNL     1      57.268   6.245   2.257  1.00  0.00     0.279 HD
HETATM   15  C   UNL     1      60.122   7.856   3.217  1.00  0.00     0.263 C 
HETATM   16  H   UNL     1      59.669   9.543   2.154  1.00  0.00     0.280 HD
ENDBRANCH   7   8
ENDBRANCH   1   7
BRANCH   2  17
HETATM   17  C   UNL     1      65.774   7.349   5.568  1.00  0.00     0.268 C 
BRANCH  17  18
HETATM   18  N   UNL     1      66.118   8.405   6.513  1.00  0.00    -0.075 N 
HETATM   19  H   UNL     1      66.552   9.181   6.013  1.00  0.00     0.274 HD
HETATM   20  H   UNL     1      66.771   8.040   7.207  1.00  0.00     0.274 HD
HETATM   21  H   UNL     1      65.273   8.731   6.981  1.00  0.00     0.274 HD
ENDBRANCH  17  18
ENDBRANCH   2  17
TORSDOF 4
ENDMDL
MODEL 8
REMARK VINA RESULT:      -4.2      3.136      3.767
REMARK  4 active torsions:
REMARK  status: ('A' for Active; 'I' for Inactive)
REMARK    1  A    between atoms: N_1  and  C_3 
REMARK    2  A    between atoms: C_3  and  C_8 
REMARK    3  A    between atoms: C_9  and  C_16 
REMARK    4  A    between atoms: N_10  and  C_16 
ROOT
HETATM    1  C   UNL     1      63.926   7.221   3.440  1.00  0.00    -0.033 A 
HETATM    2  C   UNL     1      63.125   9.647   4.653  1.00  0.00    -0.033 A 
HETATM    3  C   UNL     1      62.792   7.903   2.988  1.00  0.00     0.009 A 
HETATM    4  C   UNL     1      64.605   7.720   4.566  1.00  0.00     0.009 A 
HETATM    5  C   UNL     1      62.411   9.118   3.567  1.00  0.00     0.009 A 
HETATM    6  C   UNL     1      64.196   8.917   5.174  1.00  0.00     0.009 A 
ENDROOT
BRANCH   1   7
HETATM    7  C   UNL     1      64.447   5.999   2.691  1.00  0.00     0.273 C 
BRANCH   7   8
HETATM    8  N   UNL     1      65.333   5.138   3.507  1.00  0.00    -0.064 N 
HETATM    9  C   UNL     1      64.604   3.949   4.000  1.00  0.00     0.263 C 
HETATM   10  C   UNL     1      65.508   2.964   4.779  1.00  0.00     0.262 C 
HETATM   11  N   UNL     1      66.708   2.505   4.051  1.00  0.00    -0.072 N 
HETATM   12  C   UNL     1      67.416   3.686   3.523  1.00  0.00     0.262 C 
HETATM   13  C   UNL     1      66.377   1.557   2.989  1.00  0.00     0.269 C 
HETATM   14  H   UNL     1      67.316   2.002   4.696  1.00  0.00     0.279 HD
HETATM   15  C   UNL     1      66.527   4.697   2.751  1.00  0.00     0.263 C 
HETATM   16  H   UNL     1      65.643   5.703   4.297  1.00  0.00     0.280 HD
ENDBRANCH   7   8
ENDBRANCH   1   7
BRANCH   2  17
HETATM   17  C   UNL     1      62.743  10.989   5.229  1.00  0.00     0.268 C 
BRANCH  17  18
HETATM   18  N   UNL     1      63.702  11.428   6.235  1.00  0.00    -0.075 N 
HETATM   19  H   UNL     1      63.956  10.639   6.831  1.00  0.00     0.274 HD
HETATM   20  H   UNL     1      63.284  12.163   6.805  1.00  0.00     0.274 HD
HETATM   21  H   UNL     1      64.538  11.789   5.774  1.00  0.00     0.274 HD
ENDBRANCH  17  18
ENDBRANCH   2  17
TORSDOF 4
ENDMDL
MODEL 9
REMARK VINA RESULT:      -4.2      1.761      2.483
REMARK  4 active torsions:
REMARK  status: ('A' for Active; 'I' for Inactive)
REMARK    1  A    between atoms: N_1  and  C_3 
REMARK    2  A    between atoms: C_3  and  C_8 
REMARK    3  A    between atoms: C_9  and  C_16 
REMARK    4  A    between atoms: N_10  and  C_16 
ROOT
HETATM    1  C   UNL     1      63.213   7.909   4.309  1.00  0.00    -0.033 A 
HETATM    2  C   UNL     1      60.963   7.398   2.674  1.00  0.00    -0.033 A 
HETATM    3  C   UNL     1      63.337   7.872   2.917  1.00  0.00     0.009 A 
HETATM    4  C   UNL     1      61.967   7.599   4.879  1.00  0.00     0.009 A 
HETATM    5  C   UNL     1      62.220   7.649   2.105  1.00  0.00     0.009 A 
HETATM    6  C   UNL     1      60.854   7.332   4.065  1.00  0.00     0.009 A 
ENDROOT
BRANCH   1   7
HETATM    7  C   UNL     1      64.388   8.336   5.183  1.00  0.00     0.273 C 
BRANCH   7   8
HETATM    8  N   UNL     1      65.247   7.209   5.612  1.00  0.00    -0.064 N 
HETATM    9  C   UNL     1      66.625   7.671   5.883  1.00  0.00     0.263 C 
HETATM   10  C   UNL     1      67.543   6.551   6.428  1.00  0.00     0.262 C 
HETATM   11  N   UNL     1      67.039   5.858   7.630  1.00  0.00    -0.072 N 
HETATM   12  C   UNL     1      65.651   5.431   7.378  1.00  0.00     0.262 C 
HETATM   13  C   UNL     1      67.136   6.691   8.827  1.00  0.00     0.269 C 
HETATM   14  H   UNL     1      67.621   5.040   7.812  1.00  0.00     0.279 HD
HETATM   15  C   UNL     1      64.715   6.533   6.816  1.00  0.00     0.263 C 
HETATM   16  H   UNL     1      65.255   6.539   4.843  1.00  0.00     0.280 HD
ENDBRANCH   7   8
ENDBRANCH   1   7
BRANCH   2  17
HETATM   17  C   UNL     1      59.753   7.221   1.789  1.00  0.00     0.268 C 
BRANCH  17  18
HETATM   18  N   UNL     1      59.386   8.472   1.135  1.00  0.00    -0.075 N 
HETATM   19  H   UNL     1      59.778   9.257   1.657  1.00  0.00     0.274 HD
HETATM   20  H   UNL     1      58.370   8.555   1.109  1.00  0.00     0.274 HD
HETATM   21  H   UNL     1      59.753   8.479   0.184  1.00  0.00     0.274 HD
ENDBRANCH  17  18
ENDBRANCH   2  17
TORSDOF 4
ENDMDL
