MODEL 1
REMARK VINA RESULT:      -5.8      0.000      0.000
REMARK  4 active torsions:
REMARK  status: ('A' for Active; 'I' for Inactive)
REMARK    1  A    between atoms: N_1  and  C_3 
REMARK    2  A    between atoms: C_3  and  C_4 
REMARK    3  A    between atoms: C_10  and  C_15 
REMARK    4  A    between atoms: O_12  and  C_15 
ROOT
HETATM    1  C   UNL     1      64.182   6.916   4.092  1.00  0.00     0.273 C 
ENDROOT
BRANCH   1   2
HETATM    2  N   UNL     1      65.282   6.930   5.073  1.00  0.00    -0.064 N 
HETATM    3  C   UNL     1      65.076   5.939   6.150  1.00  0.00     0.263 C 
HETATM    4  C   UNL     1      66.260   5.895   7.142  1.00  0.00     0.262 C 
HETATM    5  N   UNL     1      67.579   5.665   6.523  1.00  0.00    -0.072 N 
HETATM    6  C   UNL     1      67.757   6.623   5.414  1.00  0.00     0.262 C 
HETATM    7  C   UNL     1      67.726   4.282   6.076  1.00  0.00     0.269 C 
HETATM    8  H   UNL     1      68.311   5.820   7.216  1.00  0.00     0.279 HD
HETATM    9  C   UNL     1      66.578   6.695   4.411  1.00  0.00     0.263 C 
HETATM   10  H   UNL     1      65.289   7.856   5.501  1.00  0.00     0.280 HD
ENDBRANCH   1   2
BRANCH   1  11
HETATM   11  C   UNL     1      63.513   8.269   3.951  1.00  0.00    -0.032 A 
HETATM   12  C   UNL     1      63.651   9.231   4.965  1.00  0.00     0.018 A 
HETATM   13  C   UNL     1      62.938  10.436   4.919  1.00  0.00    -0.034 A 
HETATM   14  C   UNL     1      62.112  10.692   3.817  1.00  0.00     0.009 A 
HETATM   15  C   UNL     1      61.997   9.759   2.784  1.00  0.00     0.001 A 
HETATM   16  C   UNL     1      62.692   8.552   2.852  1.00  0.00     0.009 A 
BRANCH  13  17
HETATM   17  C   UNL     1      62.998  11.403   6.071  1.00  0.00     0.202 C 
BRANCH  17  18
HETATM   18  O   UNL     1      64.339  11.609   6.494  1.00  0.00    -0.396 OA
HETATM   19  H   UNL     1      64.628  12.498   6.234  1.00  0.00     0.209 HD
ENDBRANCH  17  18
ENDBRANCH  13  17
ENDBRANCH   1  11
TORSDOF 4
ENDMDL
MODEL 2
REMARK VINA RESULT:      -5.6      1.872      2.134
REMARK  4 active torsions:
REMARK  status: ('A' for Active; 'I' for Inactive)
REMARK    1  A    between atoms: N_1  and  C_3 
REMARK    2  A    between atoms: C_3  and  C_4 
REMARK    3  A    between atoms: C_10  and  C_15 
REMARK    4  A    between atoms: O_12  and  C_15 
ROOT
HETATM    1  C   UNL     1      63.657   6.931   4.710  1.00  0.00     0.273 C 
ENDROOT
BRANCH   1   2
HETATM    2  N   UNL     1      64.943   7.412   5.246  1.00  0.00    -0.064 N 
HETATM    3  C   UNL     1      65.152   6.992   6.647  1.00  0.00     0.263 C 
HETATM    4  C   UNL     1      66.530   7.429   7.192  1.00  0.00     0.262 C 
HETATM    5  N   UNL     1      67.684   6.994   6.382  1.00  0.00    -0.072 N 
HETATM    6  C   UNL     1      67.444   7.370   4.974  1.00  0.00     0.262 C 
HETATM    7  C   UNL     1      67.930   5.562   6.528  1.00  0.00     0.269 C 
HETATM    8  H   UNL     1      68.527   7.464   6.712  1.00  0.00     0.279 HD
HETATM    9  C   UNL     1      66.064   6.954   4.407  1.00  0.00     0.263 C 
HETATM   10  H   UNL     1      64.910   8.432   5.230  1.00  0.00     0.280 HD
ENDBRANCH   1   2
BRANCH   1  11
HETATM   11  C   UNL     1      63.170   7.758   3.537  1.00  0.00    -0.032 A 
HETATM   12  C   UNL     1      62.831   9.109   3.721  1.00  0.00     0.018 A 
HETATM   13  C   UNL     1      62.257   9.856   2.685  1.00  0.00    -0.034 A 
HETATM   14  C   UNL     1      62.064   9.248   1.437  1.00  0.00     0.009 A 
HETATM   15  C   UNL     1      62.432   7.918   1.233  1.00  0.00     0.001 A 
HETATM   16  C   UNL     1      62.980   7.175   2.278  1.00  0.00     0.009 A 
BRANCH  13  17
HETATM   17  C   UNL     1      61.785  11.264   2.930  1.00  0.00     0.202 C 
BRANCH  17  18
HETATM   18  O   UNL     1      62.079  12.101   1.819  1.00  0.00    -0.396 OA
HETATM   19  H   UNL     1      62.234  13.008   2.128  1.00  0.00     0.209 HD
ENDBRANCH  17  18
ENDBRANCH  13  17
ENDBRANCH   1  11
TORSDOF 4
ENDMDL
MODEL 3
REMARK VINA RESULT:      -5.5      2.146      2.763
REMARK  4 active torsions:
REMARK  status: ('A' for Active; 'I' for Inactive)
REMARK    1  A    between atoms: N_1  and  C_3 
REMARK    2  A    between atoms: C_3  and  C_4 
REMARK    3  A    between atoms: C_10  and  C_15 
REMARK    4  A    between atoms: O_12  and  C_15 
ROOT
HETATM    1  C   UNL     1      63.443   7.519   5.619  1.00  0.00     0.273 C 
ENDROOT
BRANCH   1   2
HETATM    2  N   UNL     1      64.808   7.771   6.115  1.00  0.00    -0.064 N 
HETATM    3  C   UNL     1      65.179   6.851   7.210  1.00  0.00     0.263 C 
HETATM    4  C   UNL     1      66.634   7.059   7.686  1.00  0.00     0.262 C 
HETATM    5  N   UNL     1      67.652   6.975   6.622  1.00  0.00    -0.072 N 
HETATM    6  C   UNL     1      67.249   7.856   5.507  1.00  0.00     0.262 C 
HETATM    7  C   UNL     1      67.851   5.596   6.180  1.00  0.00     0.269 C 
HETATM    8  H   UNL     1      68.551   7.290   6.986  1.00  0.00     0.279 HD
HETATM    9  C   UNL     1      65.789   7.675   5.020  1.00  0.00     0.263 C 
HETATM   10  H   UNL     1      64.819   8.720   6.490  1.00  0.00     0.280 HD
ENDBRANCH   1   2
BRANCH   1  11
HETATM   11  C   UNL     1      62.875   8.698   4.856  1.00  0.00    -0.032 A 
HETATM   12  C   UNL     1      62.386   8.522   3.551  1.00  0.00     0.018 A 
HETATM   13  C   UNL     1      61.978   9.618   2.779  1.00  0.00    -0.034 A 
HETATM   14  C   UNL     1      62.023  10.899   3.344  1.00  0.00     0.009 A 
HETATM   15  C   UNL     1      62.471  11.081   4.654  1.00  0.00     0.001 A 
HETATM   16  C   UNL     1      62.899   9.987   5.405  1.00  0.00     0.009 A 
BRANCH  13  17
HETATM   17  C   UNL     1      61.573   9.430   1.341  1.00  0.00     0.202 C 
BRANCH  17  18
HETATM   18  O   UNL     1      60.273   8.864   1.248  1.00  0.00    -0.396 OA
HETATM   19  H   UNL     1      59.855   9.146   0.419  1.00  0.00     0.209 HD
ENDBRANCH  17  18
ENDBRANCH  13  17
ENDBRANCH   1  11
TORSDOF 4
ENDMDL
MODEL 4
REMARK VINA RESULT:      -5.0      1.465      2.165
REMARK  4 active torsions:
REMARK  status: ('A' for Active; 'I' for Inactive)
REMARK    1  A    between atoms: N_1  and  C_3 
REMARK    2  A    between atoms: C_3  and  C_4 
REMARK    3  A    between atoms: C_10  and  C_15 
REMARK    4  A    between atoms: O_12  and  C_15 
ROOT
HETATM    1  C   UNL     1      63.626   7.033   6.072  1.00  0.00     0.273 C 
ENDROOT
BRANCH   1   2
HETATM    2  N   UNL     1      64.976   6.439   6.067  1.00  0.00    -0.064 N 
HETATM    3  C   UNL     1      66.016   7.425   6.426  1.00  0.00     0.263 C 
HETATM    4  C   UNL     1      67.425   6.794   6.496  1.00  0.00     0.262 C 
HETATM    5  N   UNL     1      67.537   5.627   7.392  1.00  0.00    -0.072 N 
HETATM    6  C   UNL     1      66.462   4.670   7.063  1.00  0.00     0.262 C 
HETATM    7  C   UNL     1      67.499   6.027   8.797  1.00  0.00     0.269 C 
HETATM    8  H   UNL     1      68.440   5.175   7.249  1.00  0.00     0.279 HD
HETATM    9  C   UNL     1      65.041   5.280   6.975  1.00  0.00     0.263 C 
HETATM   10  H   UNL     1      65.161   6.126   5.114  1.00  0.00     0.280 HD
ENDBRANCH   1   2
BRANCH   1  11
HETATM   11  C   UNL     1      63.284   7.708   4.759  1.00  0.00    -0.032 A 
HETATM   12  C   UNL     1      62.895   9.058   4.742  1.00  0.00     0.018 A 
HETATM   13  C   UNL     1      62.450   9.666   3.561  1.00  0.00    -0.034 A 
HETATM   14  C   UNL     1      62.440   8.918   2.376  1.00  0.00     0.009 A 
HETATM   15  C   UNL     1      62.860   7.587   2.374  1.00  0.00     0.001 A 
HETATM   16  C   UNL     1      63.278   6.983   3.560  1.00  0.00     0.009 A 
BRANCH  13  17
HETATM   17  C   UNL     1      61.920  11.074   3.581  1.00  0.00     0.202 C 
BRANCH  17  18
HETATM   18  O   UNL     1      62.277  11.737   4.787  1.00  0.00    -0.396 OA
HETATM   19  H   UNL     1      61.473  12.020   5.251  1.00  0.00     0.209 HD
ENDBRANCH  17  18
ENDBRANCH  13  17
ENDBRANCH   1  11
TORSDOF 4
ENDMDL
MODEL 5
REMARK VINA RESULT:      -4.3      9.855     11.476
REMARK  4 active torsions:
REMARK  status: ('A' for Active; 'I' for Inactive)
REMARK    1  A    between atoms: N_1  and  C_3 
REMARK    2  A    between atoms: C_3  and  C_4 
REMARK    3  A    between atoms: C_10  and  C_15 
REMARK    4  A    between atoms: O_12  and  C_15 
ROOT
HETATM    1  C   UNL     1      58.606   2.547   9.867  1.00  0.00     0.273 C 
ENDROOT
BRANCH   1   2
HETATM    2  N   UNL     1      58.000   3.801   9.383  1.00  0.00    -0.064 N 
HETATM    3  C   UNL     1      59.021   4.789   8.977  1.00  0.00     0.263 C 
HETATM    4  C   UNL     1      58.393   6.078   8.399  1.00  0.00     0.262 C 
HETATM    5  N   UNL     1      57.458   5.863   7.279  1.00  0.00    -0.072 N 
HETATM    6  C   UNL     1      56.473   4.836   7.671  1.00  0.00     0.262 C 
HETATM    7  C   UNL     1      58.166   5.498   6.054  1.00  0.00     0.269 C 
HETATM    8  H   UNL     1      56.967   6.734   7.075  1.00  0.00     0.279 HD
HETATM    9  C   UNL     1      57.076   3.538   8.265  1.00  0.00     0.263 C 
HETATM   10  H   UNL     1      57.475   4.199  10.162  1.00  0.00     0.280 HD
ENDBRANCH   1   2
BRANCH   1  11
HETATM   11  C   UNL     1      58.238   2.241  11.305  1.00  0.00    -0.032 A 
HETATM   12  C   UNL     1      56.932   2.478  11.763  1.00  0.00     0.018 A 
HETATM   13  C   UNL     1      56.603   2.327  13.116  1.00  0.00    -0.034 A 
HETATM   14  C   UNL     1      57.590   1.890  14.009  1.00  0.00     0.009 A 
HETATM   15  C   UNL     1      58.882   1.615  13.558  1.00  0.00     0.001 A 
HETATM   16  C   UNL     1      59.206   1.793  12.213  1.00  0.00     0.009 A 
BRANCH  13  17
HETATM   17  C   UNL     1      55.233   2.703  13.615  1.00  0.00     0.202 C 
BRANCH  17  18
HETATM   18  O   UNL     1      55.285   3.138  14.968  1.00  0.00    -0.396 OA
HETATM   19  H   UNL     1      54.597   2.685  15.481  1.00  0.00     0.209 HD
ENDBRANCH  17  18
ENDBRANCH  13  17
ENDBRANCH   1  11
TORSDOF 4
ENDMDL
MODEL 6
REMARK VINA RESULT:      -4.3      2.763      5.897
REMARK  4 active torsions:
REMARK  status: ('A' for Active; 'I' for Inactive)
REMARK    1  A    between atoms: N_1  and  C_3 
REMARK    2  A    between atoms: C_3  and  C_4 
REMARK    3  A    between atoms: C_10  and  C_15 
REMARK    4  A    between atoms: O_12  and  C_15 
ROOT
HETATM    1  C   UNL     1      63.185   8.052   5.012  1.00  0.00     0.273 C 
ENDROOT
BRANCH   1   2
HETATM    2  N   UNL     1      63.125   8.370   3.573  1.00  0.00    -0.064 N 
HETATM    3  C   UNL     1      62.737   7.197   2.762  1.00  0.00     0.263 C 
HETATM    4  C   UNL     1      62.600   7.540   1.262  1.00  0.00     0.262 C 
HETATM    5  N   UNL     1      61.683   8.656   0.963  1.00  0.00    -0.072 N 
HETATM    6  C   UNL     1      62.041   9.808   1.815  1.00  0.00     0.262 C 
HETATM    7  C   UNL     1      60.287   8.263   1.140  1.00  0.00     0.269 C 
HETATM    8  H   UNL     1      61.782   8.925  -0.016  1.00  0.00     0.279 HD
HETATM    9  C   UNL     1      62.198   9.488   3.323  1.00  0.00     0.263 C 
HETATM   10  H   UNL     1      64.065   8.647   3.289  1.00  0.00     0.280 HD
ENDBRANCH   1   2
BRANCH   1  11
HETATM   11  C   UNL     1      64.573   7.637   5.457  1.00  0.00    -0.032 A 
HETATM   12  C   UNL     1      64.739   6.882   6.630  1.00  0.00     0.018 A 
HETATM   13  C   UNL     1      66.016   6.598   7.131  1.00  0.00    -0.034 A 
HETATM   14  C   UNL     1      67.138   7.042   6.417  1.00  0.00     0.009 A 
HETATM   15  C   UNL     1      66.984   7.759   5.230  1.00  0.00     0.001 A 
HETATM   16  C   UNL     1      65.708   8.059   4.754  1.00  0.00     0.009 A 
BRANCH  13  17
HETATM   17  C   UNL     1      66.180   5.897   8.453  1.00  0.00     0.202 C 
BRANCH  17  18
HETATM   18  O   UNL     1      66.944   6.684   9.357  1.00  0.00    -0.396 OA
HETATM   19  H   UNL     1      67.808   6.266   9.500  1.00  0.00     0.209 HD
ENDBRANCH  17  18
ENDBRANCH  13  17
ENDBRANCH   1  11
TORSDOF 4
ENDMDL
MODEL 7
REMARK VINA RESULT:      -4.2      3.248      6.897
REMARK  4 active torsions:
REMARK  status: ('A' for Active; 'I' for Inactive)
REMARK    1  A    between atoms: N_1  and  C_3 
REMARK    2  A    between atoms: C_3  and  C_4 
REMARK    3  A    between atoms: C_10  and  C_15 
REMARK    4  A    between atoms: O_12  and  C_15 
ROOT
HETATM    1  C   UNL     1      65.943   5.624   5.495  1.00  0.00     0.273 C 
ENDROOT
BRANCH   1   2
HETATM    2  N   UNL     1      65.017   6.762   5.649  1.00  0.00    -0.064 N 
HETATM    3  C   UNL     1      64.878   7.536   4.398  1.00  0.00     0.263 C 
HETATM    4  C   UNL     1      63.853   8.686   4.530  1.00  0.00     0.262 C 
HETATM    5  N   UNL     1      62.515   8.272   4.991  1.00  0.00    -0.072 N 
HETATM    6  C   UNL     1      62.664   7.453   6.211  1.00  0.00     0.262 C 
HETATM    7  C   UNL     1      61.785   7.560   3.945  1.00  0.00     0.269 C 
HETATM    8  H   UNL     1      61.961   9.100   5.213  1.00  0.00     0.279 HD
HETATM    9  C   UNL     1      63.695   6.302   6.109  1.00  0.00     0.263 C 
HETATM   10  H   UNL     1      65.419   7.380   6.354  1.00  0.00     0.280 HD
ENDBRANCH   1   2
BRANCH   1  11
HETATM   11  C   UNL     1      66.757   5.365   6.746  1.00  0.00    -0.032 A 
HETATM   12  C   UNL     1      67.132   4.053   7.082  1.00  0.00     0.018 A 
HETATM   13  C   UNL     1      67.770   3.774   8.297  1.00  0.00    -0.034 A 
HETATM   14  C   UNL     1      68.073   4.834   9.162  1.00  0.00     0.009 A 
HETATM   15  C   UNL     1      67.739   6.145   8.821  1.00  0.00     0.001 A 
HETATM   16  C   UNL     1      67.081   6.410   7.620  1.00  0.00     0.009 A 
BRANCH  13  17
HETATM   17  C   UNL     1      68.056   2.352   8.701  1.00  0.00     0.202 C 
BRANCH  17  18
HETATM   18  O   UNL     1      67.325   1.997   9.867  1.00  0.00    -0.396 OA
HETATM   19  H   UNL     1      67.908   1.525  10.483  1.00  0.00     0.209 HD
ENDBRANCH  17  18
ENDBRANCH  13  17
ENDBRANCH   1  11
TORSDOF 4
ENDMDL
MODEL 8
REMARK VINA RESULT:      -4.2      4.748      6.956
REMARK  4 active torsions:
REMARK  status: ('A' for Active; 'I' for Inactive)
REMARK    1  A    between atoms: N_1  and  C_3 
REMARK    2  A    between atoms: C_3  and  C_4 
REMARK    3  A    between atoms: C_10  and  C_15 
REMARK    4  A    between atoms: O_12  and  C_15 
ROOT
HETATM    1  C   UNL     1      60.351   6.330   3.721  1.00  0.00     0.273 C 
ENDROOT
BRANCH   1   2
HETATM    2  N   UNL     1      58.949   6.783   3.665  1.00  0.00    -0.064 N 
HETATM    3  C   UNL     1      58.275   6.346   2.425  1.00  0.00     0.263 C 
HETATM    4  C   UNL     1      56.784   6.753   2.392  1.00  0.00     0.262 C 
HETATM    5  N   UNL     1      55.994   6.304   3.553  1.00  0.00    -0.072 N 
HETATM    6  C   UNL     1      56.699   6.696   4.790  1.00  0.00     0.262 C 
HETATM    7  C   UNL     1      55.741   4.865   3.504  1.00  0.00     0.269 C 
HETATM    8  H   UNL     1      55.078   6.754   3.536  1.00  0.00     0.279 HD
HETATM    9  C   UNL     1      58.199   6.310   4.843  1.00  0.00     0.263 C 
HETATM   10  H   UNL     1      58.964   7.803   3.667  1.00  0.00     0.280 HD
ENDBRANCH   1   2
BRANCH   1  11
HETATM   11  C   UNL     1      61.303   7.437   4.126  1.00  0.00    -0.032 A 
HETATM   12  C   UNL     1      61.125   8.737   3.622  1.00  0.00     0.018 A 
HETATM   13  C   UNL     1      62.065   9.744   3.877  1.00  0.00    -0.034 A 
HETATM   14  C   UNL     1      63.172   9.450   4.684  1.00  0.00     0.009 A 
HETATM   15  C   UNL     1      63.338   8.172   5.221  1.00  0.00     0.001 A 
HETATM   16  C   UNL     1      62.410   7.170   4.941  1.00  0.00     0.009 A 
BRANCH  13  17
HETATM   17  C   UNL     1      61.928  11.097   3.231  1.00  0.00     0.202 C 
BRANCH  17  18
HETATM   18  O   UNL     1      62.086  12.137   4.187  1.00  0.00    -0.396 OA
HETATM   19  H   UNL     1      62.198  11.750   5.070  1.00  0.00     0.209 HD
ENDBRANCH  17  18
ENDBRANCH  13  17
ENDBRANCH   1  11
TORSDOF 4
ENDMDL
MODEL 9
REMARK VINA RESULT:      -4.1      9.113     10.076
REMARK  4 active torsions:
REMARK  status: ('A' for Active; 'I' for Inactive)
REMARK    1  A    between atoms: N_1  and  C_3 
REMARK    2  A    between atoms: C_3  and  C_4 
REMARK    3  A    between atoms: C_10  and  C_15 
REMARK    4  A    between atoms: O_12  and  C_15 
ROOT
HETATM    1  C   UNL     1      58.555   2.013   9.883  1.00  0.00     0.273 C 
ENDROOT
BRANCH   1   2
HETATM    2  N   UNL     1      58.296   2.343  11.297  1.00  0.00    -0.064 N 
HETATM    3  C   UNL     1      56.861   2.247  11.635  1.00  0.00     0.263 C 
HETATM    4  C   UNL     1      56.590   2.519  13.132  1.00  0.00     0.262 C 
HETATM    5  N   UNL     1      57.361   1.675  14.064  1.00  0.00    -0.072 N 
HETATM    6  C   UNL     1      58.788   1.733  13.688  1.00  0.00     0.262 C 
HETATM    7  C   UNL     1      56.859   0.303  14.084  1.00  0.00     0.269 C 
HETATM    8  H   UNL     1      57.254   2.032  15.014  1.00  0.00     0.279 HD
HETATM    9  C   UNL     1      59.086   1.476  12.190  1.00  0.00     0.263 C 
HETATM   10  H   UNL     1      58.583   3.312  11.435  1.00  0.00     0.280 HD
ENDBRANCH   1   2
BRANCH   1  11
HETATM   11  C   UNL     1      59.107   3.190   9.104  1.00  0.00    -0.032 A 
HETATM   12  C   UNL     1      58.664   4.492   9.389  1.00  0.00     0.018 A 
HETATM   13  C   UNL     1      59.060   5.578   8.598  1.00  0.00    -0.034 A 
HETATM   14  C   UNL     1      59.947   5.355   7.536  1.00  0.00     0.009 A 
HETATM   15  C   UNL     1      60.423   4.071   7.268  1.00  0.00     0.001 A 
HETATM   16  C   UNL     1      60.003   2.993   8.046  1.00  0.00     0.009 A 
BRANCH  13  17
HETATM   17  C   UNL     1      58.483   6.948   8.837  1.00  0.00     0.202 C 
BRANCH  17  18
HETATM   18  O   UNL     1      57.122   7.005   8.429  1.00  0.00    -0.396 OA
HETATM   19  H   UNL     1      56.943   6.291   7.798  1.00  0.00     0.209 HD
ENDBRANCH  17  18
ENDBRANCH  13  17
ENDBRANCH   1  11
TORSDOF 4
ENDMDL
