MODEL 1
REMARK VINA RESULT:      -5.8      0.000      0.000
REMARK  2 active torsions:
REMARK  status: ('A' for Active; 'I' for Inactive)
REMARK    1  A    between atoms: C_1  and  C_3 
REMARK    2  A    between atoms: C_2  and  C_4 
ROOT
HETATM    1  C   UNL     1      63.118   8.603   3.608  1.00  0.00     0.015 A 
HETATM    2  C   UNL     1      62.516   9.878   3.585  1.00  0.00     0.053 A 
HETATM    3  C   UNL     1      61.795  10.296   2.446  1.00  0.00     0.019 A 
HETATM    4  C   UNL     1      62.966   7.788   2.463  1.00  0.00     0.015 A 
HETATM    5  C   UNL     1      62.250   8.213   1.341  1.00  0.00     0.001 A 
HETATM    6  C   UNL     1      61.665   9.469   1.332  1.00  0.00     0.001 A 
ENDROOT
BRANCH   1   7
HETATM    7  C   UNL     1      63.935   8.079   4.705  1.00  0.00     0.086 A 
HETATM    8  O   UNL     1      63.273   7.269   5.592  1.00  0.00    -0.322 OA
HETATM    9  C   UNL     1      64.174   6.838   6.510  1.00  0.00     0.142 A 
HETATM   10  C   UNL     1      65.418   7.351   6.235  1.00  0.00     0.027 A 
HETATM   11  C   UNL     1      65.265   8.149   5.074  1.00  0.00     0.040 A 
ENDBRANCH   1   7
BRANCH   2  12
HETATM   12  C   UNL     1      62.545  10.805   4.745  1.00  0.00     0.210 C 
HETATM   13  O   UNL     1      62.948  10.585   5.870  1.00  0.00    -0.644 OA
HETATM   14  O   UNL     1      62.044  12.015   4.422  1.00  0.00    -0.644 OA
ENDBRANCH   2  12
TORSDOF 2
ENDMDL
MODEL 2
REMARK VINA RESULT:      -5.5      1.759      4.291
REMARK  2 active torsions:
REMARK  status: ('A' for Active; 'I' for Inactive)
REMARK    1  A    between atoms: C_1  and  C_3 
REMARK    2  A    between atoms: C_2  and  C_4 
ROOT
HETATM    1  C   UNL     1      62.154   8.257   4.378  1.00  0.00     0.015 A 
HETATM    2  C   UNL     1      63.236   8.059   5.260  1.00  0.00     0.053 A 
HETATM    3  C   UNL     1      63.203   6.995   6.187  1.00  0.00     0.019 A 
HETATM    4  C   UNL     1      61.066   7.360   4.467  1.00  0.00     0.015 A 
HETATM    5  C   UNL     1      61.044   6.311   5.389  1.00  0.00     0.001 A 
HETATM    6  C   UNL     1      62.113   6.129   6.252  1.00  0.00     0.001 A 
ENDROOT
BRANCH   1   7
HETATM    7  C   UNL     1      62.048   9.353   3.412  1.00  0.00     0.086 A 
HETATM    8  O   UNL     1      61.762  10.582   3.949  1.00  0.00    -0.322 OA
HETATM    9  C   UNL     1      61.742  11.482   2.935  1.00  0.00     0.142 A 
HETATM   10  C   UNL     1      62.014  10.862   1.741  1.00  0.00     0.027 A 
HETATM   11  C   UNL     1      62.211   9.492   2.046  1.00  0.00     0.040 A 
ENDBRANCH   1   7
BRANCH   2  12
HETATM   12  C   UNL     1      64.467   8.889   5.227  1.00  0.00     0.210 C 
HETATM   13  O   UNL     1      65.542   8.618   4.729  1.00  0.00    -0.644 OA
HETATM   14  O   UNL     1      64.281  10.073   5.848  1.00  0.00    -0.644 OA
ENDBRANCH   2  12
TORSDOF 2
ENDMDL
MODEL 3
REMARK VINA RESULT:      -5.4      1.799      2.470
REMARK  2 active torsions:
REMARK  status: ('A' for Active; 'I' for Inactive)
REMARK    1  A    between atoms: C_1  and  C_3 
REMARK    2  A    between atoms: C_2  and  C_4 
ROOT
HETATM    1  C   UNL     1      62.880   8.376   3.025  1.00  0.00     0.015 A 
HETATM    2  C   UNL     1      62.867   9.332   4.062  1.00  0.00     0.053 A 
HETATM    3  C   UNL     1      62.327  10.615   3.830  1.00  0.00     0.019 A 
HETATM    4  C   UNL     1      62.337   8.758   1.778  1.00  0.00     0.015 A 
HETATM    5  C   UNL     1      61.805  10.031   1.560  1.00  0.00     0.001 A 
HETATM    6  C   UNL     1      61.801  10.962   2.587  1.00  0.00     0.001 A 
ENDROOT
BRANCH   1   7
HETATM    7  C   UNL     1      63.460   7.035   3.126  1.00  0.00     0.086 A 
HETATM    8  O   UNL     1      62.561   6.001   3.059  1.00  0.00    -0.322 OA
HETATM    9  C   UNL     1      63.259   4.841   3.122  1.00  0.00     0.142 A 
HETATM   10  C   UNL     1      64.604   5.098   3.226  1.00  0.00     0.027 A 
HETATM   11  C   UNL     1      64.735   6.509   3.228  1.00  0.00     0.040 A 
ENDBRANCH   1   7
BRANCH   2  12
HETATM   12  C   UNL     1      63.346   9.038   5.437  1.00  0.00     0.210 C 
HETATM   13  O   UNL     1      62.786   8.400   6.305  1.00  0.00    -0.644 OA
HETATM   14  O   UNL     1      64.559   9.583   5.663  1.00  0.00    -0.644 OA
ENDBRANCH   2  12
TORSDOF 2
ENDMDL
MODEL 4
REMARK VINA RESULT:      -5.2      2.040      3.217
REMARK  2 active torsions:
REMARK  status: ('A' for Active; 'I' for Inactive)
REMARK    1  A    between atoms: C_1  and  C_3 
REMARK    2  A    between atoms: C_2  and  C_4 
ROOT
HETATM    1  C   UNL     1      63.643   8.920   4.870  1.00  0.00     0.015 A 
HETATM    2  C   UNL     1      62.975   8.422   3.732  1.00  0.00     0.053 A 
HETATM    3  C   UNL     1      62.063   9.244   3.035  1.00  0.00     0.019 A 
HETATM    4  C   UNL     1      63.360  10.247   5.265  1.00  0.00     0.015 A 
HETATM    5  C   UNL     1      62.455  11.051   4.568  1.00  0.00     0.001 A 
HETATM    6  C   UNL     1      61.804  10.548   3.453  1.00  0.00     0.001 A 
ENDROOT
BRANCH   1   7
HETATM    7  C   UNL     1      64.567   8.150   5.706  1.00  0.00     0.086 A 
HETATM    8  O   UNL     1      65.785   8.739   5.929  1.00  0.00    -0.322 OA
HETATM    9  C   UNL     1      66.495   7.925   6.747  1.00  0.00     0.142 A 
HETATM   10  C   UNL     1      65.760   6.811   7.068  1.00  0.00     0.027 A 
HETATM   11  C   UNL     1      64.519   6.954   6.398  1.00  0.00     0.040 A 
ENDBRANCH   1   7
BRANCH   2  12
HETATM   12  C   UNL     1      63.230   7.070   3.174  1.00  0.00     0.210 C 
HETATM   13  O   UNL     1      64.180   6.698   2.514  1.00  0.00    -0.644 OA
HETATM   14  O   UNL     1      62.235   6.213   3.485  1.00  0.00    -0.644 OA
ENDBRANCH   2  12
TORSDOF 2
ENDMDL
MODEL 5
REMARK VINA RESULT:      -5.0      2.510      3.421
REMARK  2 active torsions:
REMARK  status: ('A' for Active; 'I' for Inactive)
REMARK    1  A    between atoms: C_1  and  C_3 
REMARK    2  A    between atoms: C_2  and  C_4 
ROOT
HETATM    1  C   UNL     1      62.773   8.799   3.573  1.00  0.00     0.015 A 
HETATM    2  C   UNL     1      62.120   9.581   2.599  1.00  0.00     0.053 A 
HETATM    3  C   UNL     1      61.787  10.923   2.881  1.00  0.00     0.019 A 
HETATM    4  C   UNL     1      63.070   9.412   4.812  1.00  0.00     0.015 A 
HETATM    5  C   UNL     1      62.735  10.741   5.080  1.00  0.00     0.001 A 
HETATM    6  C   UNL     1      62.091  11.497   4.114  1.00  0.00     0.001 A 
ENDROOT
BRANCH   1   7
HETATM    7  C   UNL     1      63.121   7.384   3.421  1.00  0.00     0.086 A 
HETATM    8  O   UNL     1      62.096   6.501   3.642  1.00  0.00    -0.322 OA
HETATM    9  C   UNL     1      62.570   5.251   3.419  1.00  0.00     0.142 A 
HETATM   10  C   UNL     1      63.892   5.301   3.051  1.00  0.00     0.027 A 
HETATM   11  C   UNL     1      64.248   6.673   3.051  1.00  0.00     0.040 A 
ENDBRANCH   1   7
BRANCH   2  12
HETATM   12  C   UNL     1      61.810   9.079   1.236  1.00  0.00     0.210 C 
HETATM   13  O   UNL     1      62.558   8.988   0.283  1.00  0.00    -0.644 OA
HETATM   14  O   UNL     1      60.520   8.699   1.132  1.00  0.00    -0.644 OA
ENDBRANCH   2  12
TORSDOF 2
ENDMDL
MODEL 6
REMARK VINA RESULT:      -4.9      1.909      2.418
REMARK  2 active torsions:
REMARK  status: ('A' for Active; 'I' for Inactive)
REMARK    1  A    between atoms: C_1  and  C_3 
REMARK    2  A    between atoms: C_2  and  C_4 
ROOT
HETATM    1  C   UNL     1      64.279   7.052   3.546  1.00  0.00     0.015 A 
HETATM    2  C   UNL     1      63.640   8.210   4.034  1.00  0.00     0.053 A 
HETATM    3  C   UNL     1      62.580   8.789   3.304  1.00  0.00     0.019 A 
HETATM    4  C   UNL     1      63.815   6.516   2.323  1.00  0.00     0.015 A 
HETATM    5  C   UNL     1      62.764   7.098   1.610  1.00  0.00     0.001 A 
HETATM    6  C   UNL     1      62.147   8.238   2.100  1.00  0.00     0.001 A 
ENDROOT
BRANCH   1   7
HETATM    7  C   UNL     1      65.422   6.392   4.181  1.00  0.00     0.086 A 
HETATM    8  O   UNL     1      65.119   5.613   5.268  1.00  0.00    -0.322 OA
HETATM    9  C   UNL     1      66.270   5.045   5.705  1.00  0.00     0.142 A 
HETATM   10  C   UNL     1      67.324   5.438   4.918  1.00  0.00     0.027 A 
HETATM   11  C   UNL     1      66.780   6.304   3.937  1.00  0.00     0.040 A 
ENDBRANCH   1   7
BRANCH   2  12
HETATM   12  C   UNL     1      63.987   8.835   5.336  1.00  0.00     0.210 C 
HETATM   13  O   UNL     1      64.945   9.533   5.601  1.00  0.00    -0.644 OA
HETATM   14  O   UNL     1      63.072   8.540   6.283  1.00  0.00    -0.644 OA
ENDBRANCH   2  12
TORSDOF 2
ENDMDL
MODEL 7
REMARK VINA RESULT:      -4.6      2.838      6.465
REMARK  2 active torsions:
REMARK  status: ('A' for Active; 'I' for Inactive)
REMARK    1  A    between atoms: C_1  and  C_3 
REMARK    2  A    between atoms: C_2  and  C_4 
ROOT
HETATM    1  C   UNL     1      66.064   6.576   6.919  1.00  0.00     0.015 A 
HETATM    2  C   UNL     1      66.915   5.601   6.360  1.00  0.00     0.053 A 
HETATM    3  C   UNL     1      67.911   4.995   7.156  1.00  0.00     0.019 A 
HETATM    4  C   UNL     1      66.254   6.905   8.280  1.00  0.00     0.015 A 
HETATM    5  C   UNL     1      67.244   6.299   9.058  1.00  0.00     0.001 A 
HETATM    6  C   UNL     1      68.075   5.345   8.495  1.00  0.00     0.001 A 
ENDROOT
BRANCH   1   7
HETATM    7  C   UNL     1      65.033   7.312   6.185  1.00  0.00     0.086 A 
HETATM    8  O   UNL     1      63.763   7.204   6.691  1.00  0.00    -0.322 OA
HETATM    9  C   UNL     1      62.947   7.973   5.929  1.00  0.00     0.142 A 
HETATM   10  C   UNL     1      63.663   8.587   4.932  1.00  0.00     0.027 A 
HETATM   11  C   UNL     1      65.006   8.163   5.095  1.00  0.00     0.040 A 
ENDBRANCH   1   7
BRANCH   2  12
HETATM   12  C   UNL     1      66.779   5.117   4.962  1.00  0.00     0.210 C 
HETATM   13  O   UNL     1      66.171   4.146   4.561  1.00  0.00    -0.644 OA
HETATM   14  O   UNL     1      67.444   5.913   4.099  1.00  0.00    -0.644 OA
ENDBRANCH   2  12
TORSDOF 2
ENDMDL
MODEL 8
REMARK VINA RESULT:      -4.6      1.546      1.898
REMARK  2 active torsions:
REMARK  status: ('A' for Active; 'I' for Inactive)
REMARK    1  A    between atoms: C_1  and  C_3 
REMARK    2  A    between atoms: C_2  and  C_4 
ROOT
HETATM    1  C   UNL     1      62.499   7.824   3.809  1.00  0.00     0.015 A 
HETATM    2  C   UNL     1      62.832   9.181   3.995  1.00  0.00     0.053 A 
HETATM    3  C   UNL     1      62.384  10.149   3.070  1.00  0.00     0.019 A 
HETATM    4  C   UNL     1      61.714   7.492   2.681  1.00  0.00     0.015 A 
HETATM    5  C   UNL     1      61.276   8.459   1.773  1.00  0.00     0.001 A 
HETATM    6  C   UNL     1      61.613   9.789   1.967  1.00  0.00     0.001 A 
ENDROOT
BRANCH   1   7
HETATM    7  C   UNL     1      62.948   6.723   4.665  1.00  0.00     0.086 A 
HETATM    8  O   UNL     1      64.209   6.254   4.403  1.00  0.00    -0.322 OA
HETATM    9  C   UNL     1      64.483   5.278   5.304  1.00  0.00     0.142 A 
HETATM   10  C   UNL     1      63.421   5.102   6.155  1.00  0.00     0.027 A 
HETATM   11  C   UNL     1      62.432   6.032   5.746  1.00  0.00     0.040 A 
ENDBRANCH   1   7
BRANCH   2  12
HETATM   12  C   UNL     1      63.595   9.671   5.171  1.00  0.00     0.210 C 
HETATM   13  O   UNL     1      64.726   9.381   5.505  1.00  0.00    -0.644 OA
HETATM   14  O   UNL     1      62.867  10.540   5.903  1.00  0.00    -0.644 OA
ENDBRANCH   2  12
TORSDOF 2
ENDMDL
MODEL 9
REMARK VINA RESULT:      -4.5      1.763      4.654
REMARK  2 active torsions:
REMARK  status: ('A' for Active; 'I' for Inactive)
REMARK    1  A    between atoms: C_1  and  C_3 
REMARK    2  A    between atoms: C_2  and  C_4 
ROOT
HETATM    1  C   UNL     1      63.043   7.675   5.526  1.00  0.00     0.015 A 
HETATM    2  C   UNL     1      64.349   7.150   5.620  1.00  0.00     0.053 A 
HETATM    3  C   UNL     1      64.556   5.876   6.190  1.00  0.00     0.019 A 
HETATM    4  C   UNL     1      61.983   6.879   6.016  1.00  0.00     0.015 A 
HETATM    5  C   UNL     1      62.200   5.619   6.578  1.00  0.00     0.001 A 
HETATM    6  C   UNL     1      63.489   5.117   6.667  1.00  0.00     0.001 A 
ENDROOT
BRANCH   1   7
HETATM    7  C   UNL     1      62.706   9.002   5.006  1.00  0.00     0.086 A 
HETATM    8  O   UNL     1      62.893  10.039   5.884  1.00  0.00    -0.322 OA
HETATM    9  C   UNL     1      62.579  11.189   5.238  1.00  0.00     0.142 A 
HETATM   10  C   UNL     1      62.193  10.922   3.948  1.00  0.00     0.027 A 
HETATM   11  C   UNL     1      62.274   9.515   3.797  1.00  0.00     0.040 A 
ENDBRANCH   1   7
BRANCH   2  12
HETATM   12  C   UNL     1      65.542   7.854   5.084  1.00  0.00     0.210 C 
HETATM   13  O   UNL     1      66.124   8.810   5.556  1.00  0.00    -0.644 OA
HETATM   14  O   UNL     1      65.964   7.298   3.929  1.00  0.00    -0.644 OA
ENDBRANCH   2  12
TORSDOF 2
ENDMDL
