MODEL 1
REMARK VINA RESULT:      -5.4      0.000      0.000
REMARK  3 active torsions:
REMARK  status: ('A' for Active; 'I' for Inactive)
REMARK    1  A    between atoms: C_4  and  C_7 
REMARK    2  A    between atoms: C_6  and  C_9 
REMARK    3  A    between atoms: C_9  and  N_10 
ROOT
HETATM    1  N   UNL     1      63.547   7.190   6.097  1.00  0.00    -0.296 N 
HETATM    2  N   UNL     1      64.531   6.537   6.755  1.00  0.00    -0.301 N 
ATOM      3  HN  UNL     1      64.438   5.753   7.401  1.00  0.00     0.187 HD
HETATM    4  C   UNL     1      63.998   8.237   5.320  1.00  0.00     0.062 A 
HETATM    5  C   UNL     1      65.375   8.198   5.471  1.00  0.00     0.060 A 
HETATM    6  C   UNL     1      65.655   7.150   6.370  1.00  0.00     0.053 A 
HETATM    7  C   UNL     1      62.205   6.691   6.287  1.00  0.00     0.178 C 
ENDROOT
BRANCH   4   8
HETATM    8  C   UNL     1      63.203   9.163   4.495  1.00  0.00    -0.008 A 
HETATM    9  C   UNL     1      62.831  10.440   4.934  1.00  0.00     0.014 A 
HETATM   10  C   UNL     1      62.082  11.295   4.115  1.00  0.00     0.001 A 
HETATM   11  C   UNL     1      61.732  10.904   2.827  1.00  0.00     0.000 A 
HETATM   12  C   UNL     1      62.122   9.655   2.356  1.00  0.00     0.001 A 
HETATM   13  C   UNL     1      62.843   8.791   3.187  1.00  0.00     0.014 A 
ENDBRANCH   4   8
BRANCH   6  14
HETATM   14  C   UNL     1      66.989   6.710   6.879  1.00  0.00     0.288 C 
BRANCH  14  15
HETATM   15  N   UNL     1      67.209   7.274   8.213  1.00  0.00    -0.074 N 
HETATM   16  H   UNL     1      66.972   8.265   8.207  1.00  0.00     0.274 HD
HETATM   17  H   UNL     1      68.189   7.160   8.473  1.00  0.00     0.274 HD
HETATM   18  H   UNL     1      66.619   6.788   8.889  1.00  0.00     0.274 HD
ENDBRANCH  14  15
ENDBRANCH   6  14
TORSDOF 3
ENDMDL
MODEL 2
REMARK VINA RESULT:      -5.3      0.595      1.416
REMARK  3 active torsions:
REMARK  status: ('A' for Active; 'I' for Inactive)
REMARK    1  A    between atoms: C_4  and  C_7 
REMARK    2  A    between atoms: C_6  and  C_9 
REMARK    3  A    between atoms: C_9  and  N_10 
ROOT
HETATM    1  N   UNL     1      63.483   7.282   6.046  1.00  0.00    -0.296 N 
HETATM    2  N   UNL     1      64.441   6.642   6.753  1.00  0.00    -0.301 N 
ATOM      3  HN  UNL     1      64.321   5.885   7.427  1.00  0.00     0.187 HD
HETATM    4  C   UNL     1      63.968   8.292   5.239  1.00  0.00     0.062 A 
HETATM    5  C   UNL     1      65.341   8.238   5.425  1.00  0.00     0.060 A 
HETATM    6  C   UNL     1      65.583   7.223   6.371  1.00  0.00     0.053 A 
HETATM    7  C   UNL     1      62.130   6.811   6.223  1.00  0.00     0.178 C 
ENDROOT
BRANCH   4   8
HETATM    8  C   UNL     1      63.207   9.195   4.359  1.00  0.00    -0.008 A 
HETATM    9  C   UNL     1      62.808   8.834   3.066  1.00  0.00     0.014 A 
HETATM   10  C   UNL     1      62.077   9.720   2.263  1.00  0.00     0.001 A 
HETATM   11  C   UNL     1      61.694  10.962   2.757  1.00  0.00     0.000 A 
HETATM   12  C   UNL     1      62.048  11.328   4.052  1.00  0.00     0.001 A 
HETATM   13  C   UNL     1      62.804  10.455   4.840  1.00  0.00     0.014 A 
ENDBRANCH   4   8
BRANCH   6  14
HETATM   14  C   UNL     1      66.897   6.784   6.929  1.00  0.00     0.288 C 
BRANCH  14  15
HETATM   15  N   UNL     1      67.980   7.421   6.174  1.00  0.00    -0.074 N 
HETATM   16  H   UNL     1      68.635   7.857   6.821  1.00  0.00     0.274 HD
HETATM   17  H   UNL     1      67.590   8.131   5.554  1.00  0.00     0.274 HD
HETATM   18  H   UNL     1      68.468   6.716   5.620  1.00  0.00     0.274 HD
ENDBRANCH  14  15
ENDBRANCH   6  14
TORSDOF 3
ENDMDL
MODEL 3
REMARK VINA RESULT:      -5.0      1.793      2.758
REMARK  3 active torsions:
REMARK  status: ('A' for Active; 'I' for Inactive)
REMARK    1  A    between atoms: C_4  and  C_7 
REMARK    2  A    between atoms: C_6  and  C_9 
REMARK    3  A    between atoms: C_9  and  N_10 
ROOT
HETATM    1  N   UNL     1      63.550   9.543   4.962  1.00  0.00    -0.296 N 
HETATM    2  N   UNL     1      64.643   9.362   5.738  1.00  0.00    -0.301 N 
ATOM      3  HN  UNL     1      65.004   9.982   6.463  1.00  0.00     0.187 HD
HETATM    4  C   UNL     1      63.347   8.533   4.044  1.00  0.00     0.062 A 
HETATM    5  C   UNL     1      64.366   7.631   4.307  1.00  0.00     0.060 A 
HETATM    6  C   UNL     1      65.143   8.188   5.342  1.00  0.00     0.053 A 
HETATM    7  C   UNL     1      62.768  10.730   5.219  1.00  0.00     0.178 C 
ENDROOT
BRANCH   4   8
HETATM    8  C   UNL     1      62.275   8.421   3.039  1.00  0.00    -0.008 A 
HETATM    9  C   UNL     1      62.438   8.832   1.710  1.00  0.00     0.014 A 
HETATM   10  C   UNL     1      61.396   8.701   0.781  1.00  0.00     0.001 A 
HETATM   11  C   UNL     1      60.192   8.116   1.157  1.00  0.00     0.000 A 
HETATM   12  C   UNL     1      60.020   7.667   2.462  1.00  0.00     0.001 A 
HETATM   13  C   UNL     1      61.050   7.827   3.395  1.00  0.00     0.014 A 
ENDBRANCH   4   8
BRANCH   6  14
HETATM   14  C   UNL     1      66.371   7.618   5.974  1.00  0.00     0.288 C 
BRANCH  14  15
HETATM   15  N   UNL     1      66.852   8.534   7.012  1.00  0.00    -0.074 N 
HETATM   16  H   UNL     1      67.024   8.014   7.871  1.00  0.00     0.274 HD
HETATM   17  H   UNL     1      66.148   9.252   7.184  1.00  0.00     0.274 HD
HETATM   18  H   UNL     1      67.718   8.974   6.701  1.00  0.00     0.274 HD
ENDBRANCH  14  15
ENDBRANCH   6  14
TORSDOF 3
ENDMDL
MODEL 4
REMARK VINA RESULT:      -4.8      1.825      3.079
REMARK  3 active torsions:
REMARK  status: ('A' for Active; 'I' for Inactive)
REMARK    1  A    between atoms: C_4  and  C_7 
REMARK    2  A    between atoms: C_6  and  C_9 
REMARK    3  A    between atoms: C_9  and  N_10 
ROOT
HETATM    1  N   UNL     1      66.994   7.452   5.758  1.00  0.00    -0.296 N 
HETATM    2  N   UNL     1      67.648   6.925   6.818  1.00  0.00    -0.301 N 
ATOM      3  HN  UNL     1      68.656   6.844   6.954  1.00  0.00     0.187 HD
HETATM    4  C   UNL     1      65.620   7.381   5.862  1.00  0.00     0.062 A 
HETATM    5  C   UNL     1      65.406   6.810   7.107  1.00  0.00     0.060 A 
HETATM    6  C   UNL     1      66.677   6.534   7.650  1.00  0.00     0.053 A 
HETATM    7  C   UNL     1      67.815   8.013   4.711  1.00  0.00     0.178 C 
ENDROOT
BRANCH   4   8
HETATM    8  C   UNL     1      64.612   7.836   4.888  1.00  0.00    -0.008 A 
HETATM    9  C   UNL     1      64.257   7.087   3.760  1.00  0.00     0.014 A 
HETATM   10  C   UNL     1      63.286   7.551   2.862  1.00  0.00     0.001 A 
HETATM   11  C   UNL     1      62.623   8.749   3.103  1.00  0.00     0.000 A 
HETATM   12  C   UNL     1      62.933   9.493   4.238  1.00  0.00     0.001 A 
HETATM   13  C   UNL     1      63.925   9.043   5.116  1.00  0.00     0.014 A 
ENDBRANCH   4   8
BRANCH   6  14
HETATM   14  C   UNL     1      66.994   5.899   8.964  1.00  0.00     0.288 C 
BRANCH  14  15
HETATM   15  N   UNL     1      66.898   4.442   8.833  1.00  0.00    -0.074 N 
HETATM   16  H   UNL     1      67.521   4.126   8.091  1.00  0.00     0.274 HD
HETATM   17  H   UNL     1      65.938   4.184   8.606  1.00  0.00     0.274 HD
HETATM   18  H   UNL     1      67.170   4.004   9.714  1.00  0.00     0.274 HD
ENDBRANCH  14  15
ENDBRANCH   6  14
TORSDOF 3
ENDMDL
MODEL 5
REMARK VINA RESULT:      -4.7      2.278      5.544
REMARK  3 active torsions:
REMARK  status: ('A' for Active; 'I' for Inactive)
REMARK    1  A    between atoms: C_4  and  C_7 
REMARK    2  A    between atoms: C_6  and  C_9 
REMARK    3  A    between atoms: C_9  and  N_10 
ROOT
HETATM    1  N   UNL     1      63.710   7.792   3.550  1.00  0.00    -0.296 N 
HETATM    2  N   UNL     1      62.755   8.645   3.115  1.00  0.00    -0.301 N 
ATOM      3  HN  UNL     1      62.157   8.548   2.294  1.00  0.00     0.187 HD
HETATM    4  C   UNL     1      64.372   8.228   4.679  1.00  0.00     0.062 A 
HETATM    5  C   UNL     1      63.743   9.422   4.997  1.00  0.00     0.060 A 
HETATM    6  C   UNL     1      62.769   9.643   4.003  1.00  0.00     0.053 A 
HETATM    7  C   UNL     1      63.876   6.573   2.794  1.00  0.00     0.178 C 
ENDROOT
BRANCH   4   8
HETATM    8  C   UNL     1      65.472   7.564   5.401  1.00  0.00    -0.008 A 
HETATM    9  C   UNL     1      66.805   7.632   4.977  1.00  0.00     0.014 A 
HETATM   10  C   UNL     1      67.824   6.993   5.696  1.00  0.00     0.001 A 
HETATM   11  C   UNL     1      67.532   6.315   6.874  1.00  0.00     0.000 A 
HETATM   12  C   UNL     1      66.220   6.265   7.334  1.00  0.00     0.001 A 
HETATM   13  C   UNL     1      65.200   6.877   6.598  1.00  0.00     0.014 A 
ENDBRANCH   4   8
BRANCH   6  14
HETATM   14  C   UNL     1      61.835  10.802   3.878  1.00  0.00     0.288 C 
BRANCH  14  15
HETATM   15  N   UNL     1      61.636  11.115   2.460  1.00  0.00    -0.074 N 
HETATM   16  H   UNL     1      60.997  11.904   2.372  1.00  0.00     0.274 HD
HETATM   17  H   UNL     1      61.242  10.302   1.985  1.00  0.00     0.274 HD
HETATM   18  H   UNL     1      62.533  11.354   2.037  1.00  0.00     0.274 HD
ENDBRANCH  14  15
ENDBRANCH   6  14
TORSDOF 3
ENDMDL
MODEL 6
REMARK VINA RESULT:      -4.5      1.203      1.741
REMARK  3 active torsions:
REMARK  status: ('A' for Active; 'I' for Inactive)
REMARK    1  A    between atoms: C_4  and  C_7 
REMARK    2  A    between atoms: C_6  and  C_9 
REMARK    3  A    between atoms: C_9  and  N_10 
ROOT
HETATM    1  N   UNL     1      63.844   6.231   5.055  1.00  0.00    -0.296 N 
HETATM    2  N   UNL     1      64.841   5.415   5.465  1.00  0.00    -0.301 N 
ATOM      3  HN  UNL     1      64.766   4.446   5.777  1.00  0.00     0.187 HD
HETATM    4  C   UNL     1      64.267   7.504   4.731  1.00  0.00     0.062 A 
HETATM    5  C   UNL     1      65.641   7.456   4.907  1.00  0.00     0.060 A 
HETATM    6  C   UNL     1      65.945   6.161   5.371  1.00  0.00     0.053 A 
HETATM    7  C   UNL     1      62.521   5.655   5.002  1.00  0.00     0.178 C 
ENDROOT
BRANCH   4   8
HETATM    8  C   UNL     1      63.452   8.642   4.272  1.00  0.00    -0.008 A 
HETATM    9  C   UNL     1      62.744   8.628   3.064  1.00  0.00     0.014 A 
HETATM   10  C   UNL     1      61.971   9.728   2.666  1.00  0.00     0.001 A 
HETATM   11  C   UNL     1      61.859  10.841   3.492  1.00  0.00     0.000 A 
HETATM   12  C   UNL     1      62.524  10.862   4.715  1.00  0.00     0.001 A 
HETATM   13  C   UNL     1      63.319   9.776   5.094  1.00  0.00     0.014 A 
ENDBRANCH   4   8
BRANCH   6  14
HETATM   14  C   UNL     1      67.285   5.608   5.732  1.00  0.00     0.288 C 
BRANCH  14  15
HETATM   15  N   UNL     1      67.981   6.555   6.608  1.00  0.00    -0.074 N 
HETATM   16  H   UNL     1      68.786   6.943   6.118  1.00  0.00     0.274 HD
HETATM   17  H   UNL     1      68.295   6.072   7.449  1.00  0.00     0.274 HD
HETATM   18  H   UNL     1      67.343   7.309   6.866  1.00  0.00     0.274 HD
ENDBRANCH  14  15
ENDBRANCH   6  14
TORSDOF 3
ENDMDL
MODEL 7
REMARK VINA RESULT:      -4.3      2.328      5.051
REMARK  3 active torsions:
REMARK  status: ('A' for Active; 'I' for Inactive)
REMARK    1  A    between atoms: C_4  and  C_7 
REMARK    2  A    between atoms: C_6  and  C_9 
REMARK    3  A    between atoms: C_9  and  N_10 
ROOT
HETATM    1  N   UNL     1      63.014   7.380   4.555  1.00  0.00    -0.296 N 
HETATM    2  N   UNL     1      62.318   8.535   4.649  1.00  0.00    -0.301 N 
ATOM      3  HN  UNL     1      61.325   8.684   4.465  1.00  0.00     0.187 HD
HETATM    4  C   UNL     1      64.358   7.516   4.836  1.00  0.00     0.062 A 
HETATM    5  C   UNL     1      64.494   8.852   5.180  1.00  0.00     0.060 A 
HETATM    6  C   UNL     1      63.222   9.440   5.036  1.00  0.00     0.053 A 
HETATM    7  C   UNL     1      62.259   6.201   4.200  1.00  0.00     0.178 C 
ENDROOT
BRANCH   4   8
HETATM    8  C   UNL     1      65.401   6.476   4.810  1.00  0.00    -0.008 A 
HETATM    9  C   UNL     1      65.771   5.746   5.946  1.00  0.00     0.014 A 
HETATM   10  C   UNL     1      66.762   4.757   5.878  1.00  0.00     0.001 A 
HETATM   11  C   UNL     1      67.367   4.454   4.664  1.00  0.00     0.000 A 
HETATM   12  C   UNL     1      66.989   5.141   3.514  1.00  0.00     0.001 A 
HETATM   13  C   UNL     1      66.022   6.148   3.591  1.00  0.00     0.014 A 
ENDBRANCH   4   8
BRANCH   6  14
HETATM   14  C   UNL     1      62.840  10.866   5.265  1.00  0.00     0.288 C 
BRANCH  14  15
HETATM   15  N   UNL     1      63.733  11.452   6.268  1.00  0.00    -0.074 N 
HETATM   16  H   UNL     1      63.197  12.055   6.890  1.00  0.00     0.274 HD
HETATM   17  H   UNL     1      64.455  12.001   5.800  1.00  0.00     0.274 HD
HETATM   18  H   UNL     1      64.171  10.706   6.810  1.00  0.00     0.274 HD
ENDBRANCH  14  15
ENDBRANCH   6  14
TORSDOF 3
ENDMDL
MODEL 8
REMARK VINA RESULT:      -4.3      2.359      3.700
REMARK  3 active torsions:
REMARK  status: ('A' for Active; 'I' for Inactive)
REMARK    1  A    between atoms: C_4  and  C_7 
REMARK    2  A    between atoms: C_6  and  C_9 
REMARK    3  A    between atoms: C_9  and  N_10 
ROOT
HETATM    1  N   UNL     1      63.393   6.692   4.319  1.00  0.00    -0.296 N 
HETATM    2  N   UNL     1      63.187   5.604   5.095  1.00  0.00    -0.301 N 
ATOM      3  HN  UNL     1      63.838   4.843   5.290  1.00  0.00     0.187 HD
HETATM    4  C   UNL     1      62.297   7.525   4.227  1.00  0.00     0.062 A 
HETATM    5  C   UNL     1      61.354   6.930   5.051  1.00  0.00     0.060 A 
HETATM    6  C   UNL     1      61.939   5.748   5.549  1.00  0.00     0.053 A 
HETATM    7  C   UNL     1      64.706   6.825   3.733  1.00  0.00     0.178 C 
ENDROOT
BRANCH   4   8
HETATM    8  C   UNL     1      62.168   8.774   3.457  1.00  0.00    -0.008 A 
HETATM    9  C   UNL     1      62.064   8.796   2.061  1.00  0.00     0.014 A 
HETATM   10  C   UNL     1      61.934  10.005   1.365  1.00  0.00     0.001 A 
HETATM   11  C   UNL     1      61.859  11.208   2.059  1.00  0.00     0.000 A 
HETATM   12  C   UNL     1      61.923  11.208   3.449  1.00  0.00     0.001 A 
HETATM   13  C   UNL     1      62.084  10.002   4.138  1.00  0.00     0.014 A 
ENDBRANCH   4   8
BRANCH   6  14
HETATM   14  C   UNL     1      61.327   4.738   6.464  1.00  0.00     0.288 C 
BRANCH  14  15
HETATM   15  N   UNL     1      59.887   4.659   6.205  1.00  0.00    -0.074 N 
HETATM   16  H   UNL     1      59.400   4.404   7.063  1.00  0.00     0.274 HD
HETATM   17  H   UNL     1      59.709   3.952   5.490  1.00  0.00     0.274 HD
HETATM   18  H   UNL     1      59.550   5.565   5.878  1.00  0.00     0.274 HD
ENDBRANCH  14  15
ENDBRANCH   6  14
TORSDOF 3
ENDMDL
MODEL 9
REMARK VINA RESULT:      -4.3      1.518      2.728
REMARK  3 active torsions:
REMARK  status: ('A' for Active; 'I' for Inactive)
REMARK    1  A    between atoms: C_4  and  C_7 
REMARK    2  A    between atoms: C_6  and  C_9 
REMARK    3  A    between atoms: C_9  and  N_10 
ROOT
HETATM    1  N   UNL     1      64.752   7.287   5.193  1.00  0.00    -0.296 N 
HETATM    2  N   UNL     1      64.973   6.061   5.720  1.00  0.00    -0.301 N 
ATOM      3  HN  UNL     1      65.821   5.720   6.173  1.00  0.00     0.187 HD
HETATM    4  C   UNL     1      63.507   7.427   4.615  1.00  0.00     0.062 A 
HETATM    5  C   UNL     1      62.891   6.207   4.847  1.00  0.00     0.060 A 
HETATM    6  C   UNL     1      63.833   5.397   5.514  1.00  0.00     0.053 A 
HETATM    7  C   UNL     1      65.821   8.248   5.329  1.00  0.00     0.178 C 
ENDROOT
BRANCH   4   8
HETATM    8  C   UNL     1      62.948   8.610   3.938  1.00  0.00    -0.008 A 
HETATM    9  C   UNL     1      62.562   8.599   2.592  1.00  0.00     0.014 A 
HETATM   10  C   UNL     1      62.026   9.743   1.985  1.00  0.00     0.001 A 
HETATM   11  C   UNL     1      61.825  10.901   2.728  1.00  0.00     0.000 A 
HETATM   12  C   UNL     1      62.168  10.924   4.077  1.00  0.00     0.001 A 
HETATM   13  C   UNL     1      62.731   9.791   4.671  1.00  0.00     0.014 A 
ENDBRANCH   4   8
BRANCH   6  14
HETATM   14  C   UNL     1      63.667   3.984   5.968  1.00  0.00     0.288 C 
BRANCH  14  15
HETATM   15  N   UNL     1      64.313   3.815   7.272  1.00  0.00    -0.074 N 
HETATM   16  H   UNL     1      65.095   3.168   7.184  1.00  0.00     0.274 HD
HETATM   17  H   UNL     1      63.637   3.443   7.940  1.00  0.00     0.274 HD
HETATM   18  H   UNL     1      64.654   4.719   7.601  1.00  0.00     0.274 HD
ENDBRANCH  14  15
ENDBRANCH   6  14
TORSDOF 3
ENDMDL
