MODEL 1
REMARK VINA RESULT:      -5.4      0.000      0.000
REMARK  3 active torsions:
REMARK  status: ('A' for Active; 'I' for Inactive)
REMARK    1  A    between atoms: C_4  and  C_8 
REMARK    2  A    between atoms: C_6  and  C_7 
REMARK    3  A    between atoms: C_8  and  N_10 
ROOT
HETATM    1  N   UNL     1      63.537   6.964   5.536  1.00  0.00    -0.298 N 
ATOM      2  HN  UNL     1      62.598   6.598   5.382  1.00  0.00     0.187 HD
HETATM    3  N   UNL     1      64.555   6.364   6.179  1.00  0.00    -0.299 N 
HETATM    4  C   UNL     1      65.692   7.125   6.224  1.00  0.00     0.056 A 
HETATM    5  C   UNL     1      65.368   8.296   5.570  1.00  0.00     0.060 A 
HETATM    6  C   UNL     1      64.025   8.151   5.142  1.00  0.00     0.060 A 
HETATM    7  C   UNL     1      64.350   5.015   6.653  1.00  0.00     0.177 C 
ENDROOT
BRANCH   6   8
HETATM    8  C   UNL     1      63.224   9.091   4.359  1.00  0.00    -0.008 A 
HETATM    9  C   UNL     1      62.819   8.761   3.058  1.00  0.00     0.014 A 
HETATM   10  C   UNL     1      62.070   9.662   2.296  1.00  0.00     0.001 A 
HETATM   11  C   UNL     1      61.718  10.902   2.830  1.00  0.00     0.000 A 
HETATM   12  C   UNL     1      62.113  11.239   4.122  1.00  0.00     0.001 A 
HETATM   13  C   UNL     1      62.865  10.341   4.884  1.00  0.00     0.014 A 
ENDBRANCH   6   8
BRANCH   4  14
HETATM   14  C   UNL     1      66.985   6.695   6.818  1.00  0.00     0.290 C 
BRANCH  14  15
HETATM   15  N   UNL     1      67.240   7.324   8.114  1.00  0.00    -0.074 N 
HETATM   16  C   UNL     1      66.832   6.483   9.236  1.00  0.00     0.267 C 
HETATM   17  H   UNL     1      66.722   8.202   8.159  1.00  0.00     0.277 HD
HETATM   18  H   UNL     1      68.246   7.477   8.191  1.00  0.00     0.277 HD
ENDBRANCH  14  15
ENDBRANCH   4  14
TORSDOF 3
ENDMDL
MODEL 2
REMARK VINA RESULT:      -5.3      0.101      1.251
REMARK  3 active torsions:
REMARK  status: ('A' for Active; 'I' for Inactive)
REMARK    1  A    between atoms: C_4  and  C_8 
REMARK    2  A    between atoms: C_6  and  C_7 
REMARK    3  A    between atoms: C_8  and  N_10 
ROOT
HETATM    1  N   UNL     1      63.442   6.993   5.487  1.00  0.00    -0.298 N 
ATOM      2  HN  UNL     1      62.492   6.659   5.333  1.00  0.00     0.187 HD
HETATM    3  N   UNL     1      64.440   6.358   6.130  1.00  0.00    -0.299 N 
HETATM    4  C   UNL     1      65.602   7.081   6.175  1.00  0.00     0.056 A 
HETATM    5  C   UNL     1      65.317   8.263   5.523  1.00  0.00     0.060 A 
HETATM    6  C   UNL     1      63.970   8.163   5.095  1.00  0.00     0.060 A 
HETATM    7  C   UNL     1      64.189   5.016   6.602  1.00  0.00     0.177 C 
ENDROOT
BRANCH   6   8
HETATM    8  C   UNL     1      63.200   9.131   4.312  1.00  0.00    -0.008 A 
HETATM    9  C   UNL     1      62.850  10.369   4.869  1.00  0.00     0.014 A 
HETATM   10  C   UNL     1      62.098  11.291   4.135  1.00  0.00     0.001 A 
HETATM   11  C   UNL     1      61.692  10.982   2.837  1.00  0.00     0.000 A 
HETATM   12  C   UNL     1      62.037   9.757   2.274  1.00  0.00     0.001 A 
HETATM   13  C   UNL     1      62.785   8.832   3.007  1.00  0.00     0.014 A 
ENDBRANCH   6   8
BRANCH   4  14
HETATM   14  C   UNL     1      66.879   6.607   6.768  1.00  0.00     0.290 C 
BRANCH  14  15
HETATM   15  N   UNL     1      67.204   7.296   8.017  1.00  0.00    -0.074 N 
HETATM   16  C   UNL     1      66.815   6.530   9.198  1.00  0.00     0.267 C 
HETATM   17  H   UNL     1      66.715   8.192   8.033  1.00  0.00     0.277 HD
HETATM   18  H   UNL     1      68.216   7.421   8.048  1.00  0.00     0.277 HD
ENDBRANCH  14  15
ENDBRANCH   4  14
TORSDOF 3
ENDMDL
MODEL 3
REMARK VINA RESULT:      -5.1      1.587      2.272
REMARK  3 active torsions:
REMARK  status: ('A' for Active; 'I' for Inactive)
REMARK    1  A    between atoms: C_4  and  C_8 
REMARK    2  A    between atoms: C_6  and  C_7 
REMARK    3  A    between atoms: C_8  and  N_10 
ROOT
HETATM    1  N   UNL     1      64.661   7.748   6.565  1.00  0.00    -0.298 N 
ATOM      2  HN  UNL     1      63.943   8.023   7.235  1.00  0.00     0.187 HD
HETATM    3  N   UNL     1      65.719   6.945   6.782  1.00  0.00    -0.299 N 
HETATM    4  C   UNL     1      66.507   6.775   5.675  1.00  0.00     0.056 A 
HETATM    5  C   UNL     1      65.909   7.532   4.688  1.00  0.00     0.060 A 
HETATM    6  C   UNL     1      64.755   8.107   5.275  1.00  0.00     0.060 A 
HETATM    7  C   UNL     1      65.840   6.328   8.082  1.00  0.00     0.177 C 
ENDROOT
BRANCH   6   8
HETATM    8  C   UNL     1      63.747   8.954   4.636  1.00  0.00    -0.008 A 
HETATM    9  C   UNL     1      63.365  10.165   5.229  1.00  0.00     0.014 A 
HETATM   10  C   UNL     1      62.389  10.971   4.635  1.00  0.00     0.001 A 
HETATM   11  C   UNL     1      61.789  10.572   3.441  1.00  0.00     0.000 A 
HETATM   12  C   UNL     1      62.162   9.371   2.843  1.00  0.00     0.001 A 
HETATM   13  C   UNL     1      63.135   8.563   3.437  1.00  0.00     0.014 A 
ENDBRANCH   6   8
BRANCH   4  14
HETATM   14  C   UNL     1      67.706   5.900   5.606  1.00  0.00     0.290 C 
BRANCH  14  15
HETATM   15  N   UNL     1      67.382   4.541   5.172  1.00  0.00    -0.074 N 
HETATM   16  C   UNL     1      67.656   3.543   6.202  1.00  0.00     0.267 C 
HETATM   17  H   UNL     1      67.939   4.321   4.346  1.00  0.00     0.277 HD
HETATM   18  H   UNL     1      66.382   4.511   4.970  1.00  0.00     0.277 HD
ENDBRANCH  14  15
ENDBRANCH   4  14
TORSDOF 3
ENDMDL
MODEL 4
REMARK VINA RESULT:      -5.0      1.330      2.472
REMARK  3 active torsions:
REMARK  status: ('A' for Active; 'I' for Inactive)
REMARK    1  A    between atoms: C_4  and  C_8 
REMARK    2  A    between atoms: C_6  and  C_7 
REMARK    3  A    between atoms: C_8  and  N_10 
ROOT
HETATM    1  N   UNL     1      65.198   8.456   5.844  1.00  0.00    -0.298 N 
ATOM      2  HN  UNL     1      65.698   9.344   5.814  1.00  0.00     0.187 HD
HETATM    3  N   UNL     1      65.574   7.325   6.469  1.00  0.00    -0.299 N 
HETATM    4  C   UNL     1      64.684   6.297   6.314  1.00  0.00     0.056 A 
HETATM    5  C   UNL     1      63.675   6.811   5.525  1.00  0.00     0.060 A 
HETATM    6  C   UNL     1      64.022   8.161   5.268  1.00  0.00     0.060 A 
HETATM    7  C   UNL     1      66.783   7.363   7.259  1.00  0.00     0.177 C 
ENDROOT
BRANCH   6   8
HETATM    8  C   UNL     1      63.258   9.160   4.522  1.00  0.00    -0.008 A 
HETATM    9  C   UNL     1      62.957  10.398   5.105  1.00  0.00     0.014 A 
HETATM   10  C   UNL     1      62.211  11.352   4.406  1.00  0.00     0.001 A 
HETATM   11  C   UNL     1      61.760  11.073   3.115  1.00  0.00     0.000 A 
HETATM   12  C   UNL     1      62.056   9.847   2.525  1.00  0.00     0.001 A 
HETATM   13  C   UNL     1      62.798   8.892   3.224  1.00  0.00     0.014 A 
ENDBRANCH   6   8
BRANCH   4  14
HETATM   14  C   UNL     1      64.811   4.954   6.937  1.00  0.00     0.290 C 
BRANCH  14  15
HETATM   15  N   UNL     1      65.438   3.980   6.043  1.00  0.00    -0.074 N 
HETATM   16  C   UNL     1      66.852   3.773   6.342  1.00  0.00     0.267 C 
HETATM   17  H   UNL     1      65.352   4.316   5.083  1.00  0.00     0.277 HD
HETATM   18  H   UNL     1      64.959   3.089   6.173  1.00  0.00     0.277 HD
ENDBRANCH  14  15
ENDBRANCH   4  14
TORSDOF 3
ENDMDL
MODEL 5
REMARK VINA RESULT:      -4.8      1.907      5.946
REMARK  3 active torsions:
REMARK  status: ('A' for Active; 'I' for Inactive)
REMARK    1  A    between atoms: C_4  and  C_8 
REMARK    2  A    between atoms: C_6  and  C_7 
REMARK    3  A    between atoms: C_8  and  N_10 
ROOT
HETATM    1  N   UNL     1      64.329   9.239   5.764  1.00  0.00    -0.298 N 
ATOM      2  HN  UNL     1      64.739   9.601   6.624  1.00  0.00     0.187 HD
HETATM    3  N   UNL     1      63.336   9.784   5.037  1.00  0.00    -0.299 N 
HETATM    4  C   UNL     1      63.003   9.047   3.933  1.00  0.00     0.056 A 
HETATM    5  C   UNL     1      63.840   7.950   3.967  1.00  0.00     0.060 A 
HETATM    6  C   UNL     1      64.661   8.114   5.111  1.00  0.00     0.060 A 
HETATM    7  C   UNL     1      62.821  11.067   5.457  1.00  0.00     0.177 C 
ENDROOT
BRANCH   6   8
HETATM    8  C   UNL     1      65.750   7.252   5.568  1.00  0.00    -0.008 A 
HETATM    9  C   UNL     1      66.443   6.445   4.655  1.00  0.00     0.014 A 
HETATM   10  C   UNL     1      67.472   5.604   5.087  1.00  0.00     0.001 A 
HETATM   11  C   UNL     1      67.817   5.563   6.438  1.00  0.00     0.000 A 
HETATM   12  C   UNL     1      67.137   6.361   7.354  1.00  0.00     0.001 A 
HETATM   13  C   UNL     1      66.105   7.201   6.924  1.00  0.00     0.014 A 
ENDBRANCH   6   8
BRANCH   4  14
HETATM   14  C   UNL     1      61.986   9.433   2.922  1.00  0.00     0.290 C 
BRANCH  14  15
HETATM   15  N   UNL     1      60.623   9.120   3.353  1.00  0.00    -0.074 N 
HETATM   16  C   UNL     1      60.265   7.725   3.113  1.00  0.00     0.267 C 
HETATM   17  H   UNL     1      59.973   9.718   2.840  1.00  0.00     0.277 HD
HETATM   18  H   UNL     1      60.571   9.286   4.358  1.00  0.00     0.277 HD
ENDBRANCH  14  15
ENDBRANCH   4  14
TORSDOF 3
ENDMDL
MODEL 6
REMARK VINA RESULT:      -4.6      1.862      5.918
REMARK  3 active torsions:
REMARK  status: ('A' for Active; 'I' for Inactive)
REMARK    1  A    between atoms: C_4  and  C_8 
REMARK    2  A    between atoms: C_6  and  C_7 
REMARK    3  A    between atoms: C_8  and  N_10 
ROOT
HETATM    1  N   UNL     1      63.133   6.993   4.801  1.00  0.00    -0.298 N 
ATOM      2  HN  UNL     1      63.060   5.981   4.904  1.00  0.00     0.187 HD
HETATM    3  N   UNL     1      62.197   7.837   4.330  1.00  0.00    -0.299 N 
HETATM    4  C   UNL     1      62.606   9.143   4.309  1.00  0.00     0.056 A 
HETATM    5  C   UNL     1      63.898   9.124   4.793  1.00  0.00     0.060 A 
HETATM    6  C   UNL     1      64.183   7.771   5.104  1.00  0.00     0.060 A 
HETATM    7  C   UNL     1      60.904   7.288   3.993  1.00  0.00     0.177 C 
ENDROOT
BRANCH   6   8
HETATM    8  C   UNL     1      65.403   7.222   5.697  1.00  0.00    -0.008 A 
HETATM    9  C   UNL     1      66.631   7.355   5.035  1.00  0.00     0.014 A 
HETATM   10  C   UNL     1      67.798   6.816   5.585  1.00  0.00     0.001 A 
HETATM   11  C   UNL     1      67.745   6.140   6.803  1.00  0.00     0.000 A 
HETATM   12  C   UNL     1      66.530   6.003   7.471  1.00  0.00     0.001 A 
HETATM   13  C   UNL     1      65.362   6.538   6.921  1.00  0.00     0.014 A 
ENDBRANCH   6   8
BRANCH   4  14
HETATM   14  C   UNL     1      61.765  10.296   3.894  1.00  0.00     0.290 C 
BRANCH  14  15
HETATM   15  N   UNL     1      61.646  10.406   2.440  1.00  0.00    -0.074 N 
HETATM   16  C   UNL     1      61.743  11.785   1.972  1.00  0.00     0.267 C 
HETATM   17  H   UNL     1      60.741  10.027   2.157  1.00  0.00     0.277 HD
HETATM   18  H   UNL     1      62.418   9.883   2.026  1.00  0.00     0.277 HD
ENDBRANCH  14  15
ENDBRANCH   4  14
TORSDOF 3
ENDMDL
MODEL 7
REMARK VINA RESULT:      -4.4      2.631      3.903
REMARK  3 active torsions:
REMARK  status: ('A' for Active; 'I' for Inactive)
REMARK    1  A    between atoms: C_4  and  C_8 
REMARK    2  A    between atoms: C_6  and  C_7 
REMARK    3  A    between atoms: C_8  and  N_10 
ROOT
HETATM    1  N   UNL     1      63.074   6.787   4.780  1.00  0.00    -0.298 N 
ATOM      2  HN  UNL     1      64.023   6.993   4.470  1.00  0.00     0.187 HD
HETATM    3  N   UNL     1      62.684   5.836   5.648  1.00  0.00    -0.299 N 
HETATM    4  C   UNL     1      61.331   5.809   5.852  1.00  0.00     0.056 A 
HETATM    5  C   UNL     1      60.825   6.809   5.047  1.00  0.00     0.060 A 
HETATM    6  C   UNL     1      61.942   7.406   4.410  1.00  0.00     0.060 A 
HETATM    7  C   UNL     1      63.712   5.047   6.289  1.00  0.00     0.177 C 
ENDROOT
BRANCH   6   8
HETATM    8  C   UNL     1      61.952   8.547   3.494  1.00  0.00    -0.008 A 
HETATM    9  C   UNL     1      62.053   8.342   2.112  1.00  0.00     0.014 A 
HETATM   10  C   UNL     1      62.083   9.428   1.232  1.00  0.00     0.001 A 
HETATM   11  C   UNL     1      62.011  10.729   1.729  1.00  0.00     0.000 A 
HETATM   12  C   UNL     1      61.908  10.944   3.100  1.00  0.00     0.001 A 
HETATM   13  C   UNL     1      61.882   9.860   3.982  1.00  0.00     0.014 A 
ENDBRANCH   6   8
BRANCH   4  14
HETATM   14  C   UNL     1      60.627   4.904   6.797  1.00  0.00     0.290 C 
BRANCH  14  15
HETATM   15  N   UNL     1      59.940   5.635   7.863  1.00  0.00    -0.074 N 
HETATM   16  C   UNL     1      59.052   4.781   8.646  1.00  0.00     0.267 C 
HETATM   17  H   UNL     1      59.387   6.383   7.442  1.00  0.00     0.277 HD
HETATM   18  H   UNL     1      60.652   6.003   8.493  1.00  0.00     0.277 HD
ENDBRANCH  14  15
ENDBRANCH   4  14
TORSDOF 3
ENDMDL
MODEL 8
REMARK VINA RESULT:      -4.3      1.828      2.427
REMARK  3 active torsions:
REMARK  status: ('A' for Active; 'I' for Inactive)
REMARK    1  A    between atoms: C_4  and  C_8 
REMARK    2  A    between atoms: C_6  and  C_7 
REMARK    3  A    between atoms: C_8  and  N_10 
ROOT
HETATM    1  N   UNL     1      65.447   7.699   4.863  1.00  0.00    -0.298 N 
ATOM      2  HN  UNL     1      65.713   8.097   3.963  1.00  0.00     0.187 HD
HETATM    3  N   UNL     1      66.262   7.336   5.871  1.00  0.00    -0.299 N 
HETATM    4  C   UNL     1      65.594   6.824   6.951  1.00  0.00     0.056 A 
HETATM    5  C   UNL     1      64.260   6.857   6.598  1.00  0.00     0.060 A 
HETATM    6  C   UNL     1      64.208   7.424   5.300  1.00  0.00     0.060 A 
HETATM    7  C   UNL     1      67.675   7.594   5.720  1.00  0.00     0.177 C 
ENDROOT
BRANCH   6   8
HETATM    8  C   UNL     1      63.024   7.725   4.496  1.00  0.00    -0.008 A 
HETATM    9  C   UNL     1      61.849   6.980   4.664  1.00  0.00     0.014 A 
HETATM   10  C   UNL     1      60.719   7.249   3.886  1.00  0.00     0.001 A 
HETATM   11  C   UNL     1      60.755   8.267   2.934  1.00  0.00     0.000 A 
HETATM   12  C   UNL     1      61.917   9.016   2.760  1.00  0.00     0.001 A 
HETATM   13  C   UNL     1      63.048   8.746   3.534  1.00  0.00     0.014 A 
ENDBRANCH   6   8
BRANCH   4  14
HETATM   14  C   UNL     1      66.229   6.396   8.224  1.00  0.00     0.290 C 
BRANCH  14  15
HETATM   15  N   UNL     1      66.083   4.960   8.466  1.00  0.00    -0.074 N 
HETATM   16  C   UNL     1      66.965   4.157   7.624  1.00  0.00     0.267 C 
HETATM   17  H   UNL     1      65.116   4.694   8.275  1.00  0.00     0.277 HD
HETATM   18  H   UNL     1      66.336   4.783   9.438  1.00  0.00     0.277 HD
ENDBRANCH  14  15
ENDBRANCH   4  14
TORSDOF 3
ENDMDL
MODEL 9
REMARK VINA RESULT:      -4.1      2.527      2.943
REMARK  3 active torsions:
REMARK  status: ('A' for Active; 'I' for Inactive)
REMARK    1  A    between atoms: C_4  and  C_8 
REMARK    2  A    between atoms: C_6  and  C_7 
REMARK    3  A    between atoms: C_8  and  N_10 
ROOT
HETATM    1  N   UNL     1      60.918   6.909   4.388  1.00  0.00    -0.298 N 
ATOM      2  HN  UNL     1      59.993   7.045   3.981  1.00  0.00     0.187 HD
HETATM    3  N   UNL     1      61.339   5.873   5.137  1.00  0.00    -0.299 N 
HETATM    4  C   UNL     1      62.642   5.990   5.541  1.00  0.00     0.056 A 
HETATM    5  C   UNL     1      63.074   7.192   5.018  1.00  0.00     0.060 A 
HETATM    6  C   UNL     1      61.979   7.725   4.294  1.00  0.00     0.060 A 
HETATM    7  C   UNL     1      60.423   4.776   5.344  1.00  0.00     0.177 C 
ENDROOT
BRANCH   6   8
HETATM    8  C   UNL     1      61.934   8.959   3.509  1.00  0.00    -0.008 A 
HETATM    9  C   UNL     1      61.934   8.904   2.108  1.00  0.00     0.014 A 
HETATM   10  C   UNL     1      61.911  10.079   1.351  1.00  0.00     0.001 A 
HETATM   11  C   UNL     1      61.887  11.319   1.989  1.00  0.00     0.000 A 
HETATM   12  C   UNL     1      61.884  11.384   3.380  1.00  0.00     0.001 A 
HETATM   13  C   UNL     1      61.911  10.212   4.139  1.00  0.00     0.014 A 
ENDBRANCH   6   8
BRANCH   4  14
HETATM   14  C   UNL     1      63.387   4.974   6.327  1.00  0.00     0.290 C 
BRANCH  14  15
HETATM   15  N   UNL     1      64.332   4.215   5.506  1.00  0.00    -0.074 N 
HETATM   16  C   UNL     1      65.236   3.394   6.306  1.00  0.00     0.267 C 
HETATM   17  H   UNL     1      64.886   4.872   4.956  1.00  0.00     0.277 HD
HETATM   18  H   UNL     1      63.790   3.589   4.910  1.00  0.00     0.277 HD
ENDBRANCH  14  15
ENDBRANCH   4  14
TORSDOF 3
ENDMDL
