MODEL 1
REMARK VINA RESULT:      -5.2      0.000      0.000
REMARK  3 active torsions:
REMARK  status: ('A' for Active; 'I' for Inactive)
REMARK    1  A    between atoms: C_4  and  C_8 
REMARK    2  A    between atoms: C_6  and  C_7 
REMARK    3  A    between atoms: C_8  and  O_10 
ROOT
HETATM    1  N   UNL     1      64.567   7.742   6.411  1.00  0.00    -0.298 N 
ATOM      2  HN  UNL     1      63.893   8.044   7.115  1.00  0.00     0.187 HD
HETATM    3  N   UNL     1      65.596   6.891   6.576  1.00  0.00    -0.298 N 
HETATM    4  C   UNL     1      66.333   6.704   5.437  1.00  0.00     0.053 A 
HETATM    5  C   UNL     1      65.711   7.473   4.474  1.00  0.00     0.060 A 
HETATM    6  C   UNL     1      64.619   8.107   5.121  1.00  0.00     0.060 A 
HETATM    7  C   UNL     1      65.764   6.283   7.874  1.00  0.00     0.177 C 
ENDROOT
BRANCH   6   8
HETATM    8  C   UNL     1      63.632   9.018   4.542  1.00  0.00    -0.008 A 
HETATM    9  C   UNL     1      62.987   8.688   3.341  1.00  0.00     0.014 A 
HETATM   10  C   UNL     1      62.057   9.556   2.767  1.00  0.00     0.001 A 
HETATM   11  C   UNL     1      61.755  10.763   3.394  1.00  0.00     0.000 A 
HETATM   12  C   UNL     1      62.383  11.101   4.592  1.00  0.00     0.001 A 
HETATM   13  C   UNL     1      63.317  10.237   5.163  1.00  0.00     0.014 A 
ENDBRANCH   6   8
BRANCH   4  14
HETATM   14  C   UNL     1      67.512   5.819   5.340  1.00  0.00     0.222 C 
BRANCH  14  15
HETATM   15  O   UNL     1      67.589   5.371   3.996  1.00  0.00    -0.395 OA
HETATM   16  H   UNL     1      68.156   5.971   3.488  1.00  0.00     0.209 HD
ENDBRANCH  14  15
ENDBRANCH   4  14
TORSDOF 3
ENDMDL
MODEL 2
REMARK VINA RESULT:      -5.1      1.607      1.667
REMARK  3 active torsions:
REMARK  status: ('A' for Active; 'I' for Inactive)
REMARK    1  A    between atoms: C_4  and  C_8 
REMARK    2  A    between atoms: C_6  and  C_7 
REMARK    3  A    between atoms: C_8  and  O_10 
ROOT
HETATM    1  N   UNL     1      63.486   6.940   5.530  1.00  0.00    -0.298 N 
ATOM      2  HN  UNL     1      62.547   6.590   5.340  1.00  0.00     0.187 HD
HETATM    3  N   UNL     1      64.480   6.307   6.180  1.00  0.00    -0.298 N 
HETATM    4  C   UNL     1      65.620   7.057   6.289  1.00  0.00     0.053 A 
HETATM    5  C   UNL     1      65.337   8.242   5.640  1.00  0.00     0.060 A 
HETATM    6  C   UNL     1      63.997   8.132   5.186  1.00  0.00     0.060 A 
HETATM    7  C   UNL     1      64.235   4.958   6.630  1.00  0.00     0.177 C 
ENDROOT
BRANCH   6   8
HETATM    8  C   UNL     1      63.218   9.110   4.428  1.00  0.00    -0.008 A 
HETATM    9  C   UNL     1      62.802   8.820   3.120  1.00  0.00     0.014 A 
HETATM   10  C   UNL     1      62.074   9.751   2.378  1.00  0.00     0.001 A 
HETATM   11  C   UNL     1      61.745  10.983   2.941  1.00  0.00     0.000 A 
HETATM   12  C   UNL     1      62.145  11.282   4.242  1.00  0.00     0.001 A 
HETATM   13  C   UNL     1      62.878  10.354   4.982  1.00  0.00     0.014 A 
ENDBRANCH   6   8
BRANCH   4  14
HETATM   14  C   UNL     1      66.860   6.602   6.950  1.00  0.00     0.222 C 
BRANCH  14  15
HETATM   15  O   UNL     1      67.222   7.598   7.893  1.00  0.00    -0.395 OA
HETATM   16  H   UNL     1      66.630   7.547   8.659  1.00  0.00     0.209 HD
ENDBRANCH  14  15
ENDBRANCH   4  14
TORSDOF 3
ENDMDL
MODEL 3
REMARK VINA RESULT:      -5.0      2.060      2.645
REMARK  3 active torsions:
REMARK  status: ('A' for Active; 'I' for Inactive)
REMARK    1  A    between atoms: C_4  and  C_8 
REMARK    2  A    between atoms: C_6  and  C_7 
REMARK    3  A    between atoms: C_8  and  O_10 
ROOT
HETATM    1  N   UNL     1      62.817   6.841   4.517  1.00  0.00    -0.298 N 
ATOM      2  HN  UNL     1      61.993   6.511   4.013  1.00  0.00     0.187 HD
HETATM    3  N   UNL     1      63.605   6.133   5.347  1.00  0.00    -0.298 N 
HETATM    4  C   UNL     1      64.625   6.870   5.885  1.00  0.00     0.053 A 
HETATM    5  C   UNL     1      64.488   8.130   5.338  1.00  0.00     0.060 A 
HETATM    6  C   UNL     1      63.348   8.072   4.496  1.00  0.00     0.060 A 
HETATM    7  C   UNL     1      63.304   4.733   5.528  1.00  0.00     0.177 C 
ENDROOT
BRANCH   6   8
HETATM    8  C   UNL     1      62.779   9.138   3.672  1.00  0.00    -0.008 A 
HETATM    9  C   UNL     1      62.465  10.380   4.244  1.00  0.00     0.014 A 
HETATM   10  C   UNL     1      61.905  11.400   3.474  1.00  0.00     0.001 A 
HETATM   11  C   UNL     1      61.660  11.192   2.118  1.00  0.00     0.000 A 
HETATM   12  C   UNL     1      61.973   9.966   1.534  1.00  0.00     0.001 A 
HETATM   13  C   UNL     1      62.528   8.943   2.305  1.00  0.00     0.014 A 
ENDBRANCH   6   8
BRANCH   4  14
HETATM   14  C   UNL     1      65.637   6.339   6.822  1.00  0.00     0.222 C 
BRANCH  14  15
HETATM   15  O   UNL     1      65.336   6.864   8.104  1.00  0.00    -0.395 OA
HETATM   16  H   UNL     1      65.571   7.805   8.132  1.00  0.00     0.209 HD
ENDBRANCH  14  15
ENDBRANCH   4  14
TORSDOF 3
ENDMDL
MODEL 4
REMARK VINA RESULT:      -4.8      2.766      5.652
REMARK  3 active torsions:
REMARK  status: ('A' for Active; 'I' for Inactive)
REMARK    1  A    between atoms: C_4  and  C_8 
REMARK    2  A    between atoms: C_6  and  C_7 
REMARK    3  A    between atoms: C_8  and  O_10 
ROOT
HETATM    1  N   UNL     1      63.854   7.699   3.608  1.00  0.00    -0.298 N 
ATOM      2  HN  UNL     1      64.126   6.816   3.174  1.00  0.00     0.187 HD
HETATM    3  N   UNL     1      62.908   8.558   3.188  1.00  0.00    -0.298 N 
HETATM    4  C   UNL     1      62.795   9.669   3.981  1.00  0.00     0.053 A 
HETATM    5  C   UNL     1      63.720   9.489   4.990  1.00  0.00     0.060 A 
HETATM    6  C   UNL     1      64.362   8.252   4.719  1.00  0.00     0.060 A 
HETATM    7  C   UNL     1      62.140   8.196   2.021  1.00  0.00     0.177 C 
ENDROOT
BRANCH   6   8
HETATM    8  C   UNL     1      65.413   7.592   5.493  1.00  0.00    -0.008 A 
HETATM    9  C   UNL     1      65.099   6.945   6.697  1.00  0.00     0.014 A 
HETATM   10  C   UNL     1      66.095   6.327   7.456  1.00  0.00     0.001 A 
HETATM   11  C   UNL     1      67.416   6.343   7.013  1.00  0.00     0.000 A 
HETATM   12  C   UNL     1      67.740   6.976   5.814  1.00  0.00     0.001 A 
HETATM   13  C   UNL     1      66.746   7.599   5.058  1.00  0.00     0.014 A 
ENDBRANCH   6   8
BRANCH   4  14
HETATM   14  C   UNL     1      61.833  10.767   3.751  1.00  0.00     0.222 C 
BRANCH  14  15
HETATM   15  O   UNL     1      62.259  11.868   4.537  1.00  0.00    -0.395 OA
HETATM   16  H   UNL     1      61.860  12.683   4.195  1.00  0.00     0.209 HD
ENDBRANCH  14  15
ENDBRANCH   4  14
TORSDOF 3
ENDMDL
MODEL 5
REMARK VINA RESULT:      -4.1     10.098     11.969
REMARK  3 active torsions:
REMARK  status: ('A' for Active; 'I' for Inactive)
REMARK    1  A    between atoms: C_4  and  C_8 
REMARK    2  A    between atoms: C_6  and  C_7 
REMARK    3  A    between atoms: C_8  and  O_10 
ROOT
HETATM    1  N   UNL     1      61.399   0.020  10.939  1.00  0.00    -0.298 N 
ATOM      2  HN  UNL     1      60.691   0.261  10.244  1.00  0.00     0.187 HD
HETATM    3  N   UNL     1      62.700  -0.244  10.723  1.00  0.00    -0.298 N 
HETATM    4  C   UNL     1      63.387  -0.555  11.865  1.00  0.00     0.053 A 
HETATM    5  C   UNL     1      62.459  -0.457  12.883  1.00  0.00     0.060 A 
HETATM    6  C   UNL     1      61.233  -0.102  12.264  1.00  0.00     0.060 A 
HETATM    7  C   UNL     1      63.192  -0.136   9.370  1.00  0.00     0.177 C 
ENDROOT
BRANCH   6   8
HETATM    8  C   UNL     1      59.938   0.139  12.900  1.00  0.00    -0.008 A 
HETATM    9  C   UNL     1      59.586   1.433  13.313  1.00  0.00     0.014 A 
HETATM   10  C   UNL     1      58.362   1.675  13.938  1.00  0.00     0.001 A 
HETATM   11  C   UNL     1      57.471   0.625  14.150  1.00  0.00     0.000 A 
HETATM   12  C   UNL     1      57.804  -0.665  13.738  1.00  0.00     0.001 A 
HETATM   13  C   UNL     1      59.031  -0.908  13.118  1.00  0.00     0.014 A 
ENDBRANCH   6   8
BRANCH   4  14
HETATM   14  C   UNL     1      64.828  -0.881  11.913  1.00  0.00     0.222 C 
BRANCH  14  15
HETATM   15  O   UNL     1      65.479   0.197  12.565  1.00  0.00    -0.395 OA
HETATM   16  H   UNL     1      65.129   1.036  12.229  1.00  0.00     0.209 HD
ENDBRANCH  14  15
ENDBRANCH   4  14
TORSDOF 3
ENDMDL
MODEL 6
REMARK VINA RESULT:      -4.1      2.220      2.571
REMARK  3 active torsions:
REMARK  status: ('A' for Active; 'I' for Inactive)
REMARK    1  A    between atoms: C_4  and  C_8 
REMARK    2  A    between atoms: C_6  and  C_7 
REMARK    3  A    between atoms: C_8  and  O_10 
ROOT
HETATM    1  N   UNL     1      63.877   6.338   5.318  1.00  0.00    -0.298 N 
ATOM      2  HN  UNL     1      63.179   5.601   5.420  1.00  0.00     0.187 HD
HETATM    3  N   UNL     1      65.069   6.427   5.935  1.00  0.00    -0.298 N 
HETATM    4  C   UNL     1      65.771   7.554   5.598  1.00  0.00     0.053 A 
HETATM    5  C   UNL     1      64.976   8.214   4.683  1.00  0.00     0.060 A 
HETATM    6  C   UNL     1      63.804   7.428   4.539  1.00  0.00     0.060 A 
HETATM    7  C   UNL     1      65.454   5.348   6.812  1.00  0.00     0.177 C 
ENDROOT
BRANCH   6   8
HETATM    8  C   UNL     1      62.649   7.678   3.677  1.00  0.00    -0.008 A 
HETATM    9  C   UNL     1      61.361   7.320   4.102  1.00  0.00     0.014 A 
HETATM   10  C   UNL     1      60.253   7.536   3.282  1.00  0.00     0.001 A 
HETATM   11  C   UNL     1      60.419   8.120   2.028  1.00  0.00     0.000 A 
HETATM   12  C   UNL     1      61.692   8.488   1.596  1.00  0.00     0.001 A 
HETATM   13  C   UNL     1      62.802   8.267   2.413  1.00  0.00     0.014 A 
ENDBRANCH   6   8
BRANCH   4  14
HETATM   14  C   UNL     1      67.108   7.895   6.126  1.00  0.00     0.222 C 
BRANCH  14  15
HETATM   15  O   UNL     1      66.910   8.705   7.273  1.00  0.00    -0.395 OA
HETATM   16  H   UNL     1      66.234   9.373   7.084  1.00  0.00     0.209 HD
ENDBRANCH  14  15
ENDBRANCH   4  14
TORSDOF 3
ENDMDL
MODEL 7
REMARK VINA RESULT:      -4.0     12.457     14.263
REMARK  3 active torsions:
REMARK  status: ('A' for Active; 'I' for Inactive)
REMARK    1  A    between atoms: C_4  and  C_8 
REMARK    2  A    between atoms: C_6  and  C_7 
REMARK    3  A    between atoms: C_8  and  O_10 
ROOT
HETATM    1  N   UNL     1      54.987   2.808  11.864  1.00  0.00    -0.298 N 
ATOM      2  HN  UNL     1      55.211   2.357  10.977  1.00  0.00     0.187 HD
HETATM    3  N   UNL     1      53.915   3.570  12.146  1.00  0.00    -0.298 N 
HETATM    4  C   UNL     1      53.912   4.047  13.430  1.00  0.00     0.053 A 
HETATM    5  C   UNL     1      55.052   3.529  14.010  1.00  0.00     0.060 A 
HETATM    6  C   UNL     1      55.696   2.766  13.002  1.00  0.00     0.060 A 
HETATM    7  C   UNL     1      52.928   3.753  11.109  1.00  0.00     0.177 C 
ENDROOT
BRANCH   6   8
HETATM    8  C   UNL     1      56.937   1.999  13.105  1.00  0.00    -0.008 A 
HETATM    9  C   UNL     1      57.018   0.905  13.979  1.00  0.00     0.014 A 
HETATM   10  C   UNL     1      58.201   0.175  14.102  1.00  0.00     0.001 A 
HETATM   11  C   UNL     1      59.316   0.526  13.343  1.00  0.00     0.000 A 
HETATM   12  C   UNL     1      59.247   1.606  12.465  1.00  0.00     0.001 A 
HETATM   13  C   UNL     1      58.066   2.340  12.346  1.00  0.00     0.014 A 
ENDBRANCH   6   8
BRANCH   4  14
HETATM   14  C   UNL     1      52.852   4.904  14.001  1.00  0.00     0.222 C 
BRANCH  14  15
HETATM   15  O   UNL     1      53.496   5.924  14.747  1.00  0.00    -0.395 OA
HETATM   16  H   UNL     1      54.436   5.953  14.510  1.00  0.00     0.209 HD
ENDBRANCH  14  15
ENDBRANCH   4  14
TORSDOF 3
ENDMDL
MODEL 8
REMARK VINA RESULT:      -4.0      4.529      5.691
REMARK  3 active torsions:
REMARK  status: ('A' for Active; 'I' for Inactive)
REMARK    1  A    between atoms: C_4  and  C_8 
REMARK    2  A    between atoms: C_6  and  C_7 
REMARK    3  A    between atoms: C_8  and  O_10 
ROOT
HETATM    1  N   UNL     1      61.331   6.907   4.831  1.00  0.00    -0.298 N 
ATOM      2  HN  UNL     1      60.475   6.629   4.350  1.00  0.00     0.187 HD
HETATM    3  N   UNL     1      62.293   7.732   4.379  1.00  0.00    -0.298 N 
HETATM    4  C   UNL     1      63.329   7.890   5.259  1.00  0.00     0.053 A 
HETATM    5  C   UNL     1      62.988   7.130   6.360  1.00  0.00     0.060 A 
HETATM    6  C   UNL     1      61.739   6.530   6.052  1.00  0.00     0.060 A 
HETATM    7  C   UNL     1      62.099   8.346   3.087  1.00  0.00     0.177 C 
ENDROOT
BRANCH   6   8
HETATM    8  C   UNL     1      60.934   5.641   6.889  1.00  0.00    -0.008 A 
HETATM    9  C   UNL     1      61.202   4.264   6.915  1.00  0.00     0.014 A 
HETATM   10  C   UNL     1      60.430   3.401   7.694  1.00  0.00     0.001 A 
HETATM   11  C   UNL     1      59.386   3.908   8.465  1.00  0.00     0.000 A 
HETATM   12  C   UNL     1      59.114   5.275   8.456  1.00  0.00     0.001 A 
HETATM   13  C   UNL     1      59.881   6.138   7.672  1.00  0.00     0.014 A 
ENDBRANCH   6   8
BRANCH   4  14
HETATM   14  C   UNL     1      64.511   8.743   5.015  1.00  0.00     0.222 C 
BRANCH  14  15
HETATM   15  O   UNL     1      64.332   9.931   5.770  1.00  0.00    -0.395 OA
HETATM   16  H   UNL     1      64.122  10.665   5.172  1.00  0.00     0.209 HD
ENDBRANCH  14  15
ENDBRANCH   4  14
TORSDOF 3
ENDMDL
MODEL 9
REMARK VINA RESULT:      -3.9      3.797      5.750
REMARK  3 active torsions:
REMARK  status: ('A' for Active; 'I' for Inactive)
REMARK    1  A    between atoms: C_4  and  C_8 
REMARK    2  A    between atoms: C_6  and  C_7 
REMARK    3  A    between atoms: C_8  and  O_10 
ROOT
HETATM    1  N   UNL     1      63.119   8.221   3.797  1.00  0.00    -0.298 N 
ATOM      2  HN  UNL     1      63.548   7.552   4.437  1.00  0.00     0.187 HD
HETATM    3  N   UNL     1      62.775   9.496   4.056  1.00  0.00    -0.298 N 
HETATM    4  C   UNL     1      62.199  10.130   2.988  1.00  0.00     0.053 A 
HETATM    5  C   UNL     1      62.200   9.197   1.971  1.00  0.00     0.060 A 
HETATM    6  C   UNL     1      62.777   8.020   2.516  1.00  0.00     0.060 A 
HETATM    7  C   UNL     1      63.077  10.021   5.366  1.00  0.00     0.177 C 
ENDROOT
BRANCH   6   8
HETATM    8  C   UNL     1      63.023   6.743   1.848  1.00  0.00    -0.008 A 
HETATM    9  C   UNL     1      62.160   6.300   0.834  1.00  0.00     0.014 A 
HETATM   10  C   UNL     1      62.371   5.074   0.201  1.00  0.00     0.001 A 
HETATM   11  C   UNL     1      63.455   4.280   0.570  1.00  0.00     0.000 A 
HETATM   12  C   UNL     1      64.326   4.711   1.570  1.00  0.00     0.001 A 
HETATM   13  C   UNL     1      64.111   5.934   2.208  1.00  0.00     0.014 A 
ENDBRANCH   6   8
BRANCH   4  14
HETATM   14  C   UNL     1      61.733  11.532   2.999  1.00  0.00     0.222 C 
BRANCH  14  15
HETATM   15  O   UNL     1      62.126  12.113   1.766  1.00  0.00    -0.395 OA
HETATM   16  H   UNL     1      62.064  11.449   1.062  1.00  0.00     0.209 HD
ENDBRANCH  14  15
ENDBRANCH   4  14
TORSDOF 3
ENDMDL
