MODEL 1
REMARK VINA RESULT:      -5.4      0.000      0.000
REMARK  3 active torsions:
REMARK  status: ('A' for Active; 'I' for Inactive)
REMARK    1  A    between atoms: C_1  and  C_2 
REMARK    2  A    between atoms: C_8  and  C_12 
REMARK    3  A    between atoms: N_9  and  C_12 
ROOT
HETATM    1  C   UNL     1      63.506   9.180   4.751  1.00  0.00    -0.002 A 
HETATM    2  C   UNL     1      63.053   8.787   3.482  1.00  0.00     0.023 A 
HETATM    3  C   UNL     1      62.189   9.595   2.721  1.00  0.00    -0.032 A 
HETATM    4  C   UNL     1      63.104  10.429   5.238  1.00  0.00     0.014 A 
HETATM    5  C   UNL     1      62.264  11.255   4.485  1.00  0.00     0.002 A 
HETATM    6  C   UNL     1      61.805  10.838   3.236  1.00  0.00     0.009 A 
ENDROOT
BRANCH   1   7
HETATM    7  C   UNL     1      64.352   8.282   5.535  1.00  0.00     0.085 A 
HETATM    8  O   UNL     1      65.610   8.726   5.834  1.00  0.00    -0.322 OA
HETATM    9  C   UNL     1      66.214   7.768   6.581  1.00  0.00     0.142 A 
HETATM   10  C   UNL     1      65.368   6.701   6.770  1.00  0.00     0.027 A 
HETATM   11  C   UNL     1      64.171   7.030   6.093  1.00  0.00     0.040 A 
ENDBRANCH   1   7
BRANCH   3  12
HETATM   12  C   UNL     1      61.692   9.122   1.374  1.00  0.00     0.270 C 
BRANCH  12  13
HETATM   13  N   UNL     1      60.259   8.823   1.413  1.00  0.00    -0.075 N 
HETATM   14  C   UNL     1      59.897   7.836   0.409  1.00  0.00     0.267 C 
HETATM   15  H   UNL     1      59.736   9.681   1.239  1.00  0.00     0.277 HD
HETATM   16  H   UNL     1      60.035   8.444   2.333  1.00  0.00     0.277 HD
ENDBRANCH  12  13
ENDBRANCH   3  12
TORSDOF 3
ENDMDL
MODEL 2
REMARK VINA RESULT:      -5.0      2.987      5.882
REMARK  3 active torsions:
REMARK  status: ('A' for Active; 'I' for Inactive)
REMARK    1  A    between atoms: C_1  and  C_2 
REMARK    2  A    between atoms: C_8  and  C_12 
REMARK    3  A    between atoms: N_9  and  C_12 
ROOT
HETATM    1  C   UNL     1      63.239   8.514   4.580  1.00  0.00    -0.002 A 
HETATM    2  C   UNL     1      64.614   8.585   4.849  1.00  0.00     0.023 A 
HETATM    3  C   UNL     1      65.221   7.773   5.824  1.00  0.00    -0.032 A 
HETATM    4  C   UNL     1      62.476   7.576   5.286  1.00  0.00     0.014 A 
HETATM    5  C   UNL     1      63.067   6.744   6.242  1.00  0.00     0.002 A 
HETATM    6  C   UNL     1      64.432   6.846   6.513  1.00  0.00     0.009 A 
ENDROOT
BRANCH   1   7
HETATM    7  C   UNL     1      62.637   9.420   3.603  1.00  0.00     0.085 A 
HETATM    8  O   UNL     1      62.345  10.684   4.035  1.00  0.00    -0.322 OA
HETATM    9  C   UNL     1      61.826  11.364   2.981  1.00  0.00     0.142 A 
HETATM   10  C   UNL     1      61.773  10.559   1.868  1.00  0.00     0.027 A 
HETATM   11  C   UNL     1      62.291   9.306   2.270  1.00  0.00     0.040 A 
ENDBRANCH   1   7
BRANCH   3  12
HETATM   12  C   UNL     1      66.699   7.905   6.113  1.00  0.00     0.270 C 
BRANCH  12  13
HETATM   13  N   UNL     1      67.060   7.213   7.352  1.00  0.00    -0.075 N 
HETATM   14  C   UNL     1      67.909   6.063   7.089  1.00  0.00     0.267 C 
HETATM   15  H   UNL     1      66.208   6.898   7.817  1.00  0.00     0.277 HD
HETATM   16  H   UNL     1      67.574   7.864   7.946  1.00  0.00     0.277 HD
ENDBRANCH  12  13
ENDBRANCH   3  12
TORSDOF 3
ENDMDL
MODEL 3
REMARK VINA RESULT:      -5.0      3.360      6.604
REMARK  3 active torsions:
REMARK  status: ('A' for Active; 'I' for Inactive)
REMARK    1  A    between atoms: C_1  and  C_2 
REMARK    2  A    between atoms: C_8  and  C_12 
REMARK    3  A    between atoms: N_9  and  C_12 
ROOT
HETATM    1  C   UNL     1      65.584   7.902   5.557  1.00  0.00    -0.002 A 
HETATM    2  C   UNL     1      65.542   7.229   6.788  1.00  0.00     0.023 A 
HETATM    3  C   UNL     1      66.610   6.428   7.230  1.00  0.00    -0.032 A 
HETATM    4  C   UNL     1      66.744   7.787   4.781  1.00  0.00     0.014 A 
HETATM    5  C   UNL     1      67.824   7.014   5.216  1.00  0.00     0.002 A 
HETATM    6  C   UNL     1      67.756   6.333   6.432  1.00  0.00     0.009 A 
ENDROOT
BRANCH   1   7
HETATM    7  C   UNL     1      64.427   8.674   5.106  1.00  0.00     0.085 A 
HETATM    8  O   UNL     1      64.192   9.859   5.745  1.00  0.00    -0.322 OA
HETATM    9  C   UNL     1      63.103  10.425   5.165  1.00  0.00     0.142 A 
HETATM   10  C   UNL     1      62.622   9.622   4.158  1.00  0.00     0.027 A 
HETATM   11  C   UNL     1      63.472   8.492   4.123  1.00  0.00     0.040 A 
ENDBRANCH   1   7
BRANCH   3  12
HETATM   12  C   UNL     1      66.514   5.688   8.545  1.00  0.00     0.270 C 
BRANCH  12  13
HETATM   13  N   UNL     1      66.559   4.238   8.343  1.00  0.00    -0.075 N 
HETATM   14  C   UNL     1      67.765   3.661   8.914  1.00  0.00     0.267 C 
HETATM   15  H   UNL     1      66.540   4.043   7.342  1.00  0.00     0.277 HD
HETATM   16  H   UNL     1      65.752   3.824   8.807  1.00  0.00     0.277 HD
ENDBRANCH  12  13
ENDBRANCH   3  12
TORSDOF 3
ENDMDL
MODEL 4
REMARK VINA RESULT:      -4.7      1.643      2.533
REMARK  3 active torsions:
REMARK  status: ('A' for Active; 'I' for Inactive)
REMARK    1  A    between atoms: C_1  and  C_2 
REMARK    2  A    between atoms: C_8  and  C_12 
REMARK    3  A    between atoms: N_9  and  C_12 
ROOT
HETATM    1  C   UNL     1      63.609   7.552   5.374  1.00  0.00    -0.002 A 
HETATM    2  C   UNL     1      63.429   8.456   4.315  1.00  0.00     0.023 A 
HETATM    3  C   UNL     1      62.238   8.494   3.568  1.00  0.00    -0.032 A 
HETATM    4  C   UNL     1      62.547   6.700   5.701  1.00  0.00     0.014 A 
HETATM    5  C   UNL     1      61.348   6.740   4.984  1.00  0.00     0.002 A 
HETATM    6  C   UNL     1      61.196   7.628   3.919  1.00  0.00     0.009 A 
ENDROOT
BRANCH   1   7
HETATM    7  C   UNL     1      64.885   7.503   6.084  1.00  0.00     0.085 A 
HETATM    8  O   UNL     1      65.693   8.600   5.974  1.00  0.00    -0.322 OA
HETATM    9  C   UNL     1      66.802   8.366   6.720  1.00  0.00     0.142 A 
HETATM   10  C   UNL     1      66.730   7.127   7.313  1.00  0.00     0.027 A 
HETATM   11  C   UNL     1      65.498   6.569   6.900  1.00  0.00     0.040 A 
ENDBRANCH   1   7
BRANCH   3  12
HETATM   12  C   UNL     1      62.095   9.455   2.410  1.00  0.00     0.270 C 
BRANCH  12  13
HETATM   13  N   UNL     1      61.395  10.675   2.817  1.00  0.00    -0.075 N 
HETATM   14  C   UNL     1      61.791  11.810   2.000  1.00  0.00     0.267 C 
HETATM   15  H   UNL     1      61.617  10.875   3.793  1.00  0.00     0.277 HD
HETATM   16  H   UNL     1      60.394  10.526   2.699  1.00  0.00     0.277 HD
ENDBRANCH  12  13
ENDBRANCH   3  12
TORSDOF 3
ENDMDL
MODEL 5
REMARK VINA RESULT:      -4.6     10.445     12.176
REMARK  3 active torsions:
REMARK  status: ('A' for Active; 'I' for Inactive)
REMARK    1  A    between atoms: C_1  and  C_2 
REMARK    2  A    between atoms: C_8  and  C_12 
REMARK    3  A    between atoms: N_9  and  C_12 
ROOT
HETATM    1  C   UNL     1      58.259   2.596  11.604  1.00  0.00    -0.002 A 
HETATM    2  C   UNL     1      56.950   2.616  12.109  1.00  0.00     0.023 A 
HETATM    3  C   UNL     1      56.629   2.052  13.357  1.00  0.00    -0.032 A 
HETATM    4  C   UNL     1      59.263   2.027  12.395  1.00  0.00     0.014 A 
HETATM    5  C   UNL     1      58.967   1.483  13.648  1.00  0.00     0.002 A 
HETATM    6  C   UNL     1      57.656   1.490  14.124  1.00  0.00     0.009 A 
ENDROOT
BRANCH   1   7
HETATM    7  C   UNL     1      58.537   3.138  10.275  1.00  0.00     0.085 A 
HETATM    8  O   UNL     1      58.657   4.496  10.177  1.00  0.00    -0.322 OA
HETATM    9  C   UNL     1      58.938   4.788   8.882  1.00  0.00     0.142 A 
HETATM   10  C   UNL     1      59.000   3.637   8.132  1.00  0.00     0.027 A 
HETATM   11  C   UNL     1      58.737   2.575   9.028  1.00  0.00     0.040 A 
ENDBRANCH   1   7
BRANCH   3  12
HETATM   12  C   UNL     1      55.201   2.058  13.853  1.00  0.00     0.270 C 
BRANCH  12  13
HETATM   13  N   UNL     1      54.945   3.211  14.718  1.00  0.00    -0.075 N 
HETATM   14  C   UNL     1      54.329   4.301  13.979  1.00  0.00     0.267 C 
HETATM   15  H   UNL     1      55.829   3.534  15.111  1.00  0.00     0.277 HD
HETATM   16  H   UNL     1      54.306   2.922  15.458  1.00  0.00     0.277 HD
ENDBRANCH  12  13
ENDBRANCH   3  12
TORSDOF 3
ENDMDL
MODEL 6
REMARK VINA RESULT:      -4.5      2.766      5.204
REMARK  3 active torsions:
REMARK  status: ('A' for Active; 'I' for Inactive)
REMARK    1  A    between atoms: C_1  and  C_2 
REMARK    2  A    between atoms: C_8  and  C_12 
REMARK    3  A    between atoms: N_9  and  C_12 
ROOT
HETATM    1  C   UNL     1      63.021   8.533   4.501  1.00  0.00    -0.002 A 
HETATM    2  C   UNL     1      62.170   7.538   5.008  1.00  0.00     0.023 A 
HETATM    3  C   UNL     1      62.631   6.554   5.901  1.00  0.00    -0.032 A 
HETATM    4  C   UNL     1      64.351   8.549   4.938  1.00  0.00     0.014 A 
HETATM    5  C   UNL     1      64.820   7.592   5.842  1.00  0.00     0.002 A 
HETATM    6  C   UNL     1      63.966   6.596   6.318  1.00  0.00     0.009 A 
ENDROOT
BRANCH   1   7
HETATM    7  C   UNL     1      62.516   9.499   3.527  1.00  0.00     0.085 A 
HETATM    8  O   UNL     1      62.255  10.759   3.988  1.00  0.00    -0.322 OA
HETATM    9  C   UNL     1      61.828  11.498   2.933  1.00  0.00     0.142 A 
HETATM   10  C   UNL     1      61.804  10.736   1.790  1.00  0.00     0.027 A 
HETATM   11  C   UNL     1      62.242   9.447   2.172  1.00  0.00     0.040 A 
ENDBRANCH   1   7
BRANCH   3  12
HETATM   12  C   UNL     1      61.695   5.475   6.397  1.00  0.00     0.270 C 
BRANCH  12  13
HETATM   13  N   UNL     1      60.570   6.049   7.138  1.00  0.00    -0.075 N 
HETATM   14  C   UNL     1      59.819   5.022   7.840  1.00  0.00     0.267 C 
HETATM   15  H   UNL     1      59.949   6.525   6.483  1.00  0.00     0.277 HD
HETATM   16  H   UNL     1      60.940   6.706   7.825  1.00  0.00     0.277 HD
ENDBRANCH  12  13
ENDBRANCH   3  12
TORSDOF 3
ENDMDL
MODEL 7
REMARK VINA RESULT:      -4.4      3.163      5.295
REMARK  3 active torsions:
REMARK  status: ('A' for Active; 'I' for Inactive)
REMARK    1  A    between atoms: C_1  and  C_2 
REMARK    2  A    between atoms: C_8  and  C_12 
REMARK    3  A    between atoms: N_9  and  C_12 
ROOT
HETATM    1  C   UNL     1      65.351   7.969   5.031  1.00  0.00    -0.002 A 
HETATM    2  C   UNL     1      65.567   6.949   4.092  1.00  0.00     0.023 A 
HETATM    3  C   UNL     1      66.680   6.093   4.172  1.00  0.00    -0.032 A 
HETATM    4  C   UNL     1      66.260   8.097   6.088  1.00  0.00     0.014 A 
HETATM    5  C   UNL     1      67.359   7.239   6.196  1.00  0.00     0.002 A 
HETATM    6  C   UNL     1      67.571   6.246   5.240  1.00  0.00     0.009 A 
ENDROOT
BRANCH   1   7
HETATM    7  C   UNL     1      64.215   8.876   4.876  1.00  0.00     0.085 A 
HETATM    8  O   UNL     1      64.186   9.972   5.693  1.00  0.00    -0.322 OA
HETATM    9  C   UNL     1      63.080  10.689   5.373  1.00  0.00     0.142 A 
HETATM   10  C   UNL     1      62.384  10.075   4.359  1.00  0.00     0.027 A 
HETATM   11  C   UNL     1      63.113   8.905   4.042  1.00  0.00     0.040 A 
ENDBRANCH   1   7
BRANCH   3  12
HETATM   12  C   UNL     1      66.900   5.028   3.120  1.00  0.00     0.270 C 
BRANCH  12  13
HETATM   13  N   UNL     1      66.241   3.774   3.489  1.00  0.00    -0.075 N 
HETATM   14  C   UNL     1      65.179   3.440   2.554  1.00  0.00     0.267 C 
HETATM   15  H   UNL     1      65.843   3.871   4.423  1.00  0.00     0.277 HD
HETATM   16  H   UNL     1      66.935   3.028   3.469  1.00  0.00     0.277 HD
ENDBRANCH  12  13
ENDBRANCH   3  12
TORSDOF 3
ENDMDL
MODEL 8
REMARK VINA RESULT:      -4.3      2.548      4.276
REMARK  3 active torsions:
REMARK  status: ('A' for Active; 'I' for Inactive)
REMARK    1  A    between atoms: C_1  and  C_2 
REMARK    2  A    between atoms: C_8  and  C_12 
REMARK    3  A    between atoms: N_9  and  C_12 
ROOT
HETATM    1  C   UNL     1      65.851   6.551   5.953  1.00  0.00    -0.002 A 
HETATM    2  C   UNL     1      64.641   7.259   6.006  1.00  0.00     0.023 A 
HETATM    3  C   UNL     1      63.884   7.517   4.849  1.00  0.00    -0.032 A 
HETATM    4  C   UNL     1      66.279   6.065   4.711  1.00  0.00     0.014 A 
HETATM    5  C   UNL     1      65.527   6.293   3.555  1.00  0.00     0.002 A 
HETATM    6  C   UNL     1      64.338   7.020   3.623  1.00  0.00     0.009 A 
ENDROOT
BRANCH   1   7
HETATM    7  C   UNL     1      66.639   6.358   7.170  1.00  0.00     0.085 A 
HETATM    8  O   UNL     1      66.066   6.761   8.344  1.00  0.00    -0.322 OA
HETATM    9  C   UNL     1      66.938   6.473   9.342  1.00  0.00     0.142 A 
HETATM   10  C   UNL     1      68.075   5.890   8.835  1.00  0.00     0.027 A 
HETATM   11  C   UNL     1      67.884   5.820   7.435  1.00  0.00     0.040 A 
ENDBRANCH   1   7
BRANCH   3  12
HETATM   12  C   UNL     1      62.603   8.317   4.938  1.00  0.00     0.270 C 
BRANCH  12  13
HETATM   13  N   UNL     1      62.764   9.644   4.341  1.00  0.00    -0.075 N 
HETATM   14  C   UNL     1      62.911  10.669   5.361  1.00  0.00     0.267 C 
HETATM   15  H   UNL     1      61.943   9.854   3.774  1.00  0.00     0.277 HD
HETATM   16  H   UNL     1      63.606   9.638   3.767  1.00  0.00     0.277 HD
ENDBRANCH  12  13
ENDBRANCH   3  12
TORSDOF 3
ENDMDL
MODEL 9
REMARK VINA RESULT:      -4.1      2.576      4.265
REMARK  3 active torsions:
REMARK  status: ('A' for Active; 'I' for Inactive)
REMARK    1  A    between atoms: C_1  and  C_2 
REMARK    2  A    between atoms: C_8  and  C_12 
REMARK    3  A    between atoms: N_9  and  C_12 
ROOT
HETATM    1  C   UNL     1      61.266   8.735   2.836  1.00  0.00    -0.002 A 
HETATM    2  C   UNL     1      60.474   7.663   3.276  1.00  0.00     0.023 A 
HETATM    3  C   UNL     1      59.719   6.885   2.381  1.00  0.00    -0.032 A 
HETATM    4  C   UNL     1      61.320   8.996   1.461  1.00  0.00     0.014 A 
HETATM    5  C   UNL     1      60.594   8.217   0.555  1.00  0.00     0.002 A 
HETATM    6  C   UNL     1      59.793   7.170   1.013  1.00  0.00     0.009 A 
ENDROOT
BRANCH   1   7
HETATM    7  C   UNL     1      61.986   9.558   3.807  1.00  0.00     0.085 A 
HETATM    8  O   UNL     1      61.596  10.863   3.916  1.00  0.00    -0.322 OA
HETATM    9  C   UNL     1      62.361  11.438   4.878  1.00  0.00     0.142 A 
HETATM   10  C   UNL     1      63.249  10.525   5.396  1.00  0.00     0.027 A 
HETATM   11  C   UNL     1      63.011   9.315   4.703  1.00  0.00     0.040 A 
ENDBRANCH   1   7
BRANCH   3  12
HETATM   12  C   UNL     1      58.847   5.761   2.895  1.00  0.00     0.270 C 
BRANCH  12  13
HETATM   13  N   UNL     1      57.441   5.982   2.552  1.00  0.00    -0.075 N 
HETATM   14  C   UNL     1      56.780   6.817   3.541  1.00  0.00     0.267 C 
HETATM   15  H   UNL     1      56.966   5.080   2.506  1.00  0.00     0.277 HD
HETATM   16  H   UNL     1      57.401   6.456   1.650  1.00  0.00     0.277 HD
ENDBRANCH  12  13
ENDBRANCH   3  12
TORSDOF 3
ENDMDL
