MODEL 1
REMARK VINA RESULT:      -5.4      0.000      0.000
REMARK  3 active torsions:
REMARK  status: ('A' for Active; 'I' for Inactive)
REMARK    1  A    between atoms: C_1  and  C_2 
REMARK    2  A    between atoms: C_7  and  C_9 
REMARK    3  A    between atoms: N_8  and  C_9 
ROOT
HETATM    1  C   UNL     1      62.868   9.252   4.065  1.00  0.00     0.006 A 
HETATM    2  C   UNL     1      62.475  10.570   4.398  1.00  0.00    -0.020 A 
HETATM    3  C   UNL     1      62.659   8.811   2.742  1.00  0.00     0.015 A 
HETATM    4  C   UNL     1      61.922  11.397   3.395  1.00  0.00     0.010 A 
HETATM    5  C   UNL     1      62.097   9.639   1.767  1.00  0.00     0.001 A 
HETATM    6  C   UNL     1      61.730  10.937   2.095  1.00  0.00     0.001 A 
ENDROOT
BRANCH   1   7
HETATM    7  C   UNL     1      63.490   8.318   5.013  1.00  0.00     0.085 A 
HETATM    8  O   UNL     1      64.850   8.436   5.146  1.00  0.00    -0.322 OA
HETATM    9  C   UNL     1      65.256   7.519   6.060  1.00  0.00     0.142 A 
HETATM   10  C   UNL     1      64.185   6.803   6.529  1.00  0.00     0.027 A 
HETATM   11  C   UNL     1      63.049   7.318   5.860  1.00  0.00     0.040 A 
ENDBRANCH   1   7
BRANCH   2  12
HETATM   12  C   UNL     1      62.617  11.170   5.777  1.00  0.00     0.269 C 
BRANCH  12  13
HETATM   13  N   UNL     1      64.019  11.317   6.149  1.00  0.00    -0.075 N 
HETATM   14  H   UNL     1      64.209  10.765   6.984  1.00  0.00     0.274 HD
HETATM   15  H   UNL     1      64.220  12.300   6.338  1.00  0.00     0.274 HD
HETATM   16  H   UNL     1      64.610  10.992   5.384  1.00  0.00     0.274 HD
ENDBRANCH  12  13
ENDBRANCH   2  12
TORSDOF 3
ENDMDL
MODEL 2
REMARK VINA RESULT:      -4.8      1.992      2.781
REMARK  3 active torsions:
REMARK  status: ('A' for Active; 'I' for Inactive)
REMARK    1  A    between atoms: C_1  and  C_2 
REMARK    2  A    between atoms: C_7  and  C_9 
REMARK    3  A    between atoms: N_8  and  C_9 
ROOT
HETATM    1  C   UNL     1      63.523   9.113   4.748  1.00  0.00     0.006 A 
HETATM    2  C   UNL     1      63.016   8.725   3.485  1.00  0.00    -0.020 A 
HETATM    3  C   UNL     1      63.156  10.378   5.251  1.00  0.00     0.015 A 
HETATM    4  C   UNL     1      62.144   9.600   2.796  1.00  0.00     0.010 A 
HETATM    5  C   UNL     1      62.305  11.235   4.548  1.00  0.00     0.001 A 
HETATM    6  C   UNL     1      61.796  10.842   3.319  1.00  0.00     0.001 A 
ENDROOT
BRANCH   1   7
HETATM    7  C   UNL     1      64.401   8.272   5.572  1.00  0.00     0.085 A 
HETATM    8  O   UNL     1      65.636   8.804   5.845  1.00  0.00    -0.322 OA
HETATM    9  C   UNL     1      66.306   7.915   6.619  1.00  0.00     0.142 A 
HETATM   10  C   UNL     1      65.532   6.809   6.860  1.00  0.00     0.027 A 
HETATM   11  C   UNL     1      64.306   7.039   6.191  1.00  0.00     0.040 A 
ENDBRANCH   1   7
BRANCH   2  12
HETATM   12  C   UNL     1      63.339   7.413   2.812  1.00  0.00     0.269 C 
BRANCH  12  13
HETATM   13  N   UNL     1      62.542   7.225   1.605  1.00  0.00    -0.075 N 
HETATM   14  H   UNL     1      61.802   6.550   1.789  1.00  0.00     0.274 HD
HETATM   15  H   UNL     1      63.140   6.879   0.854  1.00  0.00     0.274 HD
HETATM   16  H   UNL     1      62.131   8.116   1.328  1.00  0.00     0.274 HD
ENDBRANCH  12  13
ENDBRANCH   2  12
TORSDOF 3
ENDMDL
MODEL 3
REMARK VINA RESULT:      -4.8      2.156      2.995
REMARK  3 active torsions:
REMARK  status: ('A' for Active; 'I' for Inactive)
REMARK    1  A    between atoms: C_1  and  C_2 
REMARK    2  A    between atoms: C_7  and  C_9 
REMARK    3  A    between atoms: N_8  and  C_9 
ROOT
HETATM    1  C   UNL     1      62.534   9.246   3.844  1.00  0.00     0.006 A 
HETATM    2  C   UNL     1      62.400   8.963   2.464  1.00  0.00    -0.020 A 
HETATM    3  C   UNL     1      62.282  10.565   4.279  1.00  0.00     0.015 A 
HETATM    4  C   UNL     1      61.992   9.993   1.587  1.00  0.00     0.010 A 
HETATM    5  C   UNL     1      61.894  11.573   3.394  1.00  0.00     0.001 A 
HETATM    6  C   UNL     1      61.746  11.285   2.045  1.00  0.00     0.001 A 
ENDROOT
BRANCH   1   7
HETATM    7  C   UNL     1      62.912   8.248   4.853  1.00  0.00     0.085 A 
HETATM    8  O   UNL     1      61.903   7.412   5.257  1.00  0.00    -0.322 OA
HETATM    9  C   UNL     1      62.420   6.552   6.170  1.00  0.00     0.142 A 
HETATM   10  C   UNL     1      63.752   6.809   6.370  1.00  0.00     0.027 A 
HETATM   11  C   UNL     1      64.070   7.897   5.522  1.00  0.00     0.040 A 
ENDBRANCH   1   7
BRANCH   2  12
HETATM   12  C   UNL     1      62.657   7.607   1.852  1.00  0.00     0.269 C 
BRANCH  12  13
HETATM   13  N   UNL     1      61.550   6.692   2.105  1.00  0.00    -0.075 N 
HETATM   14  H   UNL     1      60.775   6.915   1.482  1.00  0.00     0.274 HD
HETATM   15  H   UNL     1      61.245   6.787   3.075  1.00  0.00     0.274 HD
HETATM   16  H   UNL     1      61.856   5.734   1.938  1.00  0.00     0.274 HD
ENDBRANCH  12  13
ENDBRANCH   2  12
TORSDOF 3
ENDMDL
MODEL 4
REMARK VINA RESULT:      -4.8      1.575      1.759
REMARK  3 active torsions:
REMARK  status: ('A' for Active; 'I' for Inactive)
REMARK    1  A    between atoms: C_1  and  C_2 
REMARK    2  A    between atoms: C_7  and  C_9 
REMARK    3  A    between atoms: N_8  and  C_9 
ROOT
HETATM    1  C   UNL     1      62.826   8.668   3.280  1.00  0.00     0.006 A 
HETATM    2  C   UNL     1      62.629   9.818   4.080  1.00  0.00    -0.020 A 
HETATM    3  C   UNL     1      62.428   8.724   1.928  1.00  0.00     0.015 A 
HETATM    4  C   UNL     1      62.077  10.979   3.493  1.00  0.00     0.010 A 
HETATM    5  C   UNL     1      61.870   9.876   1.369  1.00  0.00     0.001 A 
HETATM    6  C   UNL     1      61.697  11.007   2.154  1.00  0.00     0.001 A 
ENDROOT
BRANCH   1   7
HETATM    7  C   UNL     1      63.427   7.421   3.770  1.00  0.00     0.085 A 
HETATM    8  O   UNL     1      62.561   6.556   4.391  1.00  0.00    -0.322 OA
HETATM    9  C   UNL     1      63.269   5.462   4.766  1.00  0.00     0.142 A 
HETATM   10  C   UNL     1      64.584   5.592   4.399  1.00  0.00     0.027 A 
HETATM   11  C   UNL     1      64.686   6.849   3.756  1.00  0.00     0.040 A 
ENDBRANCH   1   7
BRANCH   2  12
HETATM   12  C   UNL     1      62.985   9.897   5.546  1.00  0.00     0.269 C 
BRANCH  12  13
HETATM   13  N   UNL     1      63.335  11.259   5.934  1.00  0.00    -0.075 N 
HETATM   14  H   UNL     1      63.350  11.330   6.950  1.00  0.00     0.274 HD
HETATM   15  H   UNL     1      62.643  11.908   5.558  1.00  0.00     0.274 HD
HETATM   16  H   UNL     1      64.256  11.492   5.562  1.00  0.00     0.274 HD
ENDBRANCH  12  13
ENDBRANCH   2  12
TORSDOF 3
ENDMDL
MODEL 5
REMARK VINA RESULT:      -4.5      2.154      4.305
REMARK  3 active torsions:
REMARK  status: ('A' for Active; 'I' for Inactive)
REMARK    1  A    between atoms: C_1  and  C_2 
REMARK    2  A    between atoms: C_7  and  C_9 
REMARK    3  A    between atoms: N_8  and  C_9 
ROOT
HETATM    1  C   UNL     1      62.822   8.198   3.194  1.00  0.00     0.006 A 
HETATM    2  C   UNL     1      63.042   9.230   4.138  1.00  0.00    -0.020 A 
HETATM    3  C   UNL     1      63.737   7.125   3.159  1.00  0.00     0.015 A 
HETATM    4  C   UNL     1      64.141   9.133   5.021  1.00  0.00     0.010 A 
HETATM    5  C   UNL     1      64.826   7.054   4.031  1.00  0.00     0.001 A 
HETATM    6  C   UNL     1      65.026   8.060   4.966  1.00  0.00     0.001 A 
ENDROOT
BRANCH   1   7
HETATM    7  C   UNL     1      61.693   8.173   2.256  1.00  0.00     0.085 A 
HETATM    8  O   UNL     1      60.581   7.499   2.693  1.00  0.00    -0.322 OA
HETATM    9  C   UNL     1      59.638   7.583   1.722  1.00  0.00     0.142 A 
HETATM   10  C   UNL     1      60.112   8.304   0.656  1.00  0.00     0.027 A 
HETATM   11  C   UNL     1      61.431   8.686   0.999  1.00  0.00     0.040 A 
ENDBRANCH   1   7
BRANCH   2  12
HETATM   12  C   UNL     1      62.161  10.449   4.276  1.00  0.00     0.269 C 
BRANCH  12  13
HETATM   13  N   UNL     1      62.719  11.401   5.229  1.00  0.00    -0.075 N 
HETATM   14  H   UNL     1      62.063  12.170   5.365  1.00  0.00     0.274 HD
HETATM   15  H   UNL     1      63.601  11.767   4.868  1.00  0.00     0.274 HD
HETATM   16  H   UNL     1      62.884  10.933   6.119  1.00  0.00     0.274 HD
ENDBRANCH  12  13
ENDBRANCH   2  12
TORSDOF 3
ENDMDL
MODEL 6
REMARK VINA RESULT:      -4.5      1.905      4.421
REMARK  3 active torsions:
REMARK  status: ('A' for Active; 'I' for Inactive)
REMARK    1  A    between atoms: C_1  and  C_2 
REMARK    2  A    between atoms: C_7  and  C_9 
REMARK    3  A    between atoms: N_8  and  C_9 
ROOT
HETATM    1  C   UNL     1      62.017   8.329   4.170  1.00  0.00     0.006 A 
HETATM    2  C   UNL     1      63.114   8.042   5.017  1.00  0.00    -0.020 A 
HETATM    3  C   UNL     1      60.927   7.433   4.169  1.00  0.00     0.015 A 
HETATM    4  C   UNL     1      63.064   6.896   5.843  1.00  0.00     0.010 A 
HETATM    5  C   UNL     1      60.902   6.298   4.983  1.00  0.00     0.001 A 
HETATM    6  C   UNL     1      61.973   6.031   5.824  1.00  0.00     0.001 A 
ENDROOT
BRANCH   1   7
HETATM    7  C   UNL     1      61.940   9.509   3.300  1.00  0.00     0.085 A 
HETATM    8  O   UNL     1      61.799  10.709   3.950  1.00  0.00    -0.322 OA
HETATM    9  C   UNL     1      61.759  11.686   3.009  1.00  0.00     0.142 A 
HETATM   10  C   UNL     1      61.874  11.147   1.753  1.00  0.00     0.027 A 
HETATM   11  C   UNL     1      61.994   9.749   1.939  1.00  0.00     0.040 A 
ENDBRANCH   1   7
BRANCH   2  12
HETATM   12  C   UNL     1      64.356   8.895   5.107  1.00  0.00     0.269 C 
BRANCH  12  13
HETATM   13  N   UNL     1      65.281   8.381   6.111  1.00  0.00    -0.075 N 
HETATM   14  H   UNL     1      65.273   7.362   6.090  1.00  0.00     0.274 HD
HETATM   15  H   UNL     1      64.994   8.704   7.035  1.00  0.00     0.274 HD
HETATM   16  H   UNL     1      66.222   8.719   5.910  1.00  0.00     0.274 HD
ENDBRANCH  12  13
ENDBRANCH   2  12
TORSDOF 3
ENDMDL
MODEL 7
REMARK VINA RESULT:      -4.3      2.164      4.806
REMARK  3 active torsions:
REMARK  status: ('A' for Active; 'I' for Inactive)
REMARK    1  A    between atoms: C_1  and  C_2 
REMARK    2  A    between atoms: C_7  and  C_9 
REMARK    3  A    between atoms: N_8  and  C_9 
ROOT
HETATM    1  C   UNL     1      63.359   8.408   4.663  1.00  0.00     0.006 A 
HETATM    2  C   UNL     1      62.708   7.284   5.226  1.00  0.00    -0.020 A 
HETATM    3  C   UNL     1      64.700   8.650   5.029  1.00  0.00     0.015 A 
HETATM    4  C   UNL     1      63.428   6.439   6.100  1.00  0.00     0.010 A 
HETATM    5  C   UNL     1      65.390   7.811   5.907  1.00  0.00     0.001 A 
HETATM    6  C   UNL     1      64.752   6.700   6.441  1.00  0.00     0.001 A 
ENDROOT
BRANCH   1   7
HETATM    7  C   UNL     1      62.726   9.332   3.713  1.00  0.00     0.085 A 
HETATM    8  O   UNL     1      62.625   8.871   2.425  1.00  0.00    -0.322 OA
HETATM    9  C   UNL     1      62.010   9.831   1.690  1.00  0.00     0.142 A 
HETATM   10  C   UNL     1      61.705  10.914   2.475  1.00  0.00     0.027 A 
HETATM   11  C   UNL     1      62.161  10.592   3.776  1.00  0.00     0.040 A 
ENDBRANCH   1   7
BRANCH   2  12
HETATM   12  C   UNL     1      61.272   6.913   4.944  1.00  0.00     0.269 C 
BRANCH  12  13
HETATM   13  N   UNL     1      61.128   6.315   3.622  1.00  0.00    -0.075 N 
HETATM   14  H   UNL     1      60.154   6.059   3.468  1.00  0.00     0.274 HD
HETATM   15  H   UNL     1      61.713   5.480   3.561  1.00  0.00     0.274 HD
HETATM   16  H   UNL     1      61.421   6.986   2.912  1.00  0.00     0.274 HD
ENDBRANCH  12  13
ENDBRANCH   2  12
TORSDOF 3
ENDMDL
MODEL 8
REMARK VINA RESULT:      -3.9      3.136      4.017
REMARK  3 active torsions:
REMARK  status: ('A' for Active; 'I' for Inactive)
REMARK    1  A    between atoms: C_1  and  C_2 
REMARK    2  A    between atoms: C_7  and  C_9 
REMARK    3  A    between atoms: N_8  and  C_9 
ROOT
HETATM    1  C   UNL     1      61.538   8.663   3.261  1.00  0.00     0.006 A 
HETATM    2  C   UNL     1      61.705   8.582   1.858  1.00  0.00    -0.020 A 
HETATM    3  C   UNL     1      61.638   9.932   3.870  1.00  0.00     0.015 A 
HETATM    4  C   UNL     1      61.933   9.768   1.123  1.00  0.00     0.010 A 
HETATM    5  C   UNL     1      61.878  11.091   3.127  1.00  0.00     0.001 A 
HETATM    6  C   UNL     1      62.023  11.007   1.750  1.00  0.00     0.001 A 
ENDROOT
BRANCH   1   7
HETATM    7  C   UNL     1      61.257   7.506   4.121  1.00  0.00     0.085 A 
HETATM    8  O   UNL     1      59.992   6.988   4.013  1.00  0.00    -0.322 OA
HETATM    9  C   UNL     1      59.906   5.928   4.855  1.00  0.00     0.142 A 
HETATM   10  C   UNL     1      61.095   5.741   5.513  1.00  0.00     0.027 A 
HETATM   11  C   UNL     1      61.965   6.753   5.039  1.00  0.00     0.040 A 
ENDBRANCH   1   7
BRANCH   2  12
HETATM   12  C   UNL     1      61.647   7.293   1.074  1.00  0.00     0.269 C 
BRANCH  12  13
HETATM   13  N   UNL     1      60.271   6.926   0.760  1.00  0.00    -0.075 N 
HETATM   14  H   UNL     1      59.716   6.921   1.615  1.00  0.00     0.274 HD
HETATM   15  H   UNL     1      60.254   5.996   0.340  1.00  0.00     0.274 HD
HETATM   16  H   UNL     1      59.880   7.601   0.104  1.00  0.00     0.274 HD
ENDBRANCH  12  13
ENDBRANCH   2  12
TORSDOF 3
ENDMDL
MODEL 9
REMARK VINA RESULT:      -3.9      2.929      4.389
REMARK  3 active torsions:
REMARK  status: ('A' for Active; 'I' for Inactive)
REMARK    1  A    between atoms: C_1  and  C_2 
REMARK    2  A    between atoms: C_7  and  C_9 
REMARK    3  A    between atoms: N_8  and  C_9 
ROOT
HETATM    1  C   UNL     1      65.069   7.255   5.240  1.00  0.00     0.006 A 
HETATM    2  C   UNL     1      65.019   6.425   4.095  1.00  0.00    -0.020 A 
HETATM    3  C   UNL     1      64.251   8.404   5.264  1.00  0.00     0.015 A 
HETATM    4  C   UNL     1      64.137   6.758   3.042  1.00  0.00     0.010 A 
HETATM    5  C   UNL     1      63.397   8.725   4.206  1.00  0.00     0.001 A 
HETATM    6  C   UNL     1      63.338   7.897   3.094  1.00  0.00     0.001 A 
ENDROOT
BRANCH   1   7
HETATM    7  C   UNL     1      65.915   6.987   6.411  1.00  0.00     0.085 A 
HETATM    8  O   UNL     1      65.242   6.811   7.593  1.00  0.00    -0.322 OA
HETATM    9  C   UNL     1      66.161   6.561   8.558  1.00  0.00     0.142 A 
HETATM   10  C   UNL     1      67.426   6.568   8.028  1.00  0.00     0.027 A 
HETATM   11  C   UNL     1      67.269   6.838   6.648  1.00  0.00     0.040 A 
ENDBRANCH   1   7
BRANCH   2  12
HETATM   12  C   UNL     1      65.851   5.177   3.920  1.00  0.00     0.269 C 
BRANCH  12  13
HETATM   13  N   UNL     1      67.132   5.479   3.290  1.00  0.00    -0.075 N 
HETATM   14  H   UNL     1      67.001   5.573   2.284  1.00  0.00     0.274 HD
HETATM   15  H   UNL     1      67.790   4.722   3.478  1.00  0.00     0.274 HD
HETATM   16  H   UNL     1      67.500   6.351   3.669  1.00  0.00     0.274 HD
ENDBRANCH  12  13
ENDBRANCH   2  12
TORSDOF 3
ENDMDL
