MODEL 1
REMARK VINA RESULT:      -5.5      0.000      0.000
REMARK  3 active torsions:
REMARK  status: ('A' for Active; 'I' for Inactive)
REMARK    1  A    between atoms: C_3  and  C_7 
REMARK    2  A    between atoms: C_5  and  C_11 
REMARK    3  A    between atoms: C_11  and  O_12 
ROOT
HETATM    1  N   UNK     1      65.282   8.307   5.713  1.00  0.00    -0.351 N 
ATOM      2  HN  UNK     1      65.888   9.055   5.375  1.00  0.00     0.166 HD
HETATM    3  C   UNK     1      63.991   8.206   5.446  1.00  0.00     0.084 A 
HETATM    4  S   UNK     1      63.227   6.815   6.124  1.00  0.00    -0.081 SA
HETATM    5  C   UNK     1      65.698   7.252   6.520  1.00  0.00     0.040 A 
HETATM    6  C   UNK     1      64.704   6.351   6.847  1.00  0.00     0.079 A 
ENDROOT
BRANCH   3   7
HETATM    7  C   UNK     1      63.236   9.151   4.605  1.00  0.00    -0.001 A 
HETATM    8  C   UNK     1      62.904   8.790   3.289  1.00  0.00     0.038 A 
HETATM    9  C   UNK     1      62.188   9.667   2.473  1.00  0.00     0.035 A 
HETATM   10 CL   UNK     1      61.776   9.198   0.868  1.00  0.00    -0.084 Cl
HETATM   11  C   UNK     1      61.799  10.918   2.945  1.00  0.00     0.024 A 
HETATM   12  C   UNK     1      62.132  11.298   4.241  1.00  0.00     0.003 A 
HETATM   13  C   UNK     1      62.846  10.421   5.065  1.00  0.00     0.014 A 
ENDBRANCH   3   7
BRANCH   5  14
HETATM   14  C   UNK     1      67.122   7.205   6.964  1.00  0.00     0.221 C 
BRANCH  14  15
HETATM   15  O   UNK     1      67.239   7.431   8.366  1.00  0.00    -0.395 OA
HETATM   16  H   UNK     1      66.739   6.752   8.847  1.00  0.00     0.209 HD
ENDBRANCH  14  15
ENDBRANCH   5  14
TORSDOF 3
ENDMDL
MODEL 2
REMARK VINA RESULT:      -5.5      3.518      5.935
REMARK  3 active torsions:
REMARK  status: ('A' for Active; 'I' for Inactive)
REMARK    1  A    between atoms: C_3  and  C_7 
REMARK    2  A    between atoms: C_5  and  C_11 
REMARK    3  A    between atoms: C_11  and  O_12 
ROOT
HETATM    1  N   UNK     1      64.553   9.129   5.792  1.00  0.00    -0.351 N 
ATOM      2  HN  UNK     1      65.088   9.468   6.592  1.00  0.00     0.166 HD
HETATM    3  C   UNK     1      64.767   7.979   5.176  1.00  0.00     0.084 A 
HETATM    4  S   UNK     1      63.682   7.652   3.875  1.00  0.00    -0.081 SA
HETATM    5  C   UNK     1      63.497   9.813   5.197  1.00  0.00     0.040 A 
HETATM    6  C   UNK     1      62.914   9.156   4.131  1.00  0.00     0.079 A 
ENDROOT
BRANCH   3   7
HETATM    7  C   UNK     1      65.802   7.005   5.563  1.00  0.00    -0.001 A 
HETATM    8  C   UNK     1      66.290   7.003   6.880  1.00  0.00     0.038 A 
HETATM    9  C   UNK     1      67.269   6.089   7.272  1.00  0.00     0.035 A 
HETATM   10 CL   UNK     1      67.841   6.093   8.896  1.00  0.00    -0.084 Cl
HETATM   11  C   UNK     1      67.786   5.170   6.363  1.00  0.00     0.024 A 
HETATM   12  C   UNK     1      67.325   5.167   5.050  1.00  0.00     0.003 A 
HETATM   13  C   UNK     1      66.340   6.078   4.653  1.00  0.00     0.014 A 
ENDBRANCH   3   7
BRANCH   5  14
HETATM   14  C   UNK     1      63.121  11.156   5.727  1.00  0.00     0.221 C 
BRANCH  14  15
HETATM   15  O   UNK     1      64.172  11.724   6.502  1.00  0.00    -0.395 OA
HETATM   16  H   UNK     1      65.021  11.343   6.226  1.00  0.00     0.209 HD
ENDBRANCH  14  15
ENDBRANCH   5  14
TORSDOF 3
ENDMDL
MODEL 3
REMARK VINA RESULT:      -5.2      2.041      2.626
REMARK  3 active torsions:
REMARK  status: ('A' for Active; 'I' for Inactive)
REMARK    1  A    between atoms: C_3  and  C_7 
REMARK    2  A    between atoms: C_5  and  C_11 
REMARK    3  A    between atoms: C_11  and  O_12 
ROOT
HETATM    1  N   UNK     1      65.023   7.237   6.903  1.00  0.00    -0.351 N 
ATOM      2  HN  UNK     1      64.116   7.232   7.370  1.00  0.00     0.166 HD
HETATM    3  C   UNK     1      65.234   7.666   5.671  1.00  0.00     0.084 A 
HETATM    4  S   UNK     1      66.879   7.589   5.158  1.00  0.00    -0.081 SA
HETATM    5  C   UNK     1      66.212   6.794   7.476  1.00  0.00     0.040 A 
HETATM    6  C   UNK     1      67.320   6.904   6.659  1.00  0.00     0.079 A 
ENDROOT
BRANCH   3   7
HETATM    7  C   UNK     1      64.189   8.217   4.789  1.00  0.00    -0.001 A 
HETATM    8  C   UNK     1      63.687   9.505   5.036  1.00  0.00     0.038 A 
HETATM    9  C   UNK     1      62.699  10.050   4.215  1.00  0.00     0.035 A 
HETATM   10 CL   UNK     1      62.109  11.637   4.525  1.00  0.00    -0.084 Cl
HETATM   11  C   UNK     1      62.188   9.323   3.142  1.00  0.00     0.024 A 
HETATM   12  C   UNK     1      62.664   8.040   2.891  1.00  0.00     0.003 A 
HETATM   13  C   UNK     1      63.657   7.491   3.709  1.00  0.00     0.014 A 
ENDBRANCH   3   7
BRANCH   5  14
HETATM   14  C   UNK     1      66.178   6.234   8.859  1.00  0.00     0.221 C 
BRANCH  14  15
HETATM   15  O   UNK     1      66.400   4.827   8.859  1.00  0.00    -0.395 OA
HETATM   16  H   UNK     1      66.852   4.570   8.039  1.00  0.00     0.209 HD
ENDBRANCH  14  15
ENDBRANCH   5  14
TORSDOF 3
ENDMDL
MODEL 4
REMARK VINA RESULT:      -5.1      1.396      2.110
REMARK  3 active torsions:
REMARK  status: ('A' for Active; 'I' for Inactive)
REMARK    1  A    between atoms: C_3  and  C_7 
REMARK    2  A    between atoms: C_5  and  C_11 
REMARK    3  A    between atoms: C_11  and  O_12 
ROOT
HETATM    1  N   UNK     1      64.988   7.939   5.192  1.00  0.00    -0.351 N 
ATOM      2  HN  UNK     1      65.532   8.723   4.831  1.00  0.00     0.166 HD
HETATM    3  C   UNK     1      63.849   7.511   4.676  1.00  0.00     0.084 A 
HETATM    4  S   UNK     1      63.170   6.142   5.477  1.00  0.00    -0.081 SA
HETATM    5  C   UNK     1      65.341   7.171   6.299  1.00  0.00     0.040 A 
HETATM    6  C   UNK     1      64.456   6.155   6.600  1.00  0.00     0.079 A 
ENDROOT
BRANCH   3   7
HETATM    7  C   UNK     1      63.200   8.094   3.488  1.00  0.00    -0.001 A 
HETATM    8  C   UNK     1      62.789   9.436   3.515  1.00  0.00     0.038 A 
HETATM    9  C   UNK     1      62.174  10.011   2.401  1.00  0.00     0.035 A 
HETATM   10 CL   UNK     1      61.693  11.663   2.449  1.00  0.00    -0.084 Cl
HETATM   11  C   UNK     1      61.949   9.262   1.249  1.00  0.00     0.024 A 
HETATM   12  C   UNK     1      62.337   7.926   1.210  1.00  0.00     0.003 A 
HETATM   13  C   UNK     1      62.958   7.346   2.322  1.00  0.00     0.014 A 
ENDBRANCH   3   7
BRANCH   5  14
HETATM   14  C   UNK     1      66.584   7.520   7.048  1.00  0.00     0.221 C 
BRANCH  14  15
HETATM   15  O   UNK     1      66.891   8.906   6.932  1.00  0.00    -0.395 OA
HETATM   16  H   UNK     1      66.716   9.203   6.025  1.00  0.00     0.209 HD
ENDBRANCH  14  15
ENDBRANCH   5  14
TORSDOF 3
ENDMDL
MODEL 5
REMARK VINA RESULT:      -5.0      3.179      5.115
REMARK  3 active torsions:
REMARK  status: ('A' for Active; 'I' for Inactive)
REMARK    1  A    between atoms: C_3  and  C_7 
REMARK    2  A    between atoms: C_5  and  C_11 
REMARK    3  A    between atoms: C_11  and  O_12 
ROOT
HETATM    1  N   UNK     1      64.324   9.236   5.338  1.00  0.00    -0.351 N 
ATOM      2  HN  UNK     1      65.036   9.363   6.057  1.00  0.00     0.166 HD
HETATM    3  C   UNK     1      64.312   8.253   4.454  1.00  0.00     0.084 A 
HETATM    4  S   UNK     1      62.961   8.272   3.380  1.00  0.00    -0.081 SA
HETATM    5  C   UNK     1      63.228  10.074   5.150  1.00  0.00     0.040 A 
HETATM    6  C   UNK     1      62.388   9.701   4.120  1.00  0.00     0.079 A 
ENDROOT
BRANCH   3   7
HETATM    7  C   UNK     1      65.321   7.181   4.385  1.00  0.00    -0.001 A 
HETATM    8  C   UNK     1      65.086   6.065   3.566  1.00  0.00     0.038 A 
HETATM    9  C   UNK     1      66.027   5.037   3.481  1.00  0.00     0.035 A 
HETATM   10 CL   UNK     1      65.727   3.686   2.458  1.00  0.00    -0.084 Cl
HETATM   11  C   UNK     1      67.209   5.096   4.215  1.00  0.00     0.024 A 
HETATM   12  C   UNK     1      67.452   6.188   5.043  1.00  0.00     0.003 A 
HETATM   13  C   UNK     1      66.514   7.223   5.127  1.00  0.00     0.014 A 
ENDBRANCH   3   7
BRANCH   5  14
HETATM   14  C   UNK     1      63.079  11.270   6.031  1.00  0.00     0.221 C 
BRANCH  14  15
HETATM   15  O   UNK     1      64.338  11.706   6.535  1.00  0.00    -0.395 OA
HETATM   16  H   UNK     1      65.012  11.622   5.842  1.00  0.00     0.209 HD
ENDBRANCH  14  15
ENDBRANCH   5  14
TORSDOF 3
ENDMDL
MODEL 6
REMARK VINA RESULT:      -4.6      9.709     11.465
REMARK  3 active torsions:
REMARK  status: ('A' for Active; 'I' for Inactive)
REMARK    1  A    between atoms: C_3  and  C_7 
REMARK    2  A    between atoms: C_5  and  C_11 
REMARK    3  A    between atoms: C_11  and  O_12 
ROOT
HETATM    1  N   UNK     1      58.513   4.263  10.357  1.00  0.00    -0.351 N 
ATOM      2  HN  UNK     1      58.237   4.957  11.051  1.00  0.00     0.166 HD
HETATM    3  C   UNK     1      58.589   2.963  10.581  1.00  0.00     0.084 A 
HETATM    4  S   UNK     1      59.049   2.025   9.207  1.00  0.00    -0.081 SA
HETATM    5  C   UNK     1      58.863   4.553   9.041  1.00  0.00     0.040 A 
HETATM    6  C   UNK     1      59.193   3.451   8.277  1.00  0.00     0.079 A 
ENDROOT
BRANCH   3   7
HETATM    7  C   UNK     1      58.270   2.317  11.866  1.00  0.00    -0.001 A 
HETATM    8  C   UNK     1      56.954   2.364  12.353  1.00  0.00     0.038 A 
HETATM    9  C   UNK     1      56.626   1.758  13.568  1.00  0.00     0.035 A 
HETATM   10 CL   UNK     1      55.002   1.811  14.138  1.00  0.00    -0.084 Cl
HETATM   11  C   UNK     1      57.599   1.107  14.322  1.00  0.00     0.024 A 
HETATM   12  C   UNK     1      58.912   1.064  13.861  1.00  0.00     0.003 A 
HETATM   13  C   UNK     1      59.244   1.666  12.642  1.00  0.00     0.014 A 
ENDBRANCH   3   7
BRANCH   5  14
HETATM   14  C   UNK     1      58.875   5.979   8.598  1.00  0.00     0.221 C 
BRANCH  14  15
HETATM   15  O   UNK     1      58.638   6.865   9.688  1.00  0.00    -0.395 OA
HETATM   16  H   UNK     1      57.848   7.398   9.506  1.00  0.00     0.209 HD
ENDBRANCH  14  15
ENDBRANCH   5  14
TORSDOF 3
ENDMDL
MODEL 7
REMARK VINA RESULT:      -4.3      3.163      4.285
REMARK  3 active torsions:
REMARK  status: ('A' for Active; 'I' for Inactive)
REMARK    1  A    between atoms: C_3  and  C_7 
REMARK    2  A    between atoms: C_5  and  C_11 
REMARK    3  A    between atoms: C_11  and  O_12 
ROOT
HETATM    1  N   UNK     1      62.191   9.567   4.221  1.00  0.00    -0.351 N 
ATOM      2  HN  UNK     1      61.347  10.125   4.084  1.00  0.00     0.166 HD
HETATM    3  C   UNK     1      62.428   8.406   3.637  1.00  0.00     0.084 A 
HETATM    4  S   UNK     1      63.956   7.706   4.029  1.00  0.00    -0.081 SA
HETATM    5  C   UNK     1      63.252   9.923   5.049  1.00  0.00     0.040 A 
HETATM    6  C   UNK     1      64.293   9.017   5.071  1.00  0.00     0.079 A 
ENDROOT
BRANCH   3   7
HETATM    7  C   UNK     1      61.515   7.748   2.685  1.00  0.00    -0.001 A 
HETATM    8  C   UNK     1      60.130   7.797   2.912  1.00  0.00     0.038 A 
HETATM    9  C   UNK     1      59.244   7.184   2.025  1.00  0.00     0.035 A 
HETATM   10 CL   UNK     1      57.549   7.271   2.312  1.00  0.00    -0.084 Cl
HETATM   11  C   UNK     1      59.718   6.504   0.906  1.00  0.00     0.024 A 
HETATM   12  C   UNK     1      61.088   6.433   0.673  1.00  0.00     0.003 A 
HETATM   13  C   UNK     1      61.980   7.050   1.558  1.00  0.00     0.014 A 
ENDBRANCH   3   7
BRANCH   5  14
HETATM   14  C   UNK     1      63.159  11.192   5.830  1.00  0.00     0.221 C 
BRANCH  14  15
HETATM   15  O   UNK     1      64.349  11.433   6.575  1.00  0.00    -0.395 OA
HETATM   16  H   UNK     1      64.217  12.197   7.159  1.00  0.00     0.209 HD
ENDBRANCH  14  15
ENDBRANCH   5  14
TORSDOF 3
ENDMDL
MODEL 8
REMARK VINA RESULT:      -4.3      4.191      4.892
REMARK  3 active torsions:
REMARK  status: ('A' for Active; 'I' for Inactive)
REMARK    1  A    between atoms: C_3  and  C_7 
REMARK    2  A    between atoms: C_5  and  C_11 
REMARK    3  A    between atoms: C_11  and  O_12 
ROOT
HETATM    1  N   UNK     1      60.197   6.132   7.331  1.00  0.00    -0.351 N 
ATOM      2  HN  UNK     1      59.790   7.060   7.443  1.00  0.00     0.166 HD
HETATM    3  C   UNK     1      61.220   5.848   6.544  1.00  0.00     0.084 A 
HETATM    4  S   UNK     1      61.719   4.196   6.584  1.00  0.00    -0.081 SA
HETATM    5  C   UNK     1      59.753   4.986   7.985  1.00  0.00     0.040 A 
HETATM    6  C   UNK     1      60.463   3.840   7.686  1.00  0.00     0.079 A 
ENDROOT
BRANCH   3   7
HETATM    7  C   UNK     1      61.938   6.837   5.720  1.00  0.00    -0.001 A 
HETATM    8  C   UNK     1      61.360   7.285   4.521  1.00  0.00     0.038 A 
HETATM    9  C   UNK     1      62.020   8.223   3.724  1.00  0.00     0.035 A 
HETATM   10 CL   UNK     1      61.286   8.772   2.267  1.00  0.00    -0.084 Cl
HETATM   11  C   UNK     1      63.265   8.721   4.098  1.00  0.00     0.024 A 
HETATM   12  C   UNK     1      63.859   8.277   5.275  1.00  0.00     0.003 A 
HETATM   13  C   UNK     1      63.200   7.341   6.080  1.00  0.00     0.014 A 
ENDBRANCH   3   7
BRANCH   5  14
HETATM   14  C   UNK     1      58.576   5.090   8.897  1.00  0.00     0.221 C 
BRANCH  14  15
HETATM   15  O   UNK     1      58.682   6.220   9.758  1.00  0.00    -0.395 OA
HETATM   16  H   UNK     1      59.379   6.812   9.433  1.00  0.00     0.209 HD
ENDBRANCH  14  15
ENDBRANCH   5  14
TORSDOF 3
ENDMDL
MODEL 9
REMARK VINA RESULT:      -4.3      4.639      6.160
REMARK  3 active torsions:
REMARK  status: ('A' for Active; 'I' for Inactive)
REMARK    1  A    between atoms: C_3  and  C_7 
REMARK    2  A    between atoms: C_5  and  C_11 
REMARK    3  A    between atoms: C_11  and  O_12 
ROOT
HETATM    1  N   UNK     1      59.984   8.023   2.479  1.00  0.00    -0.351 N 
ATOM      2  HN  UNK     1      59.493   7.989   3.373  1.00  0.00     0.166 HD
HETATM    3  C   UNK     1      61.177   8.560   2.295  1.00  0.00     0.084 A 
HETATM    4  S   UNK     1      61.775   8.439   0.681  1.00  0.00    -0.081 SA
HETATM    5  C   UNK     1      59.490   7.510   1.283  1.00  0.00     0.040 A 
HETATM    6  C   UNK     1      60.333   7.660   0.200  1.00  0.00     0.079 A 
ENDROOT
BRANCH   3   7
HETATM    7  C   UNK     1      61.987   9.179   3.359  1.00  0.00    -0.001 A 
HETATM    8  C   UNK     1      63.059   8.462   3.915  1.00  0.00     0.038 A 
HETATM    9  C   UNK     1      63.842   9.026   4.923  1.00  0.00     0.035 A 
HETATM   10 CL   UNK     1      65.163   8.137   5.579  1.00  0.00    -0.084 Cl
HETATM   11  C   UNK     1      63.568  10.305   5.403  1.00  0.00     0.024 A 
HETATM   12  C   UNK     1      62.501  11.024   4.873  1.00  0.00     0.003 A 
HETATM   13  C   UNK     1      61.716  10.464   3.859  1.00  0.00     0.014 A 
ENDBRANCH   3   7
BRANCH   5  14
HETATM   14  C   UNK     1      58.132   6.889   1.273  1.00  0.00     0.221 C 
BRANCH  14  15
HETATM   15  O   UNK     1      57.305   7.430   2.300  1.00  0.00    -0.395 OA
HETATM   16  H   UNK     1      57.842   7.611   3.087  1.00  0.00     0.209 HD
ENDBRANCH  14  15
ENDBRANCH   5  14
TORSDOF 3
ENDMDL
