MODEL 1
REMARK VINA RESULT:      -4.3      0.000      0.000
REMARK  0 active torsions:
REMARK  status: ('A' for Active; 'I' for Inactive)
ROOT
HETATM    1  C   UNL     1      65.067   8.383   5.186  1.00  0.00     0.130 A 
HETATM    2  C   UNL     1      63.895   9.002   4.807  1.00  0.00     0.121 A 
HETATM    3  C   UNL     1      65.292   7.178   4.483  1.00  0.00     0.110 A 
HETATM    4  S   UNL     1      63.126   8.141   3.533  1.00  0.00    -0.085 SA
HETATM    5  C   UNL     1      64.333   6.921   3.536  1.00  0.00     0.090 A 
HETATM    6  C   UNL     1      63.343  10.184   5.385  1.00  0.00     0.110 C 
HETATM    7  N   UNL     1      62.867  11.128   5.864  1.00  0.00    -0.191 NA
HETATM    8  O   UNL     1      65.896   8.880   6.133  1.00  0.00    -0.344 OA
HETATM    9  O   UNL     1      66.324   6.334   4.705  1.00  0.00    -0.346 OA
HETATM   10  C   UNL     1      66.813   7.879   6.595  1.00  0.00     0.202 C 
HETATM   11  C   UNL     1      67.352   6.967   5.481  1.00  0.00     0.202 C 
ENDROOT
TORSDOF 0
ENDMDL
MODEL 2
REMARK VINA RESULT:      -4.1      2.760      3.949
REMARK  0 active torsions:
REMARK  status: ('A' for Active; 'I' for Inactive)
ROOT
HETATM    1  C   UNL     1      63.309   8.696   4.903  1.00  0.00     0.130 A 
HETATM    2  C   UNL     1      63.924   7.500   5.202  1.00  0.00     0.121 A 
HETATM    3  C   UNL     1      62.942   8.787   3.541  1.00  0.00     0.110 A 
HETATM    4  S   UNL     1      63.970   6.468   3.829  1.00  0.00    -0.085 SA
HETATM    5  C   UNL     1      63.219   7.646   2.832  1.00  0.00     0.090 A 
HETATM    6  C   UNL     1      64.486   7.135   6.462  1.00  0.00     0.110 C 
HETATM    7  N   UNL     1      64.975   6.837   7.472  1.00  0.00    -0.191 NA
HETATM    8  O   UNL     1      63.093   9.669   5.818  1.00  0.00    -0.344 OA
HETATM    9  O   UNL     1      62.389   9.875   2.960  1.00  0.00    -0.346 OA
HETATM   10  C   UNL     1      62.797  10.921   5.182  1.00  0.00     0.202 C 
HETATM   11  C   UNL     1      61.892  10.792   3.946  1.00  0.00     0.202 C 
ENDROOT
TORSDOF 0
ENDMDL
MODEL 3
REMARK VINA RESULT:      -4.1      2.538      3.236
REMARK  0 active torsions:
REMARK  status: ('A' for Active; 'I' for Inactive)
ROOT
HETATM    1  C   UNL     1      66.693   6.826   6.831  1.00  0.00     0.130 A 
HETATM    2  C   UNL     1      66.162   7.301   5.652  1.00  0.00     0.121 A 
HETATM    3  C   UNL     1      67.439   5.638   6.647  1.00  0.00     0.110 A 
HETATM    4  S   UNL     1      66.653   6.334   4.319  1.00  0.00    -0.085 SA
HETATM    5  C   UNL     1      67.524   5.257   5.332  1.00  0.00     0.090 A 
HETATM    6  C   UNL     1      65.295   8.425   5.514  1.00  0.00     0.110 C 
HETATM    7  N   UNL     1      64.565   9.319   5.389  1.00  0.00    -0.191 NA
HETATM    8  O   UNL     1      66.508   7.432   8.027  1.00  0.00    -0.344 OA
HETATM    9  O   UNL     1      68.008   4.920   7.640  1.00  0.00    -0.346 OA
HETATM   10  C   UNL     1      66.831   6.549   9.111  1.00  0.00     0.202 C 
HETATM   11  C   UNL     1      68.074   5.680   8.856  1.00  0.00     0.202 C 
ENDROOT
TORSDOF 0
ENDMDL
MODEL 4
REMARK VINA RESULT:      -4.1      2.531      2.769
REMARK  0 active torsions:
REMARK  status: ('A' for Active; 'I' for Inactive)
ROOT
HETATM    1  C   UNL     1      63.848   7.449   6.070  1.00  0.00     0.130 A 
HETATM    2  C   UNL     1      62.516   7.261   5.771  1.00  0.00     0.121 A 
HETATM    3  C   UNL     1      64.529   8.174   5.064  1.00  0.00     0.110 A 
HETATM    4  S   UNL     1      62.096   8.046   4.302  1.00  0.00    -0.085 SA
HETATM    5  C   UNL     1      63.705   8.584   4.047  1.00  0.00     0.090 A 
HETATM    6  C   UNL     1      61.582   6.500   6.536  1.00  0.00     0.110 C 
HETATM    7  N   UNL     1      60.818   5.861   7.132  1.00  0.00    -0.191 NA
HETATM    8  O   UNL     1      64.430   6.981   7.199  1.00  0.00    -0.344 OA
HETATM    9  O   UNL     1      65.854   8.438   5.065  1.00  0.00    -0.346 OA
HETATM   10  C   UNL     1      65.860   6.979   7.082  1.00  0.00     0.202 C 
HETATM   11  C   UNL     1      66.427   8.213   6.362  1.00  0.00     0.202 C 
ENDROOT
TORSDOF 0
ENDMDL
MODEL 5
REMARK VINA RESULT:      -4.0      3.465      4.534
REMARK  0 active torsions:
REMARK  status: ('A' for Active; 'I' for Inactive)
ROOT
HETATM    1  C   UNL     1      64.866   6.885   6.217  1.00  0.00     0.130 A 
HETATM    2  C   UNL     1      65.652   5.886   6.747  1.00  0.00     0.121 A 
HETATM    3  C   UNL     1      65.592   8.077   5.987  1.00  0.00     0.110 A 
HETATM    4  S   UNL     1      67.289   6.391   6.878  1.00  0.00    -0.085 SA
HETATM    5  C   UNL     1      66.926   7.958   6.279  1.00  0.00     0.090 A 
HETATM    6  C   UNL     1      65.204   4.598   7.169  1.00  0.00     0.110 C 
HETATM    7  N   UNL     1      64.849   3.559   7.544  1.00  0.00    -0.191 NA
HETATM    8  O   UNL     1      63.546   6.734   5.958  1.00  0.00    -0.344 OA
HETATM    9  O   UNL     1      65.056   9.235   5.541  1.00  0.00    -0.346 OA
HETATM   10  C   UNL     1      62.904   8.005   5.781  1.00  0.00     0.202 C 
HETATM   11  C   UNL     1      63.746   9.023   4.993  1.00  0.00     0.202 C 
ENDROOT
TORSDOF 0
ENDMDL
MODEL 6
REMARK VINA RESULT:      -3.9      3.361      4.704
REMARK  0 active torsions:
REMARK  status: ('A' for Active; 'I' for Inactive)
ROOT
HETATM    1  C   UNL     1      62.901   8.832   3.297  1.00  0.00     0.130 A 
HETATM    2  C   UNL     1      63.271   9.131   4.590  1.00  0.00     0.121 A 
HETATM    3  C   UNL     1      62.121   9.854   2.710  1.00  0.00     0.110 A 
HETATM    4  S   UNL     1      62.728  10.698   5.041  1.00  0.00    -0.085 SA
HETATM    5  C   UNL     1      61.957  10.942   3.528  1.00  0.00     0.090 A 
HETATM    6  C   UNL     1      63.985   8.274   5.480  1.00  0.00     0.110 C 
HETATM    7  N   UNL     1      64.539   7.577   6.225  1.00  0.00    -0.191 NA
HETATM    8  O   UNL     1      63.246   7.682   2.673  1.00  0.00    -0.344 OA
HETATM    9  O   UNL     1      61.565   9.792   1.479  1.00  0.00    -0.346 OA
HETATM   10  C   UNL     1      62.434   7.459   1.511  1.00  0.00     0.202 C 
HETATM   11  C   UNL     1      62.144   8.734   0.702  1.00  0.00     0.202 C 
ENDROOT
TORSDOF 0
ENDMDL
MODEL 7
REMARK VINA RESULT:      -3.9      3.096      4.222
REMARK  0 active torsions:
REMARK  status: ('A' for Active; 'I' for Inactive)
ROOT
HETATM    1  C   UNL     1      62.560   8.782   2.691  1.00  0.00     0.130 A 
HETATM    2  C   UNL     1      62.713   9.504   3.854  1.00  0.00     0.121 A 
HETATM    3  C   UNL     1      63.202   7.524   2.749  1.00  0.00     0.110 A 
HETATM    4  S   UNL     1      63.571   8.598   5.036  1.00  0.00    -0.085 SA
HETATM    5  C   UNL     1      63.780   7.272   3.967  1.00  0.00     0.090 A 
HETATM    6  C   UNL     1      62.260  10.838   4.082  1.00  0.00     0.110 C 
HETATM    7  N   UNL     1      61.923  11.933   4.272  1.00  0.00    -0.191 NA
HETATM    8  O   UNL     1      61.875   9.240   1.617  1.00  0.00    -0.344 OA
HETATM    9  O   UNL     1      63.273   6.644   1.725  1.00  0.00    -0.346 OA
HETATM   10  C   UNL     1      62.188   8.480   0.441  1.00  0.00     0.202 C 
HETATM   11  C   UNL     1      62.329   6.970   0.695  1.00  0.00     0.202 C 
ENDROOT
TORSDOF 0
ENDMDL
MODEL 8
REMARK VINA RESULT:      -3.8      3.735      5.183
REMARK  0 active torsions:
REMARK  status: ('A' for Active; 'I' for Inactive)
ROOT
HETATM    1  C   UNL     1      62.851   8.915   3.106  1.00  0.00     0.130 A 
HETATM    2  C   UNL     1      63.495   7.831   3.661  1.00  0.00     0.121 A 
HETATM    3  C   UNL     1      62.502   9.887   4.071  1.00  0.00     0.110 A 
HETATM    4  S   UNL     1      63.739   8.055   5.348  1.00  0.00    -0.085 SA
HETATM    5  C   UNL     1      62.934   9.570   5.333  1.00  0.00     0.090 A 
HETATM    6  C   UNL     1      63.899   6.649   2.972  1.00  0.00     0.110 C 
HETATM    7  N   UNL     1      64.206   5.669   2.431  1.00  0.00    -0.191 NA
HETATM    8  O   UNL     1      62.581   9.022   1.784  1.00  0.00    -0.344 OA
HETATM    9  O   UNL     1      61.801  11.014   3.815  1.00  0.00    -0.346 OA
HETATM   10  C   UNL     1      61.593  10.032   1.537  1.00  0.00     0.202 C 
HETATM   11  C   UNL     1      61.758  11.289   2.407  1.00  0.00     0.202 C 
ENDROOT
TORSDOF 0
ENDMDL
MODEL 9
REMARK VINA RESULT:      -3.7      2.124      2.468
REMARK  0 active torsions:
REMARK  status: ('A' for Active; 'I' for Inactive)
ROOT
HETATM    1  C   UNL     1      63.050   8.240   4.203  1.00  0.00     0.130 A 
HETATM    2  C   UNL     1      61.990   9.002   3.764  1.00  0.00     0.121 A 
HETATM    3  C   UNL     1      62.732   6.864   4.278  1.00  0.00     0.110 A 
HETATM    4  S   UNL     1      60.641   8.013   3.367  1.00  0.00    -0.085 SA
HETATM    5  C   UNL     1      61.464   6.582   3.838  1.00  0.00     0.090 A 
HETATM    6  C   UNL     1      61.962  10.424   3.661  1.00  0.00     0.110 C 
HETATM    7  N   UNL     1      61.914  11.583   3.601  1.00  0.00    -0.191 NA
HETATM    8  O   UNL     1      64.255   8.763   4.532  1.00  0.00    -0.344 OA
HETATM    9  O   UNL     1      63.560   5.903   4.744  1.00  0.00    -0.346 OA
HETATM   10  C   UNL     1      65.030   7.833   5.302  1.00  0.00     0.202 C 
HETATM   11  C   UNL     1      64.912   6.378   4.822  1.00  0.00     0.202 C 
ENDROOT
TORSDOF 0
ENDMDL
