MODEL 1
REMARK VINA RESULT:      -4.9      0.000      0.000
REMARK  2 active torsions:
REMARK  status: ('A' for Active; 'I' for Inactive)
REMARK    1  A    between atoms: C_2  and  C_4 
REMARK    2  A    between atoms: C_3  and  C_7 
ROOT
HETATM    1  S   UNL     1      63.178   9.731   5.119  1.00  0.00    -0.081 SA
HETATM    2  C   UNL     1      63.408   8.067   4.788  1.00  0.00     0.039 A 
HETATM    3  C   UNL     1      62.405  10.014   3.618  1.00  0.00     0.082 A 
HETATM    4  C   UNL     1      62.293   8.845   2.889  1.00  0.00     0.027 A 
HETATM    5  C   UNL     1      62.866   7.727   3.564  1.00  0.00     0.023 A 
ENDROOT
BRANCH   2   6
HETATM    6  C   UNL     1      64.094   7.185   5.693  1.00  0.00     0.092 A 
HETATM    7  O   UNL     1      65.021   7.645   6.599  1.00  0.00    -0.321 OA
HETATM    8  C   UNL     1      65.465   6.587   7.321  1.00  0.00     0.142 A 
HETATM    9  C   UNL     1      64.851   5.432   6.907  1.00  0.00     0.027 A 
HETATM   10  C   UNL     1      63.977   5.811   5.859  1.00  0.00     0.040 A 
ENDBRANCH   2   6
BRANCH   3  11
HETATM   11  C   UNL     1      61.979  11.352   3.284  1.00  0.00     0.216 C 
HETATM   12  O   UNL     1      61.764  11.838   2.184  1.00  0.00    -0.643 OA
HETATM   13  O   UNL     1      61.806  12.108   4.394  1.00  0.00    -0.643 OA
ENDBRANCH   3  11
TORSDOF 2
ENDMDL
MODEL 2
REMARK VINA RESULT:      -4.6      1.308      5.613
REMARK  2 active torsions:
REMARK  status: ('A' for Active; 'I' for Inactive)
REMARK    1  A    between atoms: C_2  and  C_4 
REMARK    2  A    between atoms: C_3  and  C_7 
ROOT
HETATM    1  S   UNL     1      64.383   8.498   5.113  1.00  0.00    -0.081 SA
HETATM    2  C   UNL     1      62.794   8.593   4.481  1.00  0.00     0.039 A 
HETATM    3  C   UNL     1      64.014   7.133   6.077  1.00  0.00     0.082 A 
HETATM    4  C   UNL     1      62.704   6.733   5.892  1.00  0.00     0.027 A 
HETATM    5  C   UNL     1      62.006   7.570   4.971  1.00  0.00     0.023 A 
ENDROOT
BRANCH   2   6
HETATM    6  C   UNL     1      62.382   9.628   3.572  1.00  0.00     0.092 A 
HETATM    7  O   UNL     1      62.071  10.897   4.004  1.00  0.00    -0.321 OA
HETATM    8  C   UNL     1      61.750  11.643   2.918  1.00  0.00     0.142 A 
HETATM    9  C   UNL     1      61.839  10.890   1.775  1.00  0.00     0.027 A 
HETATM   10  C   UNL     1      62.236   9.596   2.192  1.00  0.00     0.040 A 
ENDBRANCH   2   6
BRANCH   3  11
HETATM   11  C   UNL     1      65.035   6.575   6.930  1.00  0.00     0.216 C 
HETATM   12  O   UNL     1      65.748   7.141   7.747  1.00  0.00    -0.643 OA
HETATM   13  O   UNL     1      65.154   5.238   6.753  1.00  0.00    -0.643 OA
ENDBRANCH   3  11
TORSDOF 2
ENDMDL
MODEL 3
REMARK VINA RESULT:      -4.6      2.482      6.165
REMARK  2 active torsions:
REMARK  status: ('A' for Active; 'I' for Inactive)
REMARK    1  A    between atoms: C_2  and  C_4 
REMARK    2  A    between atoms: C_3  and  C_7 
ROOT
HETATM    1  S   UNL     1      64.821   6.680   6.693  1.00  0.00    -0.081 SA
HETATM    2  C   UNL     1      65.114   7.914   5.544  1.00  0.00     0.039 A 
HETATM    3  C   UNL     1      66.442   6.132   6.651  1.00  0.00     0.082 A 
HETATM    4  C   UNL     1      67.206   6.905   5.796  1.00  0.00     0.027 A 
HETATM    5  C   UNL     1      66.442   7.931   5.164  1.00  0.00     0.023 A 
ENDROOT
BRANCH   2   6
HETATM    6  C   UNL     1      64.077   8.785   5.059  1.00  0.00     0.092 A 
HETATM    7  O   UNL     1      63.749   9.957   5.701  1.00  0.00    -0.321 OA
HETATM    8  C   UNL     1      62.765  10.563   4.992  1.00  0.00     0.142 A 
HETATM    9  C   UNL     1      62.432   9.812   3.894  1.00  0.00     0.027 A 
HETATM   10  C   UNL     1      63.266   8.668   3.938  1.00  0.00     0.040 A 
ENDBRANCH   2   6
BRANCH   3  11
HETATM   11  C   UNL     1      66.824   4.995   7.452  1.00  0.00     0.216 C 
HETATM   12  O   UNL     1      66.331   4.590   8.495  1.00  0.00    -0.643 OA
HETATM   13  O   UNL     1      67.869   4.331   6.905  1.00  0.00    -0.643 OA
ENDBRANCH   3  11
TORSDOF 2
ENDMDL
MODEL 4
REMARK VINA RESULT:      -4.4      2.591      5.421
REMARK  2 active torsions:
REMARK  status: ('A' for Active; 'I' for Inactive)
REMARK    1  A    between atoms: C_2  and  C_4 
REMARK    2  A    between atoms: C_3  and  C_7 
ROOT
HETATM    1  S   UNL     1      63.564   7.496   3.887  1.00  0.00    -0.081 SA
HETATM    2  C   UNL     1      62.327   8.597   3.455  1.00  0.00     0.039 A 
HETATM    3  C   UNL     1      64.265   8.585   5.006  1.00  0.00     0.082 A 
HETATM    4  C   UNL     1      63.542   9.761   5.074  1.00  0.00     0.027 A 
HETATM    5  C   UNL     1      62.426   9.765   4.185  1.00  0.00     0.023 A 
ENDROOT
BRANCH   2   6
HETATM    6  C   UNL     1      61.344   8.302   2.447  1.00  0.00     0.092 A 
HETATM    7  O   UNL     1      60.304   7.431   2.675  1.00  0.00    -0.321 OA
HETATM    8  C   UNL     1      59.540   7.386   1.555  1.00  0.00     0.142 A 
HETATM    9  C   UNL     1      60.058   8.209   0.588  1.00  0.00     0.027 A 
HETATM   10  C   UNL     1      61.218   8.792   1.154  1.00  0.00     0.040 A 
ENDBRANCH   2   6
BRANCH   3  11
HETATM   11  C   UNL     1      65.460   8.196   5.715  1.00  0.00     0.216 C 
HETATM   12  O   UNL     1      65.565   7.660   6.809  1.00  0.00    -0.643 OA
HETATM   13  O   UNL     1      66.575   8.486   5.005  1.00  0.00    -0.643 OA
ENDBRANCH   3  11
TORSDOF 2
ENDMDL
MODEL 5
REMARK VINA RESULT:      -4.4      1.972      2.482
REMARK  2 active torsions:
REMARK  status: ('A' for Active; 'I' for Inactive)
REMARK    1  A    between atoms: C_2  and  C_4 
REMARK    2  A    between atoms: C_3  and  C_7 
ROOT
HETATM    1  S   UNL     1      63.486   7.704   3.447  1.00  0.00    -0.081 SA
HETATM    2  C   UNL     1      63.968   8.472   4.899  1.00  0.00     0.039 A 
HETATM    3  C   UNL     1      62.353   8.930   3.069  1.00  0.00     0.082 A 
HETATM    4  C   UNL     1      62.368   9.931   4.022  1.00  0.00     0.027 A 
HETATM    5  C   UNL     1      63.298   9.668   5.071  1.00  0.00     0.023 A 
ENDROOT
BRANCH   2   6
HETATM    6  C   UNL     1      64.936   7.899   5.795  1.00  0.00     0.092 A 
HETATM    7  O   UNL     1      64.565   7.159   6.894  1.00  0.00    -0.321 OA
HETATM    8  C   UNL     1      65.693   6.737   7.517  1.00  0.00     0.142 A 
HETATM    9  C   UNL     1      66.805   7.187   6.851  1.00  0.00     0.027 A 
HETATM   10  C   UNL     1      66.323   7.938   5.752  1.00  0.00     0.040 A 
ENDBRANCH   2   6
BRANCH   3  11
HETATM   11  C   UNL     1      61.549   8.804   1.878  1.00  0.00     0.216 C 
HETATM   12  O   UNL     1      60.461   8.265   1.738  1.00  0.00    -0.643 OA
HETATM   13  O   UNL     1      62.141   9.399   0.815  1.00  0.00    -0.643 OA
ENDBRANCH   3  11
TORSDOF 2
ENDMDL
MODEL 6
REMARK VINA RESULT:      -4.3      2.411      2.618
REMARK  2 active torsions:
REMARK  status: ('A' for Active; 'I' for Inactive)
REMARK    1  A    between atoms: C_2  and  C_4 
REMARK    2  A    between atoms: C_3  and  C_7 
ROOT
HETATM    1  S   UNL     1      64.472   8.731   5.025  1.00  0.00    -0.081 SA
HETATM    2  C   UNL     1      64.431   7.444   3.896  1.00  0.00     0.039 A 
HETATM    3  C   UNL     1      63.092   9.486   4.349  1.00  0.00     0.082 A 
HETATM    4  C   UNL     1      62.587   8.746   3.297  1.00  0.00     0.027 A 
HETATM    5  C   UNL     1      63.355   7.571   3.041  1.00  0.00     0.023 A 
ENDROOT
BRANCH   2   6
HETATM    6  C   UNL     1      65.420   6.399   3.875  1.00  0.00     0.092 A 
HETATM    7  O   UNL     1      65.368   5.365   2.971  1.00  0.00    -0.321 OA
HETATM    8  C   UNL     1      66.444   4.567   3.183  1.00  0.00     0.142 A 
HETATM    9  C   UNL     1      67.206   5.053   4.216  1.00  0.00     0.027 A 
HETATM   10  C   UNL     1      66.548   6.224   4.666  1.00  0.00     0.040 A 
ENDBRANCH   2   6
BRANCH   3  11
HETATM   11  C   UNL     1      62.629  10.734   4.904  1.00  0.00     0.216 C 
HETATM   12  O   UNL     1      61.901  11.577   4.399  1.00  0.00    -0.643 OA
HETATM   13  O   UNL     1      63.094  10.921   6.161  1.00  0.00    -0.643 OA
ENDBRANCH   3  11
TORSDOF 2
ENDMDL
MODEL 7
REMARK VINA RESULT:      -4.3      2.637      3.046
REMARK  2 active torsions:
REMARK  status: ('A' for Active; 'I' for Inactive)
REMARK    1  A    between atoms: C_2  and  C_4 
REMARK    2  A    between atoms: C_3  and  C_7 
ROOT
HETATM    1  S   UNL     1      62.874   8.846   3.616  1.00  0.00    -0.081 SA
HETATM    2  C   UNL     1      62.921   7.613   2.430  1.00  0.00     0.039 A 
HETATM    3  C   UNL     1      62.158   9.973   2.545  1.00  0.00     0.082 A 
HETATM    4  C   UNL     1      61.926   9.403   1.307  1.00  0.00     0.027 A 
HETATM    5  C   UNL     1      62.361   8.046   1.244  1.00  0.00     0.023 A 
ENDROOT
BRANCH   2   6
HETATM    6  C   UNL     1      63.492   6.317   2.681  1.00  0.00     0.092 A 
HETATM    7  O   UNL     1      62.808   5.154   2.413  1.00  0.00    -0.321 OA
HETATM    8  C   UNL     1      63.615   4.110   2.726  1.00  0.00     0.142 A 
HETATM    9  C   UNL     1      64.821   4.562   3.199  1.00  0.00     0.027 A 
HETATM   10  C   UNL     1      64.743   5.975   3.178  1.00  0.00     0.040 A 
ENDBRANCH   2   6
BRANCH   3  11
HETATM   11  C   UNL     1      61.889  11.313   3.007  1.00  0.00     0.216 C 
HETATM   12  O   UNL     1      61.740  11.717   4.151  1.00  0.00    -0.643 OA
HETATM   13  O   UNL     1      61.819  12.188   1.976  1.00  0.00    -0.643 OA
ENDBRANCH   3  11
TORSDOF 2
ENDMDL
MODEL 8
REMARK VINA RESULT:      -4.2      2.658      4.172
REMARK  2 active torsions:
REMARK  status: ('A' for Active; 'I' for Inactive)
REMARK    1  A    between atoms: C_2  and  C_4 
REMARK    2  A    between atoms: C_3  and  C_7 
ROOT
HETATM    1  S   UNL     1      62.040   9.296   3.449  1.00  0.00    -0.081 SA
HETATM    2  C   UNL     1      62.871   7.824   3.177  1.00  0.00     0.039 A 
HETATM    3  C   UNL     1      63.087   9.755   4.723  1.00  0.00     0.082 A 
HETATM    4  C   UNL     1      64.079   8.812   4.915  1.00  0.00     0.027 A 
HETATM    5  C   UNL     1      63.956   7.705   4.023  1.00  0.00     0.023 A 
ENDROOT
BRANCH   2   6
HETATM    6  C   UNL     1      62.446   6.865   2.193  1.00  0.00     0.092 A 
HETATM    7  O   UNL     1      61.212   6.258   2.251  1.00  0.00    -0.321 OA
HETATM    8  C   UNL     1      61.098   5.436   1.179  1.00  0.00     0.142 A 
HETATM    9  C   UNL     1      62.235   5.484   0.414  1.00  0.00     0.027 A 
HETATM   10  C   UNL     1      63.104   6.393   1.065  1.00  0.00     0.040 A 
ENDBRANCH   2   6
BRANCH   3  11
HETATM   11  C   UNL     1      62.845  10.992   5.424  1.00  0.00     0.216 C 
HETATM   12  O   UNL     1      63.251  11.346   6.522  1.00  0.00    -0.643 OA
HETATM   13  O   UNL     1      62.065  11.828   4.700  1.00  0.00    -0.643 OA
ENDBRANCH   3  11
TORSDOF 2
ENDMDL
MODEL 9
REMARK VINA RESULT:      -4.0      3.461      4.752
REMARK  2 active torsions:
REMARK  status: ('A' for Active; 'I' for Inactive)
REMARK    1  A    between atoms: C_2  and  C_4 
REMARK    2  A    between atoms: C_3  and  C_7 
ROOT
HETATM    1  S   UNL     1      61.465   8.370   3.700  1.00  0.00    -0.081 SA
HETATM    2  C   UNL     1      61.303   8.029   2.030  1.00  0.00     0.039 A 
HETATM    3  C   UNL     1      61.967   9.981   3.413  1.00  0.00     0.082 A 
HETATM    4  C   UNL     1      61.977  10.265   2.060  1.00  0.00     0.027 A 
HETATM    5  C   UNL     1      61.591   9.143   1.268  1.00  0.00     0.023 A 
ENDROOT
BRANCH   2   6
HETATM    6  C   UNL     1      60.926   6.731   1.537  1.00  0.00     0.092 A 
HETATM    7  O   UNL     1      59.820   6.546   0.740  1.00  0.00    -0.321 OA
HETATM    8  C   UNL     1      59.749   5.231   0.418  1.00  0.00     0.142 A 
HETATM    9  C   UNL     1      60.787   4.540   0.991  1.00  0.00     0.027 A 
HETATM   10  C   UNL     1      61.539   5.498   1.714  1.00  0.00     0.040 A 
ENDBRANCH   2   6
BRANCH   3  11
HETATM   11  C   UNL     1      62.310  10.823   4.533  1.00  0.00     0.216 C 
HETATM   12  O   UNL     1      62.049  12.003   4.716  1.00  0.00    -0.643 OA
HETATM   13  O   UNL     1      63.004  10.139   5.473  1.00  0.00    -0.643 OA
ENDBRANCH   3  11
TORSDOF 2
ENDMDL
