MODEL 1
REMARK VINA RESULT:      -4.5      0.000      0.000
REMARK  3 active torsions:
REMARK  status: ('A' for Active; 'I' for Inactive)
REMARK    1  A    between atoms: C_1  and  C_3 
REMARK    2  A    between atoms: C_5  and  C_12 
REMARK    3  A    between atoms: N_11  and  C_12 
ROOT
HETATM    1  C   UNL     1      64.986   7.928   5.488  1.00  0.00     0.039 A 
HETATM    2  S   UNL     1      64.684   6.707   6.649  1.00  0.00    -0.090 SA
HETATM    3  C   UNL     1      66.287   7.863   5.027  1.00  0.00     0.023 A 
HETATM    4  C   UNL     1      66.260   6.053   6.498  1.00  0.00     0.009 A 
HETATM    5  C   UNL     1      67.018   6.780   5.600  1.00  0.00     0.017 A 
ENDROOT
BRANCH   1   6
HETATM    6  C   UNL     1      63.977   8.867   5.072  1.00  0.00     0.092 A 
HETATM    7  O   UNL     1      63.773  10.061   5.726  1.00  0.00    -0.321 OA
HETATM    8  C   UNL     1      62.785  10.729   5.080  1.00  0.00     0.142 A 
HETATM    9  C   UNL     1      62.332   9.998   4.011  1.00  0.00     0.027 A 
HETATM   10  C   UNL     1      63.089   8.804   4.008  1.00  0.00     0.040 A 
ENDBRANCH   1   6
BRANCH   4  11
HETATM   11  C   UNL     1      66.636   4.817   7.265  1.00  0.00     0.277 C 
BRANCH  11  12
HETATM   12  N   UNL     1      66.510   5.038   8.707  1.00  0.00    -0.075 N 
HETATM   13  C   UNL     1      67.530   5.964   9.177  1.00  0.00     0.267 C 
HETATM   14  H   UNL     1      66.616   4.147   9.192  1.00  0.00     0.277 HD
HETATM   15  H   UNL     1      65.591   5.438   8.898  1.00  0.00     0.277 HD
ENDBRANCH  11  12
ENDBRANCH   4  11
TORSDOF 3
ENDMDL
MODEL 2
REMARK VINA RESULT:      -4.4      2.011      2.912
REMARK  3 active torsions:
REMARK  status: ('A' for Active; 'I' for Inactive)
REMARK    1  A    between atoms: C_1  and  C_3 
REMARK    2  A    between atoms: C_5  and  C_12 
REMARK    3  A    between atoms: N_11  and  C_12 
ROOT
HETATM    1  C   UNL     1      62.654   8.589   4.384  1.00  0.00     0.039 A 
HETATM    2  S   UNL     1      64.218   8.419   5.060  1.00  0.00    -0.090 SA
HETATM    3  C   UNL     1      61.832   7.547   4.769  1.00  0.00     0.023 A 
HETATM    4  C   UNL     1      63.789   6.996   5.910  1.00  0.00     0.009 A 
HETATM    5  C   UNL     1      62.481   6.635   5.652  1.00  0.00     0.017 A 
ENDROOT
BRANCH   1   6
HETATM    6  C   UNL     1      62.291   9.701   3.543  1.00  0.00     0.092 A 
HETATM    7  O   UNL     1      62.037  10.953   4.054  1.00  0.00    -0.321 OA
HETATM    8  C   UNL     1      61.757  11.780   3.016  1.00  0.00     0.142 A 
HETATM    9  C   UNL     1      61.823  11.097   1.829  1.00  0.00     0.027 A 
HETATM   10  C   UNL     1      62.158   9.765   2.164  1.00  0.00     0.040 A 
ENDBRANCH   1   6
BRANCH   4  11
HETATM   11  C   UNL     1      64.786   6.338   6.823  1.00  0.00     0.277 C 
BRANCH  11  12
HETATM   12  N   UNL     1      65.799   7.296   7.268  1.00  0.00    -0.075 N 
HETATM   13  C   UNL     1      67.138   6.789   7.001  1.00  0.00     0.267 C 
HETATM   14  H   UNL     1      65.694   7.453   8.270  1.00  0.00     0.277 HD
HETATM   15  H   UNL     1      65.672   8.169   6.757  1.00  0.00     0.277 HD
ENDBRANCH  11  12
ENDBRANCH   4  11
TORSDOF 3
ENDMDL
MODEL 3
REMARK VINA RESULT:      -4.4      3.567      6.290
REMARK  3 active torsions:
REMARK  status: ('A' for Active; 'I' for Inactive)
REMARK    1  A    between atoms: C_1  and  C_3 
REMARK    2  A    between atoms: C_5  and  C_12 
REMARK    3  A    between atoms: N_11  and  C_12 
ROOT
HETATM    1  C   UNL     1      63.652   8.774   4.628  1.00  0.00     0.039 A 
HETATM    2  S   UNL     1      63.212   8.056   3.137  1.00  0.00    -0.090 SA
HETATM    3  C   UNL     1      62.971   9.961   4.826  1.00  0.00     0.023 A 
HETATM    4  C   UNL     1      62.074   9.286   2.782  1.00  0.00     0.009 A 
HETATM    5  C   UNL     1      62.058  10.252   3.770  1.00  0.00     0.017 A 
ENDROOT
BRANCH   1   6
HETATM    6  C   UNL     1      64.603   8.172   5.526  1.00  0.00     0.092 A 
HETATM    7  O   UNL     1      65.784   8.791   5.865  1.00  0.00    -0.321 OA
HETATM    8  C   UNL     1      66.438   7.992   6.745  1.00  0.00     0.142 A 
HETATM    9  C   UNL     1      65.710   6.856   6.993  1.00  0.00     0.027 A 
HETATM   10  C   UNL     1      64.539   6.966   6.210  1.00  0.00     0.040 A 
ENDBRANCH   1   6
BRANCH   4  11
HETATM   11  C   UNL     1      61.231   9.193   1.541  1.00  0.00     0.277 C 
BRANCH  11  12
HETATM   12  N   UNL     1      60.012   8.424   1.794  1.00  0.00    -0.075 N 
HETATM   13  C   UNL     1      59.431   7.955   0.544  1.00  0.00     0.267 C 
HETATM   14  H   UNL     1      59.336   9.018   2.275  1.00  0.00     0.277 HD
HETATM   15  H   UNL     1      60.247   7.616   2.370  1.00  0.00     0.277 HD
ENDBRANCH  11  12
ENDBRANCH   4  11
TORSDOF 3
ENDMDL
MODEL 4
REMARK VINA RESULT:      -4.2      2.328      2.880
REMARK  3 active torsions:
REMARK  status: ('A' for Active; 'I' for Inactive)
REMARK    1  A    between atoms: C_1  and  C_3 
REMARK    2  A    between atoms: C_5  and  C_12 
REMARK    3  A    between atoms: N_11  and  C_12 
ROOT
HETATM    1  C   UNL     1      65.159   8.081   5.174  1.00  0.00     0.039 A 
HETATM    2  S   UNL     1      65.258   6.710   4.152  1.00  0.00    -0.090 SA
HETATM    3  C   UNL     1      66.194   8.093   6.089  1.00  0.00     0.023 A 
HETATM    4  C   UNL     1      66.707   6.164   4.883  1.00  0.00     0.009 A 
HETATM    5  C   UNL     1      67.090   6.996   5.918  1.00  0.00     0.017 A 
ENDROOT
BRANCH   1   6
HETATM    6  C   UNL     1      64.119   9.068   5.044  1.00  0.00     0.092 A 
HETATM    7  O   UNL     1      64.099  10.214   5.805  1.00  0.00    -0.321 OA
HETATM    8  C   UNL     1      63.022  10.949   5.428  1.00  0.00     0.142 A 
HETATM    9  C   UNL     1      62.331  10.308   4.433  1.00  0.00     0.027 A 
HETATM   10  C   UNL     1      63.026   9.102   4.189  1.00  0.00     0.040 A 
ENDBRANCH   1   6
BRANCH   4  11
HETATM   11  C   UNL     1      67.403   4.943   4.349  1.00  0.00     0.277 C 
BRANCH  11  12
HETATM   12  N   UNL     1      67.475   4.979   2.888  1.00  0.00    -0.075 N 
HETATM   13  C   UNL     1      67.380   3.635   2.335  1.00  0.00     0.267 C 
HETATM   14  H   UNL     1      68.363   5.395   2.607  1.00  0.00     0.277 HD
HETATM   15  H   UNL     1      66.696   5.534   2.535  1.00  0.00     0.277 HD
ENDBRANCH  11  12
ENDBRANCH   4  11
TORSDOF 3
ENDMDL
MODEL 5
REMARK VINA RESULT:      -4.1      2.909      5.853
REMARK  3 active torsions:
REMARK  status: ('A' for Active; 'I' for Inactive)
REMARK    1  A    between atoms: C_1  and  C_3 
REMARK    2  A    between atoms: C_5  and  C_12 
REMARK    3  A    between atoms: N_11  and  C_12 
ROOT
HETATM    1  C   UNL     1      65.704   7.039   6.664  1.00  0.00     0.039 A 
HETATM    2  S   UNL     1      64.055   6.645   6.420  1.00  0.00    -0.090 SA
HETATM    3  C   UNL     1      66.085   8.095   5.858  1.00  0.00     0.023 A 
HETATM    4  C   UNL     1      63.831   7.913   5.291  1.00  0.00     0.009 A 
HETATM    5  C   UNL     1      65.008   8.604   5.075  1.00  0.00     0.017 A 
ENDROOT
BRANCH   1   6
HETATM    6  C   UNL     1      66.535   6.337   7.607  1.00  0.00     0.092 A 
HETATM    7  O   UNL     1      66.937   5.037   7.404  1.00  0.00    -0.321 OA
HETATM    8  C   UNL     1      67.730   4.676   8.444  1.00  0.00     0.142 A 
HETATM    9  C   UNL     1      67.858   5.714   9.331  1.00  0.00     0.027 A 
HETATM   10  C   UNL     1      67.090   6.776   8.801  1.00  0.00     0.040 A 
ENDBRANCH   1   6
BRANCH   4  11
HETATM   11  C   UNL     1      62.468   8.167   4.710  1.00  0.00     0.277 C 
BRANCH  11  12
HETATM   12  N   UNL     1      62.552   9.052   3.547  1.00  0.00    -0.075 N 
HETATM   13  C   UNL     1      61.905  10.327   3.822  1.00  0.00     0.267 C 
HETATM   14  H   UNL     1      62.091   8.606   2.754  1.00  0.00     0.277 HD
HETATM   15  H   UNL     1      63.535   9.223   3.335  1.00  0.00     0.277 HD
ENDBRANCH  11  12
ENDBRANCH   4  11
TORSDOF 3
ENDMDL
MODEL 6
REMARK VINA RESULT:      -4.1      3.300      5.925
REMARK  3 active torsions:
REMARK  status: ('A' for Active; 'I' for Inactive)
REMARK    1  A    between atoms: C_1  and  C_3 
REMARK    2  A    between atoms: C_5  and  C_12 
REMARK    3  A    between atoms: N_11  and  C_12 
ROOT
HETATM    1  C   UNL     1      64.253   8.459   4.737  1.00  0.00     0.039 A 
HETATM    2  S   UNL     1      63.511   7.592   3.461  1.00  0.00    -0.090 SA
HETATM    3  C   UNL     1      63.540   9.604   5.039  1.00  0.00     0.023 A 
HETATM    4  C   UNL     1      62.211   8.703   3.348  1.00  0.00     0.009 A 
HETATM    5  C   UNL     1      62.363   9.741   4.247  1.00  0.00     0.017 A 
ENDROOT
BRANCH   1   6
HETATM    6  C   UNL     1      65.455   8.002   5.386  1.00  0.00     0.092 A 
HETATM    7  O   UNL     1      65.517   7.786   6.743  1.00  0.00    -0.321 OA
HETATM    8  C   UNL     1      66.762   7.333   7.039  1.00  0.00     0.142 A 
HETATM    9  C   UNL     1      67.522   7.246   5.901  1.00  0.00     0.027 A 
HETATM   10  C   UNL     1      66.690   7.679   4.843  1.00  0.00     0.040 A 
ENDBRANCH   1   6
BRANCH   4  11
HETATM   11  C   UNL     1      61.089   8.448   2.382  1.00  0.00     0.277 C 
BRANCH  11  12
HETATM   12  N   UNL     1      59.812   8.321   3.086  1.00  0.00    -0.075 N 
HETATM   13  C   UNL     1      59.100   7.128   2.650  1.00  0.00     0.267 C 
HETATM   14  H   UNL     1      59.239   9.143   2.891  1.00  0.00     0.277 HD
HETATM   15  H   UNL     1      59.995   8.246   4.086  1.00  0.00     0.277 HD
ENDBRANCH  11  12
ENDBRANCH   4  11
TORSDOF 3
ENDMDL
MODEL 7
REMARK VINA RESULT:      -4.0      2.884      3.942
REMARK  3 active torsions:
REMARK  status: ('A' for Active; 'I' for Inactive)
REMARK    1  A    between atoms: C_1  and  C_3 
REMARK    2  A    between atoms: C_5  and  C_12 
REMARK    3  A    between atoms: N_11  and  C_12 
ROOT
HETATM    1  C   UNL     1      62.530   8.460   3.428  1.00  0.00     0.039 A 
HETATM    2  S   UNL     1      63.817   7.398   3.808  1.00  0.00    -0.090 SA
HETATM    3  C   UNL     1      62.561   9.584   4.231  1.00  0.00     0.023 A 
HETATM    4  C   UNL     1      64.452   8.455   4.997  1.00  0.00     0.009 A 
HETATM    5  C   UNL     1      63.670   9.586   5.128  1.00  0.00     0.017 A 
ENDROOT
BRANCH   1   6
HETATM    6  C   UNL     1      61.574   8.178   2.388  1.00  0.00     0.092 A 
HETATM    7  O   UNL     1      60.458   7.405   2.610  1.00  0.00    -0.321 OA
HETATM    8  C   UNL     1      59.748   7.353   1.454  1.00  0.00     0.142 A 
HETATM    9  C   UNL     1      60.376   8.078   0.474  1.00  0.00     0.027 A 
HETATM   10  C   UNL     1      61.548   8.601   1.067  1.00  0.00     0.040 A 
ENDBRANCH   1   6
BRANCH   4  11
HETATM   11  C   UNL     1      65.728   8.102   5.709  1.00  0.00     0.277 C 
BRANCH  11  12
HETATM   12  N   UNL     1      65.451   7.378   6.950  1.00  0.00    -0.075 N 
HETATM   13  C   UNL     1      66.689   7.067   7.651  1.00  0.00     0.267 C 
HETATM   14  H   UNL     1      64.964   6.509   6.729  1.00  0.00     0.277 HD
HETATM   15  H   UNL     1      64.873   7.965   7.551  1.00  0.00     0.277 HD
ENDBRANCH  11  12
ENDBRANCH   4  11
TORSDOF 3
ENDMDL
MODEL 8
REMARK VINA RESULT:      -3.8      4.976      6.731
REMARK  3 active torsions:
REMARK  status: ('A' for Active; 'I' for Inactive)
REMARK    1  A    between atoms: C_1  and  C_3 
REMARK    2  A    between atoms: C_5  and  C_12 
REMARK    3  A    between atoms: N_11  and  C_12 
ROOT
HETATM    1  C   UNL     1      61.785   8.941   2.535  1.00  0.00     0.039 A 
HETATM    2  S   UNL     1      60.930   7.483   2.804  1.00  0.00    -0.090 SA
HETATM    3  C   UNL     1      62.011   9.142   1.187  1.00  0.00     0.023 A 
HETATM    4  C   UNL     1      60.805   7.146   1.129  1.00  0.00     0.009 A 
HETATM    5  C   UNL     1      61.441   8.115   0.377  1.00  0.00     0.017 A 
ENDROOT
BRANCH   1   6
HETATM    6  C   UNL     1      62.182   9.815   3.609  1.00  0.00     0.092 A 
HETATM    7  O   UNL     1      61.742  11.116   3.695  1.00  0.00    -0.321 OA
HETATM    8  C   UNL     1      62.260  11.660   4.825  1.00  0.00     0.142 A 
HETATM    9  C   UNL     1      63.035  10.742   5.486  1.00  0.00     0.027 A 
HETATM   10  C   UNL     1      62.992   9.563   4.707  1.00  0.00     0.040 A 
ENDBRANCH   1   6
BRANCH   4  11
HETATM   11  C   UNL     1      60.040   5.940   0.661  1.00  0.00     0.277 C 
BRANCH  11  12
HETATM   12  N   UNL     1      58.830   5.746   1.461  1.00  0.00    -0.075 N 
HETATM   13  C   UNL     1      57.749   6.591   0.972  1.00  0.00     0.267 C 
HETATM   14  H   UNL     1      59.028   5.985   2.432  1.00  0.00     0.277 HD
HETATM   15  H   UNL     1      58.542   4.771   1.387  1.00  0.00     0.277 HD
ENDBRANCH  11  12
ENDBRANCH   4  11
TORSDOF 3
ENDMDL
MODEL 9
REMARK VINA RESULT:      -3.8      3.030      5.909
REMARK  3 active torsions:
REMARK  status: ('A' for Active; 'I' for Inactive)
REMARK    1  A    between atoms: C_1  and  C_3 
REMARK    2  A    between atoms: C_5  and  C_12 
REMARK    3  A    between atoms: N_11  and  C_12 
ROOT
HETATM    1  C   UNL     1      64.809   7.180   6.276  1.00  0.00     0.039 A 
HETATM    2  S   UNL     1      64.919   8.442   5.125  1.00  0.00    -0.090 SA
HETATM    3  C   UNL     1      63.512   6.714   6.380  1.00  0.00     0.023 A 
HETATM    4  C   UNL     1      63.258   8.331   4.719  1.00  0.00     0.009 A 
HETATM    5  C   UNL     1      62.621   7.369   5.480  1.00  0.00     0.017 A 
ENDROOT
BRANCH   1   6
HETATM    6  C   UNL     1      65.954   6.695   7.004  1.00  0.00     0.092 A 
HETATM    7  O   UNL     1      65.972   6.628   8.378  1.00  0.00    -0.321 OA
HETATM    8  C   UNL     1      67.166   6.104   8.756  1.00  0.00     0.142 A 
HETATM    9  C   UNL     1      67.935   5.824   7.656  1.00  0.00     0.027 A 
HETATM   10  C   UNL     1      67.165   6.207   6.534  1.00  0.00     0.040 A 
ENDBRANCH   1   6
BRANCH   4  11
HETATM   11  C   UNL     1      62.693   9.197   3.628  1.00  0.00     0.277 C 
BRANCH  11  12
HETATM   12  N   UNL     1      62.697   8.491   2.346  1.00  0.00    -0.075 N 
HETATM   13  C   UNL     1      62.128   9.327   1.298  1.00  0.00     0.267 C 
HETATM   14  H   UNL     1      62.144   7.638   2.432  1.00  0.00     0.277 HD
HETATM   15  H   UNL     1      63.660   8.266   2.099  1.00  0.00     0.277 HD
ENDBRANCH  11  12
ENDBRANCH   4  11
TORSDOF 3
ENDMDL
