MODEL 1
REMARK VINA RESULT:      -4.5      0.000      0.000
REMARK  3 active torsions:
REMARK  status: ('A' for Active; 'I' for Inactive)
REMARK    1  A    between atoms: C_3  and  C_7 
REMARK    2  A    between atoms: C_6  and  C_12 
REMARK    3  A    between atoms: C_12  and  N_14 
ROOT
HETATM    1  N   UNL     1      64.098   9.598   5.531  1.00  0.00    -0.297 N 
ATOM      2  HN  UNL     1      64.475  10.089   6.341  1.00  0.00     0.187 HD
HETATM    3  C   UNL     1      64.515   8.439   5.008  1.00  0.00     0.067 A 
HETATM    4  N   UNL     1      63.067   9.970   4.744  1.00  0.00    -0.299 N 
HETATM    5  C   UNL     1      63.723   8.062   3.901  1.00  0.00     0.060 A 
HETATM    6  C   UNL     1      62.771   9.054   3.768  1.00  0.00     0.055 A 
HETATM    7  C   UNL     1      62.452  11.253   4.993  1.00  0.00     0.177 C 
ENDROOT
BRANCH   3   8
HETATM    8  C   UNL     1      65.689   7.689   5.566  1.00  0.00     0.033 A 
HETATM    9  S   UNL     1      65.637   6.717   6.970  1.00  0.00    -0.100 SA
HETATM   10  C   UNL     1      67.283   6.277   6.804  1.00  0.00     0.050 A 
HETATM   11  C   UNL     1      67.872   6.885   5.718  1.00  0.00     0.008 A 
HETATM   12  C   UNL     1      66.947   7.700   4.999  1.00  0.00     0.021 A 
ENDBRANCH   3   8
BRANCH   6  13
HETATM   13  C   UNL     1      61.663   9.189   2.793  1.00  0.00     0.288 C 
BRANCH  13  14
HETATM   14  N   UNL     1      60.434   8.662   3.368  1.00  0.00    -0.074 N 
HETATM   15  H   UNL     1      60.017   9.362   3.980  1.00  0.00     0.274 HD
HETATM   16  H   UNL     1      60.645   7.822   3.906  1.00  0.00     0.274 HD
HETATM   17  H   UNL     1      59.780   8.432   2.620  1.00  0.00     0.274 HD
ENDBRANCH  13  14
ENDBRANCH   6  13
TORSDOF 3
ENDMDL
MODEL 2
REMARK VINA RESULT:      -4.4      2.626      5.307
REMARK  3 active torsions:
REMARK  status: ('A' for Active; 'I' for Inactive)
REMARK    1  A    between atoms: C_3  and  C_7 
REMARK    2  A    between atoms: C_6  and  C_12 
REMARK    3  A    between atoms: C_12  and  N_14 
ROOT
HETATM    1  N   UNL     1      64.686   7.751   6.509  1.00  0.00    -0.297 N 
ATOM      2  HN  UNL     1      64.139   8.132   7.280  1.00  0.00     0.187 HD
HETATM    3  C   UNL     1      64.605   8.067   5.212  1.00  0.00     0.067 A 
HETATM    4  N   UNL     1      65.656   6.815   6.566  1.00  0.00    -0.299 N 
HETATM    5  C   UNL     1      65.550   7.347   4.447  1.00  0.00     0.060 A 
HETATM    6  C   UNL     1      66.242   6.565   5.352  1.00  0.00     0.055 A 
HETATM    7  C   UNL     1      65.921   6.190   7.840  1.00  0.00     0.177 C 
ENDROOT
BRANCH   3   8
HETATM    8  C   UNL     1      63.605   9.061   4.694  1.00  0.00     0.033 A 
HETATM    9  S   UNL     1      62.643   8.829   3.301  1.00  0.00    -0.100 SA
HETATM   10  C   UNL     1      61.856  10.333   3.516  1.00  0.00     0.050 A 
HETATM   11  C   UNL     1      62.339  11.016   4.610  1.00  0.00     0.008 A 
HETATM   12  C   UNL     1      63.350  10.277   5.294  1.00  0.00     0.021 A 
ENDBRANCH   3   8
BRANCH   6  13
HETATM   13  C   UNL     1      67.358   5.615   5.134  1.00  0.00     0.288 C 
BRANCH  13  14
HETATM   14  N   UNL     1      67.433   5.257   3.726  1.00  0.00    -0.074 N 
HETATM   15  H   UNL     1      68.144   5.825   3.267  1.00  0.00     0.274 HD
HETATM   16  H   UNL     1      66.528   5.423   3.285  1.00  0.00     0.274 HD
HETATM   17  H   UNL     1      67.678   4.270   3.638  1.00  0.00     0.274 HD
ENDBRANCH  13  14
ENDBRANCH   6  13
TORSDOF 3
ENDMDL
MODEL 3
REMARK VINA RESULT:      -4.3      2.615      5.570
REMARK  3 active torsions:
REMARK  status: ('A' for Active; 'I' for Inactive)
REMARK    1  A    between atoms: C_3  and  C_7 
REMARK    2  A    between atoms: C_6  and  C_12 
REMARK    3  A    between atoms: C_12  and  N_14 
ROOT
HETATM    1  N   UNL     1      63.837   6.820   5.870  1.00  0.00    -0.297 N 
ATOM      2  HN  UNL     1      62.878   6.473   5.830  1.00  0.00     0.187 HD
HETATM    3  C   UNL     1      64.304   7.988   5.415  1.00  0.00     0.067 A 
HETATM    4  N   UNL     1      64.918   6.206   6.392  1.00  0.00    -0.299 N 
HETATM    5  C   UNL     1      65.685   8.125   5.679  1.00  0.00     0.060 A 
HETATM    6  C   UNL     1      66.055   6.971   6.341  1.00  0.00     0.055 A 
HETATM    7  C   UNL     1      64.760   4.859   6.887  1.00  0.00     0.177 C 
ENDROOT
BRANCH   3   8
HETATM    8  C   UNL     1      63.424   8.980   4.712  1.00  0.00     0.033 A 
HETATM    9  S   UNL     1      62.709   8.724   3.181  1.00  0.00    -0.100 SA
HETATM   10  C   UNL     1      61.922  10.243   3.223  1.00  0.00     0.050 A 
HETATM   11  C   UNL     1      62.224  10.948   4.367  1.00  0.00     0.008 A 
HETATM   12  C   UNL     1      63.091  10.215   5.230  1.00  0.00     0.021 A 
ENDBRANCH   3   8
BRANCH   6  13
HETATM   13  C   UNL     1      67.373   6.560   6.879  1.00  0.00     0.288 C 
BRANCH  13  14
HETATM   14  N   UNL     1      67.477   6.947   8.277  1.00  0.00    -0.074 N 
HETATM   15  H   UNL     1      66.605   6.726   8.757  1.00  0.00     0.274 HD
HETATM   16  H   UNL     1      67.655   7.949   8.339  1.00  0.00     0.274 HD
HETATM   17  H   UNL     1      68.244   6.437   8.715  1.00  0.00     0.274 HD
ENDBRANCH  13  14
ENDBRANCH   6  13
TORSDOF 3
ENDMDL
MODEL 4
REMARK VINA RESULT:      -4.2      1.407      2.035
REMARK  3 active torsions:
REMARK  status: ('A' for Active; 'I' for Inactive)
REMARK    1  A    between atoms: C_3  and  C_7 
REMARK    2  A    between atoms: C_6  and  C_12 
REMARK    3  A    between atoms: C_12  and  N_14 
ROOT
HETATM    1  N   UNL     1      64.159   7.471   3.590  1.00  0.00    -0.297 N 
ATOM      2  HN  UNL     1      64.502   6.652   3.088  1.00  0.00     0.187 HD
HETATM    3  C   UNL     1      64.603   7.965   4.751  1.00  0.00     0.067 A 
HETATM    4  N   UNL     1      63.157   8.301   3.233  1.00  0.00    -0.299 N 
HETATM    5  C   UNL     1      63.896   9.133   5.116  1.00  0.00     0.060 A 
HETATM    6  C   UNL     1      62.984   9.349   4.101  1.00  0.00     0.055 A 
HETATM    7  C   UNL     1      62.396   7.976   2.050  1.00  0.00     0.177 C 
ENDROOT
BRANCH   3   8
HETATM    8  C   UNL     1      65.708   7.309   5.527  1.00  0.00     0.033 A 
HETATM    9  S   UNL     1      65.528   6.638   7.089  1.00  0.00    -0.100 SA
HETATM   10  C   UNL     1      67.161   6.128   7.128  1.00  0.00     0.050 A 
HETATM   11  C   UNL     1      67.842   6.491   5.986  1.00  0.00     0.008 A 
HETATM   12  C   UNL     1      66.999   7.171   5.058  1.00  0.00     0.021 A 
ENDBRANCH   3   8
BRANCH   6  13
HETATM   13  C   UNL     1      61.985  10.429   3.929  1.00  0.00     0.288 C 
BRANCH  13  14
HETATM   14  N   UNL     1      62.367  11.585   4.726  1.00  0.00    -0.074 N 
HETATM   15  H   UNL     1      61.611  12.269   4.719  1.00  0.00     0.274 HD
HETATM   16  H   UNL     1      63.209  12.005   4.331  1.00  0.00     0.274 HD
HETATM   17  H   UNL     1      62.551  11.292   5.685  1.00  0.00     0.274 HD
ENDBRANCH  13  14
ENDBRANCH   6  13
TORSDOF 3
ENDMDL
MODEL 5
REMARK VINA RESULT:      -4.0      2.970      5.167
REMARK  3 active torsions:
REMARK  status: ('A' for Active; 'I' for Inactive)
REMARK    1  A    between atoms: C_3  and  C_7 
REMARK    2  A    between atoms: C_6  and  C_12 
REMARK    3  A    between atoms: C_12  and  N_14 
ROOT
HETATM    1  N   UNL     1      64.756   7.957   6.403  1.00  0.00    -0.297 N 
ATOM      2  HN  UNL     1      65.252   8.820   6.624  1.00  0.00     0.187 HD
HETATM    3  C   UNL     1      63.726   7.795   5.565  1.00  0.00     0.067 A 
HETATM    4  N   UNL     1      64.991   6.720   6.889  1.00  0.00    -0.299 N 
HETATM    5  C   UNL     1      63.325   6.442   5.498  1.00  0.00     0.060 A 
HETATM    6  C   UNL     1      64.180   5.758   6.341  1.00  0.00     0.055 A 
HETATM    7  C   UNL     1      65.999   6.573   7.911  1.00  0.00     0.177 C 
ENDROOT
BRANCH   3   8
HETATM    8  C   UNL     1      63.109   8.948   4.827  1.00  0.00     0.033 A 
HETATM    9  S   UNL     1      62.463   8.852   3.248  1.00  0.00    -0.100 SA
HETATM   10  C   UNL     1      61.991  10.496   3.271  1.00  0.00     0.050 A 
HETATM   11  C   UNL     1      62.349  11.118   4.447  1.00  0.00     0.008 A 
HETATM   12  C   UNL     1      62.992  10.220   5.349  1.00  0.00     0.021 A 
ENDBRANCH   3   8
BRANCH   6  13
HETATM   13  C   UNL     1      64.251   4.314   6.663  1.00  0.00     0.288 C 
BRANCH  13  14
HETATM   14  N   UNL     1      62.909   3.785   6.854  1.00  0.00    -0.074 N 
HETATM   15  H   UNL     1      62.963   2.876   7.311  1.00  0.00     0.274 HD
HETATM   16  H   UNL     1      62.452   3.684   5.947  1.00  0.00     0.274 HD
HETATM   17  H   UNL     1      62.370   4.427   7.436  1.00  0.00     0.274 HD
ENDBRANCH  13  14
ENDBRANCH   6  13
TORSDOF 3
ENDMDL
MODEL 6
REMARK VINA RESULT:      -3.9      3.129      5.747
REMARK  3 active torsions:
REMARK  status: ('A' for Active; 'I' for Inactive)
REMARK    1  A    between atoms: C_3  and  C_7 
REMARK    2  A    between atoms: C_6  and  C_12 
REMARK    3  A    between atoms: C_12  and  N_14 
ROOT
HETATM    1  N   UNL     1      65.470   7.226   7.441  1.00  0.00    -0.297 N 
ATOM      2  HN  UNL     1      65.295   8.158   7.818  1.00  0.00     0.187 HD
HETATM    3  C   UNL     1      64.953   6.680   6.335  1.00  0.00     0.067 A 
HETATM    4  N   UNL     1      66.275   6.268   7.945  1.00  0.00    -0.299 N 
HETATM    5  C   UNL     1      65.458   5.377   6.122  1.00  0.00     0.060 A 
HETATM    6  C   UNL     1      66.337   5.144   7.162  1.00  0.00     0.055 A 
HETATM    7  C   UNL     1      66.916   6.519   9.214  1.00  0.00     0.177 C 
ENDROOT
BRANCH   3   8
HETATM    8  C   UNL     1      63.958   7.405   5.477  1.00  0.00     0.033 A 
HETATM    9  S   UNL     1      62.384   6.837   5.130  1.00  0.00    -0.100 SA
HETATM   10  C   UNL     1      62.015   8.230   4.205  1.00  0.00     0.050 A 
HETATM   11  C   UNL     1      63.083   9.098   4.134  1.00  0.00     0.008 A 
HETATM   12  C   UNL     1      64.206   8.621   4.873  1.00  0.00     0.021 A 
ENDBRANCH   3   8
BRANCH   6  13
HETATM   13  C   UNL     1      67.174   3.957   7.455  1.00  0.00     0.288 C 
BRANCH  13  14
HETATM   14  N   UNL     1      66.367   2.932   8.100  1.00  0.00    -0.074 N 
HETATM   15  H   UNL     1      65.760   3.364   8.795  1.00  0.00     0.274 HD
HETATM   16  H   UNL     1      66.980   2.255   8.555  1.00  0.00     0.274 HD
HETATM   17  H   UNL     1      65.797   2.458   7.399  1.00  0.00     0.274 HD
ENDBRANCH  13  14
ENDBRANCH   6  13
TORSDOF 3
ENDMDL
MODEL 7
REMARK VINA RESULT:      -3.9      2.633      5.328
REMARK  3 active torsions:
REMARK  status: ('A' for Active; 'I' for Inactive)
REMARK    1  A    between atoms: C_3  and  C_7 
REMARK    2  A    between atoms: C_6  and  C_12 
REMARK    3  A    between atoms: C_12  and  N_14 
ROOT
HETATM    1  N   UNL     1      64.114   7.031   6.600  1.00  0.00    -0.297 N 
ATOM      2  HN  UNL     1      63.381   6.754   7.254  1.00  0.00     0.187 HD
HETATM    3  C   UNL     1      63.969   7.452   5.338  1.00  0.00     0.067 A 
HETATM    4  N   UNL     1      65.446   7.056   6.812  1.00  0.00    -0.299 N 
HETATM    5  C   UNL     1      65.217   7.774   4.759  1.00  0.00     0.060 A 
HETATM    6  C   UNL     1      66.157   7.539   5.744  1.00  0.00     0.055 A 
HETATM    7  C   UNL     1      65.941   6.556   8.073  1.00  0.00     0.177 C 
ENDROOT
BRANCH   3   8
HETATM    8  C   UNL     1      62.625   7.539   4.676  1.00  0.00     0.033 A 
HETATM    9  S   UNL     1      61.296   6.532   5.048  1.00  0.00    -0.100 SA
HETATM   10  C   UNL     1      60.289   7.334   3.921  1.00  0.00     0.050 A 
HETATM   11  C   UNL     1      60.961   8.331   3.248  1.00  0.00     0.008 A 
HETATM   12  C   UNL     1      62.313   8.451   3.688  1.00  0.00     0.021 A 
ENDBRANCH   3   8
BRANCH   6  13
HETATM   13  C   UNL     1      67.628   7.712   5.720  1.00  0.00     0.288 C 
BRANCH  13  14
HETATM   14  N   UNL     1      68.075   7.944   4.355  1.00  0.00    -0.074 N 
HETATM   15  H   UNL     1      67.787   8.874   4.055  1.00  0.00     0.274 HD
HETATM   16  H   UNL     1      67.660   7.244   3.739  1.00  0.00     0.274 HD
HETATM   17  H   UNL     1      69.092   7.873   4.313  1.00  0.00     0.274 HD
ENDBRANCH  13  14
ENDBRANCH   6  13
TORSDOF 3
ENDMDL
MODEL 8
REMARK VINA RESULT:      -3.6     10.984     11.521
REMARK  3 active torsions:
REMARK  status: ('A' for Active; 'I' for Inactive)
REMARK    1  A    between atoms: C_3  and  C_7 
REMARK    2  A    between atoms: C_6  and  C_12 
REMARK    3  A    between atoms: C_12  and  N_14 
ROOT
HETATM    1  N   UNL     1      58.861   2.319  12.339  1.00  0.00    -0.297 N 
ATOM      2  HN  UNL     1      59.880   2.285  12.358  1.00  0.00     0.187 HD
HETATM    3  C   UNL     1      58.072   2.679  11.321  1.00  0.00     0.067 A 
HETATM    4  N   UNL     1      58.005   2.011  13.335  1.00  0.00    -0.299 N 
HETATM    5  C   UNL     1      56.706   2.569  11.667  1.00  0.00     0.060 A 
HETATM    6  C   UNL     1      56.687   2.104  12.967  1.00  0.00     0.055 A 
HETATM    7  C   UNL     1      58.558   1.671  14.625  1.00  0.00     0.177 C 
ENDROOT
BRANCH   3   8
HETATM    8  C   UNL     1      58.628   3.143  10.006  1.00  0.00     0.033 A 
HETATM    9  S   UNL     1      59.300   2.110   8.821  1.00  0.00    -0.100 SA
HETATM   10  C   UNL     1      59.592   3.416   7.755  1.00  0.00     0.050 A 
HETATM   11  C   UNL     1      59.215   4.623   8.304  1.00  0.00     0.008 A 
HETATM   12  C   UNL     1      58.653   4.463   9.605  1.00  0.00     0.021 A 
ENDBRANCH   3   8
BRANCH   6  13
HETATM   13  C   UNL     1      55.541   1.784  13.850  1.00  0.00     0.288 C 
BRANCH  13  14
HETATM   14  N   UNL     1      55.171   2.959  14.623  1.00  0.00    -0.074 N 
HETATM   15  H   UNL     1      54.490   3.510  14.102  1.00  0.00     0.274 HD
HETATM   16  H   UNL     1      56.002   3.525  14.800  1.00  0.00     0.274 HD
HETATM   17  H   UNL     1      54.764   2.668  15.512  1.00  0.00     0.274 HD
ENDBRANCH  13  14
ENDBRANCH   6  13
TORSDOF 3
ENDMDL
MODEL 9
REMARK VINA RESULT:      -3.4      4.269      5.372
REMARK  3 active torsions:
REMARK  status: ('A' for Active; 'I' for Inactive)
REMARK    1  A    between atoms: C_3  and  C_7 
REMARK    2  A    between atoms: C_6  and  C_12 
REMARK    3  A    between atoms: C_12  and  N_14 
ROOT
HETATM    1  N   UNL     1      59.863   7.040   2.644  1.00  0.00    -0.297 N 
ATOM      2  HN  UNL     1      59.196   6.290   2.462  1.00  0.00     0.187 HD
HETATM    3  C   UNL     1      60.504   7.308   3.787  1.00  0.00     0.067 A 
HETATM    4  N   UNL     1      60.298   7.986   1.785  1.00  0.00    -0.299 N 
HETATM    5  C   UNL     1      61.372   8.413   3.642  1.00  0.00     0.060 A 
HETATM    6  C   UNL     1      61.246   8.817   2.327  1.00  0.00     0.055 A 
HETATM    7  C   UNL     1      59.709   8.029   0.468  1.00  0.00     0.177 C 
ENDROOT
BRANCH   3   8
HETATM    8  C   UNL     1      60.276   6.506   5.035  1.00  0.00     0.033 A 
HETATM    9  S   UNL     1      61.482   6.160   6.196  1.00  0.00    -0.100 SA
HETATM   10  C   UNL     1      60.375   5.314   7.189  1.00  0.00     0.050 A 
HETATM   11  C   UNL     1      59.116   5.266   6.632  1.00  0.00     0.008 A 
HETATM   12  C   UNL     1      59.059   5.960   5.387  1.00  0.00     0.021 A 
ENDBRANCH   3   8
BRANCH   6  13
HETATM   13  C   UNL     1      61.922   9.914   1.596  1.00  0.00     0.288 C 
BRANCH  13  14
HETATM   14  N   UNL     1      61.569  11.193   2.191  1.00  0.00    -0.074 N 
HETATM   15  H   UNL     1      60.652  11.123   2.630  1.00  0.00     0.274 HD
HETATM   16  H   UNL     1      61.545  11.910   1.465  1.00  0.00     0.274 HD
HETATM   17  H   UNL     1      62.264  11.445   2.894  1.00  0.00     0.274 HD
ENDBRANCH  13  14
ENDBRANCH   6  13
TORSDOF 3
ENDMDL
