MODEL 1
REMARK VINA RESULT:      -4.9      0.000      0.000
REMARK  2 active torsions:
REMARK  status: ('A' for Active; 'I' for Inactive)
REMARK    1  A    between atoms: C_6  and  C_13 
REMARK    2  A    between atoms: C_13  and  O_14 
ROOT
HETATM    1  C   UNL     1      62.808   8.678   3.508  1.00  0.00     0.069 A 
HETATM    2  N   UNL     1      63.842   8.343   4.352  1.00  0.00    -0.295 N 
HETATM    3  N   UNL     1      64.046   9.247   5.340  1.00  0.00    -0.300 N 
ATOM      4  HN  UNL     1      64.730   9.207   6.095  1.00  0.00     0.187 HD
HETATM    5  C   UNL     1      62.360   9.905   3.966  1.00  0.00     0.061 A 
HETATM    6  C   UNL     1      63.143  10.206   5.097  1.00  0.00     0.051 A 
HETATM    7  C   UNL     1      62.324   7.916   2.386  1.00  0.00     0.033 A 
HETATM    8  S   UNL     1      61.739   8.705   0.973  1.00  0.00    -0.100 SA
HETATM    9  C   UNL     1      62.212   6.544   2.259  1.00  0.00     0.021 A 
HETATM   10  C   UNL     1      61.384   7.224   0.200  1.00  0.00     0.050 A 
HETATM   11  C   UNL     1      61.693   6.143   0.992  1.00  0.00     0.008 A 
HETATM   12  C   UNL     1      64.738   7.211   4.304  1.00  0.00     0.178 C 
ENDROOT
BRANCH   6  13
HETATM   13  C   UNL     1      63.065  11.407   5.982  1.00  0.00     0.222 C 
BRANCH  13  14
HETATM   14  O   UNL     1      64.329  11.713   6.576  1.00  0.00    -0.395 OA
HETATM   15  H   UNL     1      64.965  11.950   5.882  1.00  0.00     0.209 HD
ENDBRANCH  13  14
ENDBRANCH   6  13
TORSDOF 2
ENDMDL
MODEL 2
REMARK VINA RESULT:      -4.9      1.681      2.697
REMARK  2 active torsions:
REMARK  status: ('A' for Active; 'I' for Inactive)
REMARK    1  A    between atoms: C_6  and  C_13 
REMARK    2  A    between atoms: C_13  and  O_14 
ROOT
HETATM    1  C   UNL     1      63.518   8.434   3.834  1.00  0.00     0.069 A 
HETATM    2  N   UNL     1      63.480   9.471   4.740  1.00  0.00    -0.295 N 
HETATM    3  N   UNL     1      64.434   9.386   5.696  1.00  0.00    -0.300 N 
ATOM      4  HN  UNL     1      64.622  10.042   6.454  1.00  0.00     0.187 HD
HETATM    5  C   UNL     1      64.537   7.611   4.282  1.00  0.00     0.061 A 
HETATM    6  C   UNL     1      65.075   8.243   5.419  1.00  0.00     0.051 A 
HETATM    7  C   UNL     1      62.663   8.252   2.690  1.00  0.00     0.033 A 
HETATM    8  S   UNL     1      62.178   6.676   2.196  1.00  0.00    -0.100 SA
HETATM    9  C   UNL     1      62.152   9.209   1.833  1.00  0.00     0.021 A 
HETATM   10  C   UNL     1      61.271   7.283   0.883  1.00  0.00     0.050 A 
HETATM   11  C   UNL     1      61.331   8.655   0.806  1.00  0.00     0.008 A 
HETATM   12  C   UNL     1      62.561  10.582   4.826  1.00  0.00     0.178 C 
ENDROOT
BRANCH   6  13
HETATM   13  C   UNL     1      66.208   7.788   6.280  1.00  0.00     0.222 C 
BRANCH  13  14
HETATM   14  O   UNL     1      66.828   8.880   6.963  1.00  0.00    -0.395 OA
HETATM   15  H   UNL     1      67.723   9.014   6.614  1.00  0.00     0.209 HD
ENDBRANCH  13  14
ENDBRANCH   6  13
TORSDOF 2
ENDMDL
MODEL 3
REMARK VINA RESULT:      -4.4      2.907      4.468
REMARK  2 active torsions:
REMARK  status: ('A' for Active; 'I' for Inactive)
REMARK    1  A    between atoms: C_6  and  C_13 
REMARK    2  A    between atoms: C_13  and  O_14 
ROOT
HETATM    1  C   UNL     1      64.525   7.927   4.478  1.00  0.00     0.069 A 
HETATM    2  N   UNL     1      63.666   7.722   3.421  1.00  0.00    -0.295 N 
HETATM    3  N   UNL     1      62.761   8.716   3.263  1.00  0.00    -0.300 N 
ATOM      4  HN  UNL     1      62.045   8.803   2.542  1.00  0.00     0.187 HD
HETATM    5  C   UNL     1      64.098   9.109   5.057  1.00  0.00     0.061 A 
HETATM    6  C   UNL     1      63.021   9.560   4.270  1.00  0.00     0.051 A 
HETATM    7  C   UNL     1      65.611   7.076   4.889  1.00  0.00     0.033 A 
HETATM    8  S   UNL     1      66.006   6.895   6.554  1.00  0.00    -0.100 SA
HETATM    9  C   UNL     1      66.481   6.345   4.100  1.00  0.00     0.021 A 
HETATM   10  C   UNL     1      67.294   5.827   6.212  1.00  0.00     0.050 A 
HETATM   11  C   UNL     1      67.435   5.607   4.862  1.00  0.00     0.008 A 
HETATM   12  C   UNL     1      63.580   6.604   2.511  1.00  0.00     0.178 C 
ENDROOT
BRANCH   6  13
HETATM   13  C   UNL     1      62.204  10.799   4.443  1.00  0.00     0.222 C 
BRANCH  13  14
HETATM   14  O   UNL     1      61.364  11.045   3.312  1.00  0.00    -0.395 OA
HETATM   15  H   UNL     1      60.798  10.273   3.155  1.00  0.00     0.209 HD
ENDBRANCH  13  14
ENDBRANCH   6  13
TORSDOF 2
ENDMDL
MODEL 4
REMARK VINA RESULT:      -4.2      3.406      3.952
REMARK  2 active torsions:
REMARK  status: ('A' for Active; 'I' for Inactive)
REMARK    1  A    between atoms: C_6  and  C_13 
REMARK    2  A    between atoms: C_13  and  O_14 
ROOT
HETATM    1  C   UNL     1      64.487   7.399   5.195  1.00  0.00     0.069 A 
HETATM    2  N   UNL     1      63.248   7.309   5.789  1.00  0.00    -0.295 N 
HETATM    3  N   UNL     1      62.669   8.512   6.013  1.00  0.00    -0.300 N 
ATOM      4  HN  UNL     1      61.751   8.701   6.414  1.00  0.00     0.187 HD
HETATM    5  C   UNL     1      64.728   8.757   5.083  1.00  0.00     0.061 A 
HETATM    6  C   UNL     1      63.580   9.398   5.588  1.00  0.00     0.051 A 
HETATM    7  C   UNL     1      65.340   6.308   4.802  1.00  0.00     0.033 A 
HETATM    8  S   UNL     1      67.052   6.442   4.920  1.00  0.00    -0.100 SA
HETATM    9  C   UNL     1      64.984   5.081   4.271  1.00  0.00     0.021 A 
HETATM   10  C   UNL     1      67.296   4.868   4.306  1.00  0.00     0.050 A 
HETATM   11  C   UNL     1      66.108   4.243   4.007  1.00  0.00     0.008 A 
HETATM   12  C   UNL     1      62.522   6.139   6.227  1.00  0.00     0.178 C 
ENDROOT
BRANCH   6  13
HETATM   13  C   UNL     1      63.307  10.863   5.687  1.00  0.00     0.222 C 
BRANCH  13  14
HETATM   14  O   UNL     1      64.323  11.545   6.426  1.00  0.00    -0.395 OA
HETATM   15  H   UNL     1      63.928  11.968   7.205  1.00  0.00     0.209 HD
ENDBRANCH  13  14
ENDBRANCH   6  13
TORSDOF 2
ENDMDL
MODEL 5
REMARK VINA RESULT:      -4.1      3.950      5.044
REMARK  2 active torsions:
REMARK  status: ('A' for Active; 'I' for Inactive)
REMARK    1  A    between atoms: C_6  and  C_13 
REMARK    2  A    between atoms: C_13  and  O_14 
ROOT
HETATM    1  C   UNL     1      65.552   7.019   6.057  1.00  0.00     0.069 A 
HETATM    2  N   UNL     1      66.895   7.232   5.844  1.00  0.00    -0.295 N 
HETATM    3  N   UNL     1      67.679   6.776   6.849  1.00  0.00    -0.300 N 
ATOM      4  HN  UNL     1      68.697   6.794   6.908  1.00  0.00     0.187 HD
HETATM    5  C   UNL     1      65.481   6.434   7.309  1.00  0.00     0.061 A 
HETATM    6  C   UNL     1      66.811   6.296   7.749  1.00  0.00     0.051 A 
HETATM    7  C   UNL     1      64.470   7.358   5.170  1.00  0.00     0.033 A 
HETATM    8  S   UNL     1      62.951   7.878   5.792  1.00  0.00    -0.100 SA
HETATM    9  C   UNL     1      64.435   7.299   3.789  1.00  0.00     0.021 A 
HETATM   10  C   UNL     1      62.285   8.054   4.230  1.00  0.00     0.050 A 
HETATM   11  C   UNL     1      63.185   7.721   3.246  1.00  0.00     0.008 A 
HETATM   12  C   UNL     1      67.557   7.890   4.742  1.00  0.00     0.178 C 
ENDROOT
BRANCH   6  13
HETATM   13  C   UNL     1      67.305   5.708   9.031  1.00  0.00     0.222 C 
BRANCH  13  14
HETATM   14  O   UNL     1      67.127   4.290   9.069  1.00  0.00    -0.395 OA
HETATM   15  H   UNL     1      66.223   4.070   8.796  1.00  0.00     0.209 HD
ENDBRANCH  13  14
ENDBRANCH   6  13
TORSDOF 2
ENDMDL
MODEL 6
REMARK VINA RESULT:      -4.0      3.131      3.943
REMARK  2 active torsions:
REMARK  status: ('A' for Active; 'I' for Inactive)
REMARK    1  A    between atoms: C_6  and  C_13 
REMARK    2  A    between atoms: C_13  and  O_14 
ROOT
HETATM    1  C   UNL     1      62.973   7.370   5.599  1.00  0.00     0.069 A 
HETATM    2  N   UNL     1      63.427   8.614   5.221  1.00  0.00    -0.295 N 
HETATM    3  N   UNL     1      64.736   8.818   5.503  1.00  0.00    -0.300 N 
ATOM      4  HN  UNL     1      65.300   9.643   5.298  1.00  0.00     0.187 HD
HETATM    5  C   UNL     1      64.060   6.767   6.208  1.00  0.00     0.061 A 
HETATM    6  C   UNL     1      65.119   7.690   6.115  1.00  0.00     0.051 A 
HETATM    7  C   UNL     1      61.649   6.838   5.412  1.00  0.00     0.033 A 
HETATM    8  S   UNL     1      60.946   5.792   6.585  1.00  0.00    -0.100 SA
HETATM    9  C   UNL     1      60.790   7.017   4.343  1.00  0.00     0.021 A 
HETATM   10  C   UNL     1      59.506   5.622   5.684  1.00  0.00     0.050 A 
HETATM   11  C   UNL     1      59.547   6.336   4.509  1.00  0.00     0.008 A 
HETATM   12  C   UNL     1      62.707   9.710   4.618  1.00  0.00     0.178 C 
ENDROOT
BRANCH   6  13
HETATM   13  C   UNL     1      66.524   7.538   6.600  1.00  0.00     0.222 C 
BRANCH  13  14
HETATM   14  O   UNL     1      67.104   8.796   6.953  1.00  0.00    -0.395 OA
HETATM   15  H   UNL     1      67.407   9.249   6.151  1.00  0.00     0.209 HD
ENDBRANCH  13  14
ENDBRANCH   6  13
TORSDOF 2
ENDMDL
MODEL 7
REMARK VINA RESULT:      -3.9      2.401      2.821
REMARK  2 active torsions:
REMARK  status: ('A' for Active; 'I' for Inactive)
REMARK    1  A    between atoms: C_6  and  C_13 
REMARK    2  A    between atoms: C_13  and  O_14 
ROOT
HETATM    1  C   UNL     1      63.878   7.644   4.240  1.00  0.00     0.069 A 
HETATM    2  N   UNL     1      64.598   8.271   5.232  1.00  0.00    -0.295 N 
HETATM    3  N   UNL     1      64.144   9.512   5.525  1.00  0.00    -0.300 N 
ATOM      4  HN  UNL     1      64.492  10.157   6.234  1.00  0.00     0.187 HD
HETATM    5  C   UNL     1      62.934   8.576   3.844  1.00  0.00     0.061 A 
HETATM    6  C   UNL     1      63.131   9.701   4.669  1.00  0.00     0.051 A 
HETATM    7  C   UNL     1      64.089   6.316   3.725  1.00  0.00     0.033 A 
HETATM    8  S   UNL     1      63.823   5.964   2.062  1.00  0.00    -0.100 SA
HETATM    9  C   UNL     1      64.469   5.175   4.409  1.00  0.00     0.021 A 
HETATM   10  C   UNL     1      64.249   4.323   2.261  1.00  0.00     0.050 A 
HETATM   11  C   UNL     1      64.584   4.033   3.562  1.00  0.00     0.008 A 
HETATM   12  C   UNL     1      65.762   7.811   5.954  1.00  0.00     0.178 C 
ENDROOT
BRANCH   6  13
HETATM   13  C   UNL     1      62.371  10.987   4.674  1.00  0.00     0.222 C 
BRANCH  13  14
HETATM   14  O   UNL     1      61.377  11.022   3.646  1.00  0.00    -0.395 OA
HETATM   15  H   UNL     1      60.754  10.290   3.773  1.00  0.00     0.209 HD
ENDBRANCH  13  14
ENDBRANCH   6  13
TORSDOF 2
ENDMDL
MODEL 8
REMARK VINA RESULT:      -3.9      2.255      2.847
REMARK  2 active torsions:
REMARK  status: ('A' for Active; 'I' for Inactive)
REMARK    1  A    between atoms: C_6  and  C_13 
REMARK    2  A    between atoms: C_13  and  O_14 
ROOT
HETATM    1  C   UNL     1      63.444   7.558   4.514  1.00  0.00     0.069 A 
HETATM    2  N   UNL     1      63.237   7.262   5.842  1.00  0.00    -0.295 N 
HETATM    3  N   UNL     1      64.359   7.344   6.594  1.00  0.00    -0.300 N 
ATOM      4  HN  UNL     1      64.453   7.197   7.599  1.00  0.00     0.187 HD
HETATM    5  C   UNL     1      64.804   7.795   4.412  1.00  0.00     0.061 A 
HETATM    6  C   UNL     1      65.319   7.663   5.716  1.00  0.00     0.051 A 
HETATM    7  C   UNL     1      62.454   7.589   3.469  1.00  0.00     0.033 A 
HETATM    8  S   UNL     1      62.848   7.096   1.868  1.00  0.00    -0.100 SA
HETATM    9  C   UNL     1      61.140   8.016   3.537  1.00  0.00     0.021 A 
HETATM   10  C   UNL     1      61.270   7.416   1.298  1.00  0.00     0.050 A 
HETATM   11  C   UNL     1      60.451   7.895   2.293  1.00  0.00     0.008 A 
HETATM   12  C   UNL     1      62.026   6.849   6.513  1.00  0.00     0.178 C 
ENDROOT
BRANCH   6  13
HETATM   13  C   UNL     1      66.731   7.831   6.173  1.00  0.00     0.222 C 
BRANCH  13  14
HETATM   14  O   UNL     1      66.873   8.937   7.067  1.00  0.00    -0.395 OA
HETATM   15  H   UNL     1      67.596   8.761   7.688  1.00  0.00     0.209 HD
ENDBRANCH  13  14
ENDBRANCH   6  13
TORSDOF 2
ENDMDL
MODEL 9
REMARK VINA RESULT:      -3.7     11.777     12.029
REMARK  2 active torsions:
REMARK  status: ('A' for Active; 'I' for Inactive)
REMARK    1  A    between atoms: C_6  and  C_13 
REMARK    2  A    between atoms: C_13  and  O_14 
ROOT
HETATM    1  C   UNL     1      57.674   2.146  11.797  1.00  0.00     0.069 A 
HETATM    2  N   UNL     1      58.197   1.839  13.034  1.00  0.00    -0.295 N 
HETATM    3  N   UNL     1      57.283   1.884  14.031  1.00  0.00    -0.300 N 
ATOM      4  HN  UNL     1      57.422   1.672  15.019  1.00  0.00     0.187 HD
HETATM    5  C   UNL     1      56.348   2.456  12.041  1.00  0.00     0.061 A 
HETATM    6  C   UNL     1      56.153   2.270  13.424  1.00  0.00     0.051 A 
HETATM    7  C   UNL     1      58.375   2.158  10.540  1.00  0.00     0.033 A 
HETATM    8  S   UNL     1      57.982   3.311   9.324  1.00  0.00    -0.100 SA
HETATM    9  C   UNL     1      59.370   1.305  10.098  1.00  0.00     0.021 A 
HETATM   10  C   UNL     1      59.156   2.693   8.249  1.00  0.00     0.050 A 
HETATM   11  C   UNL     1      59.836   1.627   8.789  1.00  0.00     0.008 A 
HETATM   12  C   UNL     1      59.557   1.522  13.403  1.00  0.00     0.178 C 
ENDROOT
BRANCH   6  13
HETATM   13  C   UNL     1      54.899   2.452  14.214  1.00  0.00     0.222 C 
BRANCH  13  14
HETATM   14  O   UNL     1      54.911   3.671  14.959  1.00  0.00    -0.395 OA
HETATM   15  H   UNL     1      54.582   4.394  14.403  1.00  0.00     0.209 HD
ENDBRANCH  13  14
ENDBRANCH   6  13
TORSDOF 2
ENDMDL
