MODEL 1
REMARK VINA RESULT:      -4.9      0.000      0.000
REMARK  2 active torsions:
REMARK  status: ('A' for Active; 'I' for Inactive)
REMARK    1  A    between atoms: C_3  and  C_8 
REMARK    2  A    between atoms: C_8  and  O_9 
ROOT
HETATM    1  C   UNL     1      64.128   9.053   5.038  1.00  0.00     0.117 A 
HETATM    2  C   UNL     1      63.899   8.124   3.994  1.00  0.00     0.109 A 
HETATM    3  C   UNL     1      63.201  10.070   5.066  1.00  0.00     0.042 A 
HETATM    4  S   UNL     1      62.039   9.866   3.813  1.00  0.00    -0.099 SA
HETATM    5  C   UNL     1      62.803   8.443   3.233  1.00  0.00     0.090 A 
HETATM    6  O   UNL     1      65.152   8.974   5.921  1.00  0.00    -0.345 OA
HETATM    7  O   UNL     1      64.675   7.046   3.739  1.00  0.00    -0.346 OA
HETATM    8  C   UNL     1      66.151   8.052   5.450  1.00  0.00     0.202 C 
HETATM    9  C   UNL     1      65.541   6.776   4.855  1.00  0.00     0.202 C 
ENDROOT
BRANCH   3  10
HETATM   10  C   UNL     1      63.120  11.234   5.994  1.00  0.00     0.213 C 
BRANCH  10  11
HETATM   11  O   UNL     1      64.441  11.530   6.436  1.00  0.00    -0.396 OA
HETATM   12  H   UNL     1      65.039  10.815   6.170  1.00  0.00     0.209 HD
ENDBRANCH  10  11
ENDBRANCH   3  10
TORSDOF 2
ENDMDL
MODEL 2
REMARK VINA RESULT:      -4.1      1.903      3.295
REMARK  2 active torsions:
REMARK  status: ('A' for Active; 'I' for Inactive)
REMARK    1  A    between atoms: C_3  and  C_8 
REMARK    2  A    between atoms: C_8  and  O_9 
ROOT
HETATM    1  C   UNL     1      64.057   9.028   4.837  1.00  0.00     0.117 A 
HETATM    2  C   UNL     1      63.011   8.827   3.904  1.00  0.00     0.109 A 
HETATM    3  C   UNL     1      64.951   7.982   4.876  1.00  0.00     0.042 A 
HETATM    4  S   UNL     1      64.506   6.762   3.747  1.00  0.00    -0.099 SA
HETATM    5  C   UNL     1      63.114   7.629   3.244  1.00  0.00     0.090 A 
HETATM    6  O   UNL     1      64.179  10.123   5.626  1.00  0.00    -0.345 OA
HETATM    7  O   UNL     1      61.996   9.695   3.687  1.00  0.00    -0.346 OA
HETATM    8  C   UNL     1      62.946  10.865   5.649  1.00  0.00     0.202 C 
HETATM    9  C   UNL     1      62.301  10.978   4.261  1.00  0.00     0.202 C 
ENDROOT
BRANCH   3  10
HETATM   10  C   UNL     1      66.159   7.819   5.734  1.00  0.00     0.213 C 
BRANCH  10  11
HETATM   11  O   UNL     1      66.267   8.974   6.560  1.00  0.00    -0.396 OA
HETATM   12  H   UNL     1      65.470   9.519   6.459  1.00  0.00     0.209 HD
ENDBRANCH  10  11
ENDBRANCH   3  10
TORSDOF 2
ENDMDL
MODEL 3
REMARK VINA RESULT:      -3.9      2.089      3.236
REMARK  2 active torsions:
REMARK  status: ('A' for Active; 'I' for Inactive)
REMARK    1  A    between atoms: C_3  and  C_8 
REMARK    2  A    between atoms: C_8  and  O_9 
ROOT
HETATM    1  C   UNL     1      62.763   9.351   3.526  1.00  0.00     0.117 A 
HETATM    2  C   UNL     1      63.194   8.090   3.050  1.00  0.00     0.109 A 
HETATM    3  C   UNL     1      63.261   9.654   4.773  1.00  0.00     0.042 A 
HETATM    4  S   UNL     1      64.275   8.387   5.345  1.00  0.00    -0.099 SA
HETATM    5  C   UNL     1      64.013   7.440   3.938  1.00  0.00     0.090 A 
HETATM    6  O   UNL     1      61.938  10.185   2.847  1.00  0.00    -0.345 OA
HETATM    7  O   UNL     1      62.833   7.551   1.863  1.00  0.00    -0.346 OA
HETATM    8  C   UNL     1      61.291   9.483   1.771  1.00  0.00     0.202 C 
HETATM    9  C   UNL     1      62.249   8.554   1.013  1.00  0.00     0.202 C 
ENDROOT
BRANCH   3  10
HETATM   10  C   UNL     1      63.020  10.867   5.605  1.00  0.00     0.213 C 
BRANCH  10  11
HETATM   11  O   UNL     1      64.267  11.265   6.166  1.00  0.00    -0.396 OA
HETATM   12  H   UNL     1      64.109  11.861   6.915  1.00  0.00     0.209 HD
ENDBRANCH  10  11
ENDBRANCH   3  10
TORSDOF 2
ENDMDL
MODEL 4
REMARK VINA RESULT:      -3.9      2.418      4.117
REMARK  2 active torsions:
REMARK  status: ('A' for Active; 'I' for Inactive)
REMARK    1  A    between atoms: C_3  and  C_8 
REMARK    2  A    between atoms: C_8  and  O_9 
ROOT
HETATM    1  C   UNL     1      62.357   9.281   3.921  1.00  0.00     0.117 A 
HETATM    2  C   UNL     1      63.561   9.145   4.654  1.00  0.00     0.109 A 
HETATM    3  C   UNL     1      62.088   8.194   3.121  1.00  0.00     0.042 A 
HETATM    4  S   UNL     1      63.314   6.998   3.291  1.00  0.00    -0.099 SA
HETATM    5  C   UNL     1      64.201   7.957   4.404  1.00  0.00     0.090 A 
HETATM    6  O   UNL     1      61.545  10.364   3.978  1.00  0.00    -0.345 OA
HETATM    7  O   UNL     1      64.059  10.078   5.497  1.00  0.00    -0.346 OA
HETATM    8  C   UNL     1      62.231  11.474   4.586  1.00  0.00     0.202 C 
HETATM    9  C   UNL     1      63.054  11.057   5.812  1.00  0.00     0.202 C 
ENDROOT
BRANCH   3  10
HETATM   10  C   UNL     1      60.939   7.976   2.198  1.00  0.00     0.213 C 
BRANCH  10  11
HETATM   11  O   UNL     1      60.700   9.196   1.504  1.00  0.00    -0.396 OA
HETATM   12  H   UNL     1      61.541   9.660   1.367  1.00  0.00     0.209 HD
ENDBRANCH  10  11
ENDBRANCH   3  10
TORSDOF 2
ENDMDL
MODEL 5
REMARK VINA RESULT:      -3.8      2.381      3.698
REMARK  2 active torsions:
REMARK  status: ('A' for Active; 'I' for Inactive)
REMARK    1  A    between atoms: C_3  and  C_8 
REMARK    2  A    between atoms: C_8  and  O_9 
ROOT
HETATM    1  C   UNL     1      62.956   9.160   3.625  1.00  0.00     0.117 A 
HETATM    2  C   UNL     1      62.404   8.908   2.346  1.00  0.00     0.109 A 
HETATM    3  C   UNL     1      63.625   8.076   4.146  1.00  0.00     0.042 A 
HETATM    4  S   UNL     1      63.584   6.753   3.046  1.00  0.00    -0.099 SA
HETATM    5  C   UNL     1      62.652   7.633   1.905  1.00  0.00     0.090 A 
HETATM    6  O   UNL     1      62.842  10.336   4.290  1.00  0.00    -0.345 OA
HETATM    7  O   UNL     1      61.685   9.801   1.628  1.00  0.00    -0.346 OA
HETATM    8  C   UNL     1      61.811  11.147   3.699  1.00  0.00     0.202 C 
HETATM    9  C   UNL     1      61.849  11.125   2.165  1.00  0.00     0.202 C 
ENDROOT
BRANCH   3  10
HETATM   10  C   UNL     1      64.315   7.949   5.461  1.00  0.00     0.213 C 
BRANCH  10  11
HETATM   11  O   UNL     1      65.087   9.127   5.664  1.00  0.00    -0.396 OA
HETATM   12  H   UNL     1      64.806   9.810   5.035  1.00  0.00     0.209 HD
ENDBRANCH  10  11
ENDBRANCH   3  10
TORSDOF 2
ENDMDL
MODEL 6
REMARK VINA RESULT:      -3.7      3.075      4.471
REMARK  2 active torsions:
REMARK  status: ('A' for Active; 'I' for Inactive)
REMARK    1  A    between atoms: C_3  and  C_8 
REMARK    2  A    between atoms: C_8  and  O_9 
ROOT
HETATM    1  C   UNL     1      65.220   7.182   6.446  1.00  0.00     0.117 A 
HETATM    2  C   UNL     1      65.386   7.678   5.131  1.00  0.00     0.109 A 
HETATM    3  C   UNL     1      66.389   6.700   6.991  1.00  0.00     0.042 A 
HETATM    4  S   UNL     1      67.692   6.878   5.882  1.00  0.00    -0.099 SA
HETATM    5  C   UNL     1      66.677   7.567   4.682  1.00  0.00     0.090 A 
HETATM    6  O   UNL     1      64.042   7.164   7.115  1.00  0.00    -0.345 OA
HETATM    7  O   UNL     1      64.391   8.189   4.370  1.00  0.00    -0.346 OA
HETATM    8  C   UNL     1      62.946   7.377   6.207  1.00  0.00     0.202 C 
HETATM    9  C   UNL     1      63.238   8.479   5.180  1.00  0.00     0.202 C 
ENDROOT
BRANCH   3  10
HETATM   10  C   UNL     1      66.611   6.086   8.330  1.00  0.00     0.213 C 
BRANCH  10  11
HETATM   11  O   UNL     1      65.828   4.899   8.401  1.00  0.00    -0.396 OA
HETATM   12  H   UNL     1      64.905   5.131   8.590  1.00  0.00     0.209 HD
ENDBRANCH  10  11
ENDBRANCH   3  10
TORSDOF 2
ENDMDL
MODEL 7
REMARK VINA RESULT:      -3.6      1.992      2.351
REMARK  2 active torsions:
REMARK  status: ('A' for Active; 'I' for Inactive)
REMARK    1  A    between atoms: C_3  and  C_8 
REMARK    2  A    between atoms: C_8  and  O_9 
ROOT
HETATM    1  C   UNL     1      62.792   9.249   3.511  1.00  0.00     0.117 A 
HETATM    2  C   UNL     1      62.939   7.924   3.034  1.00  0.00     0.109 A 
HETATM    3  C   UNL     1      62.109  10.064   2.637  1.00  0.00     0.042 A 
HETATM    4  S   UNL     1      61.635   9.186   1.235  1.00  0.00    -0.099 SA
HETATM    5  C   UNL     1      62.370   7.741   1.799  1.00  0.00     0.090 A 
HETATM    6  O   UNL     1      63.275   9.693   4.697  1.00  0.00    -0.345 OA
HETATM    7  O   UNL     1      63.584   6.935   3.693  1.00  0.00    -0.346 OA
HETATM    8  C   UNL     1      64.237   8.764   5.227  1.00  0.00     0.202 C 
HETATM    9  C   UNL     1      63.795   7.303   5.068  1.00  0.00     0.202 C 
ENDROOT
BRANCH   3  10
HETATM   10  C   UNL     1      61.777  11.510   2.775  1.00  0.00     0.213 C 
BRANCH  10  11
HETATM   11  O   UNL     1      62.103  11.908   4.102  1.00  0.00    -0.396 OA
HETATM   12  H   UNL     1      62.872  11.404   4.411  1.00  0.00     0.209 HD
ENDBRANCH  10  11
ENDBRANCH   3  10
TORSDOF 2
ENDMDL
MODEL 8
REMARK VINA RESULT:      -3.6      2.847      3.645
REMARK  2 active torsions:
REMARK  status: ('A' for Active; 'I' for Inactive)
REMARK    1  A    between atoms: C_3  and  C_8 
REMARK    2  A    between atoms: C_8  and  O_9 
ROOT
HETATM    1  C   UNL     1      65.196   6.670   6.378  1.00  0.00     0.117 A 
HETATM    2  C   UNL     1      66.233   5.894   5.805  1.00  0.00     0.109 A 
HETATM    3  C   UNL     1      64.331   7.187   5.440  1.00  0.00     0.042 A 
HETATM    4  S   UNL     1      64.791   6.698   3.856  1.00  0.00    -0.099 SA
HETATM    5  C   UNL     1      66.151   5.830   4.437  1.00  0.00     0.090 A 
HETATM    6  O   UNL     1      65.057   6.901   7.705  1.00  0.00    -0.345 OA
HETATM    7  O   UNL     1      67.220   5.292   6.506  1.00  0.00    -0.346 OA
HETATM    8  C   UNL     1      66.269   6.564   8.403  1.00  0.00     0.202 C 
HETATM    9  C   UNL     1      66.889   5.252   7.905  1.00  0.00     0.202 C 
ENDROOT
BRANCH   3  10
HETATM   10  C   UNL     1      63.141   8.061   5.650  1.00  0.00     0.213 C 
BRANCH  10  11
HETATM   11  O   UNL     1      62.610   7.771   6.938  1.00  0.00    -0.396 OA
HETATM   12  H   UNL     1      63.302   7.378   7.493  1.00  0.00     0.209 HD
ENDBRANCH  10  11
ENDBRANCH   3  10
TORSDOF 2
ENDMDL
MODEL 9
REMARK VINA RESULT:      -3.3      2.350      3.462
REMARK  2 active torsions:
REMARK  status: ('A' for Active; 'I' for Inactive)
REMARK    1  A    between atoms: C_3  and  C_8 
REMARK    2  A    between atoms: C_8  and  O_9 
ROOT
HETATM    1  C   UNL     1      64.259   7.120   6.096  1.00  0.00     0.117 A 
HETATM    2  C   UNL     1      64.794   8.226   5.393  1.00  0.00     0.109 A 
HETATM    3  C   UNL     1      62.939   6.877   5.793  1.00  0.00     0.042 A 
HETATM    4  S   UNL     1      62.367   8.006   4.627  1.00  0.00    -0.099 SA
HETATM    5  C   UNL     1      63.876   8.820   4.564  1.00  0.00     0.090 A 
HETATM    6  O   UNL     1      64.953   6.370   6.986  1.00  0.00    -0.345 OA
HETATM    7  O   UNL     1      66.060   8.683   5.525  1.00  0.00    -0.346 OA
HETATM    8  C   UNL     1      66.160   7.048   7.379  1.00  0.00     0.202 C 
HETATM    9  C   UNL     1      66.878   7.707   6.194  1.00  0.00     0.202 C 
ENDROOT
BRANCH   3  10
HETATM   10  C   UNL     1      62.034   5.825   6.337  1.00  0.00     0.213 C 
BRANCH  10  11
HETATM   11  O   UNL     1      62.773   4.610   6.409  1.00  0.00    -0.396 OA
HETATM   12  H   UNL     1      63.027   4.440   7.330  1.00  0.00     0.209 HD
ENDBRANCH  10  11
ENDBRANCH   3  10
TORSDOF 2
ENDMDL
