MODEL 1
REMARK VINA RESULT:      -5.8      0.000      0.000
REMARK  3 active torsions:
REMARK  status: ('A' for Active; 'I' for Inactive)
REMARK    1  A    between atoms: N_1  and  C_4 
REMARK    2  A    between atoms: C_2  and  C_4 
REMARK    3  A    between atoms: C_5  and  N_10 
ROOT
HETATM    1  C   UNL     1      63.432   7.903   5.507  1.00  0.00     0.275 C 
ENDROOT
BRANCH   1   2
HETATM    2  N   UNL     1      64.827   8.054   6.004  1.00  0.00    -0.064 N 
HETATM    3  C   UNL     1      65.119   7.067   7.067  1.00  0.00     0.263 C 
HETATM    4  C   UNL     1      66.598   7.086   7.527  1.00  0.00     0.262 C 
HETATM    5  N   UNL     1      67.592   6.932   6.449  1.00  0.00    -0.072 N 
HETATM    6  C   UNL     1      67.285   7.913   5.391  1.00  0.00     0.262 C 
HETATM    7  C   UNL     1      67.625   5.568   5.922  1.00  0.00     0.269 C 
HETATM    8  H   UNL     1      68.524   7.109   6.824  1.00  0.00     0.279 HD
HETATM    9  C   UNL     1      65.812   7.908   4.910  1.00  0.00     0.263 C 
HETATM   10  H   UNL     1      64.906   8.995   6.390  1.00  0.00     0.280 HD
ENDBRANCH   1   2
BRANCH   1  11
HETATM   11  C   UNL     1      63.011   9.011   4.543  1.00  0.00    -0.006 A 
HETATM   12  C   UNL     1      62.711  10.320   4.964  1.00  0.00     0.033 A 
HETATM   13  C   UNL     1      62.106  11.215   4.060  1.00  0.00     0.029 A 
HETATM   14  C   UNL     1      61.862  10.845   2.736  1.00  0.00     0.002 A 
HETATM   15  C   UNL     1      62.246   9.591   2.291  1.00  0.00     0.001 A 
HETATM   16  C   UNL     1      62.806   8.675   3.188  1.00  0.00     0.011 A 
BRANCH  12  17
HETATM   17  N   UNL     1      63.095  10.834   6.214  1.00  0.00    -0.399 N 
HETATM   18  H   UNL     1      63.128  10.243   7.000  1.00  0.00     0.156 HD
HETATM   19  H   UNL     1      63.332  11.785   6.303  1.00  0.00     0.156 HD
ENDBRANCH  12  17
ENDBRANCH   1  11
TORSDOF 3
ENDMDL
MODEL 2
REMARK VINA RESULT:      -5.2      1.285      1.862
REMARK  3 active torsions:
REMARK  status: ('A' for Active; 'I' for Inactive)
REMARK    1  A    between atoms: N_1  and  C_4 
REMARK    2  A    between atoms: C_2  and  C_4 
REMARK    3  A    between atoms: C_5  and  N_10 
ROOT
HETATM    1  C   UNL     1      63.630   7.463   4.880  1.00  0.00     0.275 C 
ENDROOT
BRANCH   1   2
HETATM    2  N   UNL     1      64.902   7.783   5.584  1.00  0.00    -0.064 N 
HETATM    3  C   UNL     1      65.066   6.938   6.788  1.00  0.00     0.263 C 
HETATM    4  C   UNL     1      66.437   7.131   7.485  1.00  0.00     0.262 C 
HETATM    5  N   UNL     1      67.613   6.953   6.615  1.00  0.00    -0.072 N 
HETATM    6  C   UNL     1      67.434   7.790   5.414  1.00  0.00     0.262 C 
HETATM    7  C   UNL     1      67.829   5.550   6.262  1.00  0.00     0.269 C 
HETATM    8  H   UNL     1      68.450   7.247   7.118  1.00  0.00     0.279 HD
HETATM    9  C   UNL     1      66.072   7.610   4.696  1.00  0.00     0.263 C 
HETATM   10  H   UNL     1      64.849   8.761   5.866  1.00  0.00     0.280 HD
ENDBRANCH   1   2
BRANCH   1  11
HETATM   11  C   UNL     1      62.915   8.697   4.332  1.00  0.00    -0.006 A 
HETATM   12  C   UNL     1      62.385   8.759   3.029  1.00  0.00     0.033 A 
HETATM   13  C   UNL     1      61.955   9.999   2.518  1.00  0.00     0.029 A 
HETATM   14  C   UNL     1      61.984  11.151   3.306  1.00  0.00     0.002 A 
HETATM   15  C   UNL     1      62.412  11.075   4.621  1.00  0.00     0.001 A 
HETATM   16  C   UNL     1      62.885   9.860   5.129  1.00  0.00     0.011 A 
BRANCH  12  17
HETATM   17  N   UNL     1      62.142   7.622   2.241  1.00  0.00    -0.399 N 
HETATM   18  H   UNL     1      61.283   7.523   1.772  1.00  0.00     0.156 HD
HETATM   19  H   UNL     1      62.831   6.925   2.158  1.00  0.00     0.156 HD
ENDBRANCH  12  17
ENDBRANCH   1  11
TORSDOF 3
ENDMDL
MODEL 3
REMARK VINA RESULT:      -5.1      1.304      1.989
REMARK  3 active torsions:
REMARK  status: ('A' for Active; 'I' for Inactive)
REMARK    1  A    between atoms: N_1  and  C_4 
REMARK    2  A    between atoms: C_2  and  C_4 
REMARK    3  A    between atoms: C_5  and  N_10 
ROOT
HETATM    1  C   UNL     1      65.165   8.462   5.743  1.00  0.00     0.275 C 
ENDROOT
BRANCH   1   2
HETATM    2  N   UNL     1      65.457   7.010   5.598  1.00  0.00    -0.064 N 
HETATM    3  C   UNL     1      66.844   6.794   5.127  1.00  0.00     0.263 C 
HETATM    4  C   UNL     1      67.248   5.299   5.089  1.00  0.00     0.262 C 
HETATM    5  N   UNL     1      67.055   4.564   6.353  1.00  0.00    -0.072 N 
HETATM    6  C   UNL     1      65.675   4.795   6.818  1.00  0.00     0.262 C 
HETATM    7  C   UNL     1      68.034   4.951   7.369  1.00  0.00     0.269 C 
HETATM    8  H   UNL     1      67.202   3.569   6.188  1.00  0.00     0.279 HD
HETATM    9  C   UNL     1      65.249   6.284   6.870  1.00  0.00     0.263 C 
HETATM   10  H   UNL     1      64.807   6.642   4.903  1.00  0.00     0.280 HD
ENDBRANCH   1   2
BRANCH   1  11
HETATM   11  C   UNL     1      64.036   8.945   4.834  1.00  0.00    -0.006 A 
HETATM   12  C   UNL     1      63.282  10.104   5.100  1.00  0.00     0.033 A 
HETATM   13  C   UNL     1      62.115  10.353   4.352  1.00  0.00     0.029 A 
HETATM   14  C   UNL     1      61.733   9.507   3.310  1.00  0.00     0.002 A 
HETATM   15  C   UNL     1      62.526   8.420   2.981  1.00  0.00     0.001 A 
HETATM   16  C   UNL     1      63.663   8.133   3.743  1.00  0.00     0.011 A 
BRANCH  12  17
HETATM   17  N   UNL     1      63.696  11.104   5.995  1.00  0.00    -0.399 N 
HETATM   18  H   UNL     1      64.414  10.919   6.642  1.00  0.00     0.156 HD
HETATM   19  H   UNL     1      63.267  11.989   5.976  1.00  0.00     0.156 HD
ENDBRANCH  12  17
ENDBRANCH   1  11
TORSDOF 3
ENDMDL
MODEL 4
REMARK VINA RESULT:      -4.9      3.166      4.495
REMARK  3 active torsions:
REMARK  status: ('A' for Active; 'I' for Inactive)
REMARK    1  A    between atoms: N_1  and  C_4 
REMARK    2  A    between atoms: C_2  and  C_4 
REMARK    3  A    between atoms: C_5  and  N_10 
ROOT
HETATM    1  C   UNL     1      62.605   7.508   4.172  1.00  0.00     0.275 C 
ENDROOT
BRANCH   1   2
HETATM    2  N   UNL     1      61.407   7.051   4.926  1.00  0.00    -0.064 N 
HETATM    3  C   UNL     1      60.633   6.062   4.142  1.00  0.00     0.263 C 
HETATM    4  C   UNL     1      59.450   5.449   4.931  1.00  0.00     0.262 C 
HETATM    5  N   UNL     1      59.806   4.851   6.231  1.00  0.00    -0.072 N 
HETATM    6  C   UNL     1      60.584   5.840   7.000  1.00  0.00     0.262 C 
HETATM    7  C   UNL     1      60.540   3.595   6.076  1.00  0.00     0.269 C 
HETATM    8  H   UNL     1      58.952   4.615   6.737  1.00  0.00     0.279 HD
HETATM    9  C   UNL     1      61.778   6.464   6.232  1.00  0.00     0.263 C 
HETATM   10  H   UNL     1      60.827   7.873   5.092  1.00  0.00     0.280 HD
ENDBRANCH   1   2
BRANCH   1  11
HETATM   11  C   UNL     1      62.459   8.918   3.600  1.00  0.00    -0.006 A 
HETATM   12  C   UNL     1      62.458  10.074   4.402  1.00  0.00     0.033 A 
HETATM   13  C   UNL     1      62.085  11.307   3.834  1.00  0.00     0.029 A 
HETATM   14  C   UNL     1      61.781  11.412   2.476  1.00  0.00     0.002 A 
HETATM   15  C   UNL     1      61.875  10.295   1.663  1.00  0.00     0.001 A 
HETATM   16  C   UNL     1      62.201   9.054   2.220  1.00  0.00     0.011 A 
BRANCH  12  17
HETATM   17  N   UNL     1      62.933  10.095   5.724  1.00  0.00    -0.399 N 
HETATM   18  H   UNL     1      62.668  10.823   6.331  1.00  0.00     0.156 HD
HETATM   19  H   UNL     1      63.531   9.381   6.043  1.00  0.00     0.156 HD
ENDBRANCH  12  17
ENDBRANCH   1  11
TORSDOF 3
ENDMDL
MODEL 5
REMARK VINA RESULT:      -4.5      2.016      3.146
REMARK  3 active torsions:
REMARK  status: ('A' for Active; 'I' for Inactive)
REMARK    1  A    between atoms: N_1  and  C_4 
REMARK    2  A    between atoms: C_2  and  C_4 
REMARK    3  A    between atoms: C_5  and  N_10 
ROOT
HETATM    1  C   UNL     1      64.497   8.386   5.771  1.00  0.00     0.275 C 
ENDROOT
BRANCH   1   2
HETATM    2  N   UNL     1      63.769   7.235   6.370  1.00  0.00    -0.064 N 
HETATM    3  C   UNL     1      62.315   7.337   6.113  1.00  0.00     0.263 C 
HETATM    4  C   UNL     1      61.522   6.097   6.595  1.00  0.00     0.262 C 
HETATM    5  N   UNL     1      62.006   4.803   6.079  1.00  0.00    -0.072 N 
HETATM    6  C   UNL     1      63.457   4.717   6.331  1.00  0.00     0.262 C 
HETATM    7  C   UNL     1      61.697   4.627   4.660  1.00  0.00     0.269 C 
HETATM    8  H   UNL     1      61.526   4.047   6.566  1.00  0.00     0.279 HD
HETATM    9  C   UNL     1      64.272   5.944   5.851  1.00  0.00     0.263 C 
HETATM   10  H   UNL     1      63.934   7.268   7.376  1.00  0.00     0.280 HD
ENDBRANCH   1   2
BRANCH   1  11
HETATM   11  C   UNL     1      63.644   9.202   4.801  1.00  0.00    -0.006 A 
HETATM   12  C   UNL     1      63.128  10.473   5.117  1.00  0.00     0.033 A 
HETATM   13  C   UNL     1      62.165  11.056   4.272  1.00  0.00     0.029 A 
HETATM   14  C   UNL     1      61.764  10.425   3.093  1.00  0.00     0.002 A 
HETATM   15  C   UNL     1      62.343   9.221   2.728  1.00  0.00     0.001 A 
HETATM   16  C   UNL     1      63.268   8.606   3.579  1.00  0.00     0.011 A 
BRANCH  12  17
HETATM   17  N   UNL     1      63.613  11.260   6.175  1.00  0.00    -0.399 N 
HETATM   18  H   UNL     1      63.343  12.203   6.251  1.00  0.00     0.156 HD
HETATM   19  H   UNL     1      64.224  10.868   6.840  1.00  0.00     0.156 HD
ENDBRANCH  12  17
ENDBRANCH   1  11
TORSDOF 3
ENDMDL
MODEL 6
REMARK VINA RESULT:      -4.2      3.961      5.459
REMARK  3 active torsions:
REMARK  status: ('A' for Active; 'I' for Inactive)
REMARK    1  A    between atoms: N_1  and  C_4 
REMARK    2  A    between atoms: C_2  and  C_4 
REMARK    3  A    between atoms: C_5  and  N_10 
ROOT
HETATM    1  C   UNL     1      61.929   6.903   4.093  1.00  0.00     0.275 C 
ENDROOT
BRANCH   1   2
HETATM    2  N   UNL     1      60.838   6.793   5.100  1.00  0.00    -0.064 N 
HETATM    3  C   UNL     1      59.658   6.108   4.528  1.00  0.00     0.263 C 
HETATM    4  C   UNL     1      58.542   5.843   5.571  1.00  0.00     0.262 C 
HETATM    5  N   UNL     1      58.974   5.119   6.781  1.00  0.00    -0.072 N 
HETATM    6  C   UNL     1      60.157   5.804   7.335  1.00  0.00     0.262 C 
HETATM    7  C   UNL     1      59.251   3.709   6.507  1.00  0.00     0.269 C 
HETATM    8  H   UNL     1      58.218   5.128   7.464  1.00  0.00     0.279 HD
HETATM    9  C   UNL     1      61.289   6.074   6.312  1.00  0.00     0.263 C 
HETATM   10  H   UNL     1      60.578   7.744   5.363  1.00  0.00     0.280 HD
ENDBRANCH   1   2
BRANCH   1  11
HETATM   11  C   UNL     1      61.832   8.161   3.231  1.00  0.00    -0.006 A 
HETATM   12  C   UNL     1      61.920   8.136   1.827  1.00  0.00     0.033 A 
HETATM   13  C   UNL     1      62.059   9.347   1.122  1.00  0.00     0.029 A 
HETATM   14  C   UNL     1      62.044  10.574   1.789  1.00  0.00     0.002 A 
HETATM   15  C   UNL     1      61.859  10.607   3.161  1.00  0.00     0.001 A 
HETATM   16  C   UNL     1      61.764   9.411   3.881  1.00  0.00     0.011 A 
BRANCH  12  17
HETATM   17  N   UNL     1      61.751   6.968   1.065  1.00  0.00    -0.399 N 
HETATM   18  H   UNL     1      62.449   6.273   1.068  1.00  0.00     0.156 HD
HETATM   19  H   UNL     1      60.936   6.843   0.529  1.00  0.00     0.156 HD
ENDBRANCH  12  17
ENDBRANCH   1  11
TORSDOF 3
ENDMDL
MODEL 7
REMARK VINA RESULT:      -4.2      3.747      5.238
REMARK  3 active torsions:
REMARK  status: ('A' for Active; 'I' for Inactive)
REMARK    1  A    between atoms: N_1  and  C_4 
REMARK    2  A    between atoms: C_2  and  C_4 
REMARK    3  A    between atoms: C_5  and  N_10 
ROOT
HETATM    1  C   UNL     1      61.765   6.650   4.443  1.00  0.00     0.275 C 
ENDROOT
BRANCH   1   2
HETATM    2  N   UNL     1      60.643   6.375   5.381  1.00  0.00    -0.064 N 
HETATM    3  C   UNL     1      59.585   5.578   4.721  1.00  0.00     0.263 C 
HETATM    4  C   UNL     1      58.455   5.144   5.688  1.00  0.00     0.262 C 
HETATM    5  N   UNL     1      58.905   4.430   6.897  1.00  0.00    -0.072 N 
HETATM    6  C   UNL     1      59.965   5.228   7.541  1.00  0.00     0.262 C 
HETATM    7  C   UNL     1      59.362   3.073   6.596  1.00  0.00     0.269 C 
HETATM    8  H   UNL     1      58.117   4.324   7.536  1.00  0.00     0.279 HD
HETATM    9  C   UNL     1      61.110   5.668   6.593  1.00  0.00     0.263 C 
HETATM   10  H   UNL     1      60.258   7.277   5.658  1.00  0.00     0.280 HD
ENDBRANCH   1   2
BRANCH   1  11
HETATM   11  C   UNL     1      62.123   8.133   4.347  1.00  0.00    -0.006 A 
HETATM   12  C   UNL     1      62.920   8.791   5.302  1.00  0.00     0.033 A 
HETATM   13  C   UNL     1      63.010  10.196   5.274  1.00  0.00     0.029 A 
HETATM   14  C   UNL     1      62.378  10.939   4.275  1.00  0.00     0.002 A 
HETATM   15  C   UNL     1      61.674  10.287   3.276  1.00  0.00     0.001 A 
HETATM   16  C   UNL     1      61.537   8.896   3.315  1.00  0.00     0.011 A 
BRANCH  12  17
HETATM   17  N   UNL     1      63.740   8.114   6.220  1.00  0.00    -0.399 N 
HETATM   18  H   UNL     1      64.155   7.258   5.970  1.00  0.00     0.156 HD
HETATM   19  H   UNL     1      63.899   8.496   7.113  1.00  0.00     0.156 HD
ENDBRANCH  12  17
ENDBRANCH   1  11
TORSDOF 3
ENDMDL
MODEL 8
REMARK VINA RESULT:      -4.0      3.813      4.455
REMARK  3 active torsions:
REMARK  status: ('A' for Active; 'I' for Inactive)
REMARK    1  A    between atoms: N_1  and  C_4 
REMARK    2  A    between atoms: C_2  and  C_4 
REMARK    3  A    between atoms: C_5  and  N_10 
ROOT
HETATM    1  C   UNL     1      61.213   6.279   4.210  1.00  0.00     0.275 C 
ENDROOT
BRANCH   1   2
HETATM    2  N   UNL     1      62.103   7.087   5.087  1.00  0.00    -0.064 N 
HETATM    3  C   UNL     1      63.127   6.234   5.731  1.00  0.00     0.263 C 
HETATM    4  C   UNL     1      64.166   7.042   6.548  1.00  0.00     0.262 C 
HETATM    5  N   UNL     1      64.843   8.122   5.808  1.00  0.00    -0.072 N 
HETATM    6  C   UNL     1      63.815   8.959   5.162  1.00  0.00     0.262 C 
HETATM    7  C   UNL     1      65.802   7.603   4.832  1.00  0.00     0.269 C 
HETATM    8  H   UNL     1      65.387   8.687   6.461  1.00  0.00     0.279 HD
HETATM    9  C   UNL     1      62.767   8.173   4.333  1.00  0.00     0.263 C 
HETATM   10  H   UNL     1      61.513   7.504   5.807  1.00  0.00     0.280 HD
ENDBRANCH   1   2
BRANCH   1  11
HETATM   11  C   UNL     1      59.727   6.495   4.491  1.00  0.00    -0.006 A 
HETATM   12  C   UNL     1      58.941   7.426   3.785  1.00  0.00     0.033 A 
HETATM   13  C   UNL     1      57.651   7.736   4.255  1.00  0.00     0.029 A 
HETATM   14  C   UNL     1      57.114   7.087   5.369  1.00  0.00     0.002 A 
HETATM   15  C   UNL     1      57.846   6.100   6.007  1.00  0.00     0.001 A 
HETATM   16  C   UNL     1      59.147   5.812   5.580  1.00  0.00     0.011 A 
BRANCH  12  17
HETATM   17  N   UNL     1      59.325   7.981   2.553  1.00  0.00    -0.399 N 
HETATM   18  H   UNL     1      59.310   8.957   2.427  1.00  0.00     0.156 HD
HETATM   19  H   UNL     1      59.610   7.394   1.816  1.00  0.00     0.156 HD
ENDBRANCH  12  17
ENDBRANCH   1  11
TORSDOF 3
ENDMDL
MODEL 9
REMARK VINA RESULT:      -4.0      4.091      5.257
REMARK  3 active torsions:
REMARK  status: ('A' for Active; 'I' for Inactive)
REMARK    1  A    between atoms: N_1  and  C_4 
REMARK    2  A    between atoms: C_2  and  C_4 
REMARK    3  A    between atoms: C_5  and  N_10 
ROOT
HETATM    1  C   UNL     1      60.803   7.978   2.541  1.00  0.00     0.275 C 
ENDROOT
BRANCH   1   2
HETATM    2  N   UNL     1      61.323   8.379   3.876  1.00  0.00    -0.064 N 
HETATM    3  C   UNL     1      62.081   7.273   4.503  1.00  0.00     0.263 C 
HETATM    4  C   UNL     1      62.762   7.678   5.834  1.00  0.00     0.262 C 
HETATM    5  N   UNL     1      63.632   8.866   5.757  1.00  0.00    -0.072 N 
HETATM    6  C   UNL     1      62.872   9.958   5.121  1.00  0.00     0.262 C 
HETATM    7  C   UNL     1      64.876   8.590   5.038  1.00  0.00     0.269 C 
HETATM    8  H   UNL     1      63.909   9.141   6.699  1.00  0.00     0.279 HD
HETATM    9  C   UNL     1      62.185   9.578   3.785  1.00  0.00     0.263 C 
HETATM   10  H   UNL     1      60.515   8.603   4.457  1.00  0.00     0.280 HD
ENDBRANCH   1   2
BRANCH   1  11
HETATM   11  C   UNL     1      59.368   7.453   2.584  1.00  0.00    -0.006 A 
HETATM   12  C   UNL     1      58.660   7.065   1.432  1.00  0.00     0.033 A 
HETATM   13  C   UNL     1      57.276   6.819   1.522  1.00  0.00     0.029 A 
HETATM   14  C   UNL     1      56.611   6.890   2.748  1.00  0.00     0.002 A 
HETATM   15  C   UNL     1      57.323   7.176   3.901  1.00  0.00     0.001 A 
HETATM   16  C   UNL     1      58.689   7.466   3.821  1.00  0.00     0.011 A 
BRANCH  12  17
HETATM   17  N   UNL     1      59.281   6.784   0.204  1.00  0.00    -0.399 N 
HETATM   18  H   UNL     1      59.773   5.940   0.083  1.00  0.00     0.156 HD
HETATM   19  H   UNL     1      59.226   7.430  -0.535  1.00  0.00     0.156 HD
ENDBRANCH  12  17
ENDBRANCH   1  11
TORSDOF 3
ENDMDL
