MODEL 1
REMARK VINA RESULT:      -5.2      0.000      0.000
REMARK  3 active torsions:
REMARK  status: ('A' for Active; 'I' for Inactive)
REMARK    1  A    between atoms: C_1  and  C_2 
REMARK    2  A    between atoms: C_8  and  C_12 
REMARK    3  A    between atoms: N_9  and  C_12 
ROOT
HETATM    1  C   UNL     1      63.408   9.062   4.593  1.00  0.00    -0.025 A 
HETATM    2  C   UNL     1      62.928   8.693   3.325  1.00  0.00     0.021 A 
HETATM    3  C   UNL     1      62.109   9.554   2.577  1.00  0.00    -0.032 A 
HETATM    4  C   UNL     1      63.070  10.326   5.096  1.00  0.00     0.012 A 
HETATM    5  C   UNL     1      62.253  11.191   4.364  1.00  0.00     0.001 A 
HETATM    6  C   UNL     1      61.764  10.801   3.120  1.00  0.00     0.009 A 
ENDROOT
BRANCH   1   7
HETATM    7  C   UNL     1      64.200   8.138   5.409  1.00  0.00    -0.019 A 
HETATM    8  C   UNL     1      65.576   8.230   5.530  1.00  0.00     0.061 A 
HETATM    9  S   UNL     1      66.246   6.994   6.508  1.00  0.00    -0.113 SA
HETATM   10  C   UNL     1      64.706   6.322   6.806  1.00  0.00     0.050 A 
HETATM   11  C   UNL     1      63.706   7.025   6.172  1.00  0.00     0.020 A 
ENDBRANCH   1   7
BRANCH   3  12
HETATM   12  C   UNL     1      61.575   9.123   1.230  1.00  0.00     0.270 C 
BRANCH  12  13
HETATM   13  N   UNL     1      60.148   8.808   1.289  1.00  0.00    -0.075 N 
HETATM   14  C   UNL     1      59.800   7.770   0.332  1.00  0.00     0.267 C 
HETATM   15  H   UNL     1      59.613   9.651   1.077  1.00  0.00     0.277 HD
HETATM   16  H   UNL     1      59.930   8.471   2.226  1.00  0.00     0.277 HD
ENDBRANCH  12  13
ENDBRANCH   3  12
TORSDOF 3
ENDMDL
MODEL 2
REMARK VINA RESULT:      -4.5      1.892      3.116
REMARK  3 active torsions:
REMARK  status: ('A' for Active; 'I' for Inactive)
REMARK    1  A    between atoms: C_1  and  C_2 
REMARK    2  A    between atoms: C_8  and  C_12 
REMARK    3  A    between atoms: N_9  and  C_12 
ROOT
HETATM    1  C   UNL     1      64.451   7.265   4.159  1.00  0.00    -0.025 A 
HETATM    2  C   UNL     1      63.509   8.290   4.353  1.00  0.00     0.021 A 
HETATM    3  C   UNL     1      62.486   8.524   3.421  1.00  0.00    -0.032 A 
HETATM    4  C   UNL     1      64.337   6.458   3.019  1.00  0.00     0.012 A 
HETATM    5  C   UNL     1      63.326   6.683   2.082  1.00  0.00     0.001 A 
HETATM    6  C   UNL     1      62.415   7.718   2.275  1.00  0.00     0.009 A 
ENDROOT
BRANCH   1   7
HETATM    7  C   UNL     1      65.565   7.065   5.089  1.00  0.00    -0.019 A 
HETATM    8  C   UNL     1      65.417   7.117   6.464  1.00  0.00     0.061 A 
HETATM    9  S   UNL     1      66.891   6.894   7.306  1.00  0.00    -0.113 SA
HETATM   10  C   UNL     1      67.756   6.704   5.847  1.00  0.00     0.050 A 
HETATM   11  C   UNL     1      66.937   6.809   4.745  1.00  0.00     0.020 A 
ENDBRANCH   1   7
BRANCH   3  12
HETATM   12  C   UNL     1      61.504   9.654   3.632  1.00  0.00     0.270 C 
BRANCH  12  13
HETATM   13  N   UNL     1      62.132  10.960   3.435  1.00  0.00    -0.075 N 
HETATM   14  C   UNL     1      61.777  11.524   2.141  1.00  0.00     0.267 C 
HETATM   15  H   UNL     1      63.145  10.853   3.486  1.00  0.00     0.277 HD
HETATM   16  H   UNL     1      61.801  11.591   4.164  1.00  0.00     0.277 HD
ENDBRANCH  12  13
ENDBRANCH   3  12
TORSDOF 3
ENDMDL
MODEL 3
REMARK VINA RESULT:      -4.3      3.390      5.715
REMARK  3 active torsions:
REMARK  status: ('A' for Active; 'I' for Inactive)
REMARK    1  A    between atoms: C_1  and  C_2 
REMARK    2  A    between atoms: C_8  and  C_12 
REMARK    3  A    between atoms: N_9  and  C_12 
ROOT
HETATM    1  C   UNL     1      61.401   8.610   3.402  1.00  0.00    -0.025 A 
HETATM    2  C   UNL     1      62.071   7.708   4.246  1.00  0.00     0.021 A 
HETATM    3  C   UNL     1      62.995   8.156   5.204  1.00  0.00    -0.032 A 
HETATM    4  C   UNL     1      61.656   9.980   3.548  1.00  0.00     0.012 A 
HETATM    5  C   UNL     1      62.575  10.439   4.495  1.00  0.00     0.001 A 
HETATM    6  C   UNL     1      63.250   9.532   5.307  1.00  0.00     0.009 A 
ENDROOT
BRANCH   1   7
HETATM    7  C   UNL     1      60.494   8.142   2.350  1.00  0.00    -0.019 A 
HETATM    8  C   UNL     1      59.367   7.384   2.611  1.00  0.00     0.061 A 
HETATM    9  S   UNL     1      58.517   6.938   1.192  1.00  0.00    -0.113 SA
HETATM   10  C   UNL     1      59.630   7.768   0.201  1.00  0.00     0.050 A 
HETATM   11  C   UNL     1      60.627   8.370   0.937  1.00  0.00     0.020 A 
ENDBRANCH   1   7
BRANCH   3  12
HETATM   12  C   UNL     1      63.731   7.166   6.078  1.00  0.00     0.270 C 
BRANCH  12  13
HETATM   13  N   UNL     1      64.986   7.720   6.584  1.00  0.00    -0.075 N 
HETATM   14  C   UNL     1      66.132   7.104   5.932  1.00  0.00     0.267 C 
HETATM   15  H   UNL     1      65.043   7.551   7.589  1.00  0.00     0.277 HD
HETATM   16  H   UNL     1      65.001   8.720   6.388  1.00  0.00     0.277 HD
ENDBRANCH  12  13
ENDBRANCH   3  12
TORSDOF 3
ENDMDL
MODEL 4
REMARK VINA RESULT:      -4.2     10.161     12.203
REMARK  3 active torsions:
REMARK  status: ('A' for Active; 'I' for Inactive)
REMARK    1  A    between atoms: C_1  and  C_2 
REMARK    2  A    between atoms: C_8  and  C_12 
REMARK    3  A    between atoms: N_9  and  C_12 
ROOT
HETATM    1  C   UNL     1      58.307   2.377  11.640  1.00  0.00    -0.025 A 
HETATM    2  C   UNL     1      56.975   2.435  12.085  1.00  0.00     0.021 A 
HETATM    3  C   UNL     1      56.622   2.033  13.383  1.00  0.00    -0.032 A 
HETATM    4  C   UNL     1      59.291   1.927  12.530  1.00  0.00     0.012 A 
HETATM    5  C   UNL     1      58.954   1.521  13.823  1.00  0.00     0.001 A 
HETATM    6  C   UNL     1      57.626   1.561  14.241  1.00  0.00     0.009 A 
ENDROOT
BRANCH   1   7
HETATM    7  C   UNL     1      58.668   2.722  10.262  1.00  0.00    -0.019 A 
HETATM    8  C   UNL     1      58.606   4.014   9.769  1.00  0.00     0.061 A 
HETATM    9  S   UNL     1      59.040   4.121   8.116  1.00  0.00    -0.113 SA
HETATM   10  C   UNL     1      59.340   2.443   8.031  1.00  0.00     0.050 A 
HETATM   11  C   UNL     1      59.112   1.818   9.237  1.00  0.00     0.020 A 
ENDBRANCH   1   7
BRANCH   3  12
HETATM   12  C   UNL     1      55.179   2.072  13.830  1.00  0.00     0.270 C 
BRANCH  12  13
HETATM   13  N   UNL     1      54.918   3.203  14.719  1.00  0.00    -0.075 N 
HETATM   14  C   UNL     1      54.385   4.338  13.981  1.00  0.00     0.267 C 
HETATM   15  H   UNL     1      55.790   3.479  15.170  1.00  0.00     0.277 HD
HETATM   16  H   UNL     1      54.229   2.917  15.414  1.00  0.00     0.277 HD
ENDBRANCH  12  13
ENDBRANCH   3  12
TORSDOF 3
ENDMDL
MODEL 5
REMARK VINA RESULT:      -4.1      3.129      4.248
REMARK  3 active torsions:
REMARK  status: ('A' for Active; 'I' for Inactive)
REMARK    1  A    between atoms: C_1  and  C_2 
REMARK    2  A    between atoms: C_8  and  C_12 
REMARK    3  A    between atoms: N_9  and  C_12 
ROOT
HETATM    1  C   UNL     1      65.037   6.860   6.501  1.00  0.00    -0.025 A 
HETATM    2  C   UNL     1      63.707   6.412   6.408  1.00  0.00     0.021 A 
HETATM    3  C   UNL     1      62.767   7.085   5.610  1.00  0.00    -0.032 A 
HETATM    4  C   UNL     1      65.418   7.987   5.761  1.00  0.00     0.012 A 
HETATM    5  C   UNL     1      64.492   8.667   4.967  1.00  0.00     0.001 A 
HETATM    6  C   UNL     1      63.173   8.227   4.904  1.00  0.00     0.009 A 
ENDROOT
BRANCH   1   7
HETATM    7  C   UNL     1      66.001   6.207   7.391  1.00  0.00    -0.019 A 
HETATM    8  C   UNL     1      66.894   6.912   8.179  1.00  0.00     0.061 A 
HETATM    9  S   UNL     1      67.934   5.896   9.084  1.00  0.00    -0.113 SA
HETATM   10  C   UNL     1      67.197   4.492   8.455  1.00  0.00     0.050 A 
HETATM   11  C   UNL     1      66.182   4.794   7.574  1.00  0.00     0.020 A 
ENDBRANCH   1   7
BRANCH   3  12
HETATM   12  C   UNL     1      61.334   6.607   5.550  1.00  0.00     0.270 C 
BRANCH  12  13
HETATM   13  N   UNL     1      61.079   5.541   6.519  1.00  0.00    -0.075 N 
HETATM   14  C   UNL     1      60.020   5.916   7.444  1.00  0.00     0.267 C 
HETATM   15  H   UNL     1      61.933   5.359   7.046  1.00  0.00     0.277 HD
HETATM   16  H   UNL     1      60.785   4.707   6.012  1.00  0.00     0.277 HD
ENDBRANCH  12  13
ENDBRANCH   3  12
TORSDOF 3
ENDMDL
MODEL 6
REMARK VINA RESULT:      -4.0      3.949      5.730
REMARK  3 active torsions:
REMARK  status: ('A' for Active; 'I' for Inactive)
REMARK    1  A    between atoms: C_1  and  C_2 
REMARK    2  A    between atoms: C_8  and  C_12 
REMARK    3  A    between atoms: N_9  and  C_12 
ROOT
HETATM    1  C   UNL     1      60.081   7.828   2.860  1.00  0.00    -0.025 A 
HETATM    2  C   UNL     1      61.134   8.085   3.755  1.00  0.00     0.021 A 
HETATM    3  C   UNL     1      62.365   8.588   3.306  1.00  0.00    -0.032 A 
HETATM    4  C   UNL     1      60.274   8.106   1.500  1.00  0.00     0.012 A 
HETATM    5  C   UNL     1      61.495   8.604   1.040  1.00  0.00     0.001 A 
HETATM    6  C   UNL     1      62.538   8.829   1.935  1.00  0.00     0.009 A 
ENDROOT
BRANCH   1   7
HETATM    7  C   UNL     1      58.821   7.231   3.314  1.00  0.00    -0.019 A 
HETATM    8  C   UNL     1      57.680   7.197   2.531  1.00  0.00     0.061 A 
HETATM    9  S   UNL     1      56.344   6.482   3.328  1.00  0.00    -0.113 SA
HETATM   10  C   UNL     1      57.270   6.185   4.730  1.00  0.00     0.050 A 
HETATM   11  C   UNL     1      58.569   6.623   4.591  1.00  0.00     0.020 A 
ENDBRANCH   1   7
BRANCH   3  12
HETATM   12  C   UNL     1      63.496   8.824   4.280  1.00  0.00     0.270 C 
BRANCH  12  13
HETATM   13  N   UNL     1      63.017   9.402   5.535  1.00  0.00    -0.075 N 
HETATM   14  C   UNL     1      62.935  10.853   5.447  1.00  0.00     0.267 C 
HETATM   15  H   UNL     1      63.661   9.149   6.285  1.00  0.00     0.277 HD
HETATM   16  H   UNL     1      62.084   9.037   5.725  1.00  0.00     0.277 HD
ENDBRANCH  12  13
ENDBRANCH   3  12
TORSDOF 3
ENDMDL
MODEL 7
REMARK VINA RESULT:      -3.9      3.594      5.878
REMARK  3 active torsions:
REMARK  status: ('A' for Active; 'I' for Inactive)
REMARK    1  A    between atoms: C_1  and  C_2 
REMARK    2  A    between atoms: C_8  and  C_12 
REMARK    3  A    between atoms: N_9  and  C_12 
ROOT
HETATM    1  C   UNL     1      63.527   7.738   3.424  1.00  0.00    -0.025 A 
HETATM    2  C   UNL     1      64.507   6.738   3.305  1.00  0.00     0.021 A 
HETATM    3  C   UNL     1      65.648   6.736   4.123  1.00  0.00    -0.032 A 
HETATM    4  C   UNL     1      63.698   8.731   4.399  1.00  0.00     0.012 A 
HETATM    5  C   UNL     1      64.829   8.741   5.217  1.00  0.00     0.001 A 
HETATM    6  C   UNL     1      65.804   7.758   5.070  1.00  0.00     0.009 A 
ENDROOT
BRANCH   1   7
HETATM    7  C   UNL     1      62.374   7.789   2.521  1.00  0.00    -0.019 A 
HETATM    8  C   UNL     1      61.417   6.791   2.466  1.00  0.00     0.061 A 
HETATM    9  S   UNL     1      60.207   7.088   1.291  1.00  0.00    -0.113 SA
HETATM   10  C   UNL     1      60.928   8.569   0.845  1.00  0.00     0.050 A 
HETATM   11  C   UNL     1      62.066   8.828   1.577  1.00  0.00     0.020 A 
ENDBRANCH   1   7
BRANCH   3  12
HETATM   12  C   UNL     1      66.708   5.670   3.955  1.00  0.00     0.270 C 
BRANCH  12  13
HETATM   13  N   UNL     1      66.523   4.569   4.899  1.00  0.00    -0.075 N 
HETATM   14  C   UNL     1      67.572   4.560   5.907  1.00  0.00     0.267 C 
HETATM   15  H   UNL     1      66.543   3.686   4.389  1.00  0.00     0.277 HD
HETATM   16  H   UNL     1      65.625   4.693   5.368  1.00  0.00     0.277 HD
ENDBRANCH  12  13
ENDBRANCH   3  12
TORSDOF 3
ENDMDL
MODEL 8
REMARK VINA RESULT:      -3.8     12.706     14.122
REMARK  3 active torsions:
REMARK  status: ('A' for Active; 'I' for Inactive)
REMARK    1  A    between atoms: C_1  and  C_2 
REMARK    2  A    between atoms: C_8  and  C_12 
REMARK    3  A    between atoms: N_9  and  C_12 
ROOT
HETATM    1  C   UNL     1      56.474   1.149  13.715  1.00  0.00    -0.025 A 
HETATM    2  C   UNL     1      55.889   2.391  13.414  1.00  0.00     0.021 A 
HETATM    3  C   UNL     1      54.596   2.713  13.855  1.00  0.00    -0.032 A 
HETATM    4  C   UNL     1      55.745   0.236  14.490  1.00  0.00     0.012 A 
HETATM    5  C   UNL     1      54.457   0.543  14.933  1.00  0.00     0.001 A 
HETATM    6  C   UNL     1      53.881   1.767  14.605  1.00  0.00     0.009 A 
ENDROOT
BRANCH   1   7
HETATM    7  C   UNL     1      57.792   0.778  13.193  1.00  0.00    -0.019 A 
HETATM    8  C   UNL     1      57.982  -0.263  12.302  1.00  0.00     0.061 A 
HETATM    9  S   UNL     1      59.628  -0.503  11.894  1.00  0.00    -0.113 SA
HETATM   10  C   UNL     1      60.118   0.795  12.888  1.00  0.00     0.050 A 
HETATM   11  C   UNL     1      59.049   1.395  13.515  1.00  0.00     0.020 A 
ENDBRANCH   1   7
BRANCH   3  12
HETATM   12  C   UNL     1      53.972   4.041  13.490  1.00  0.00     0.270 C 
BRANCH  12  13
HETATM   13  N   UNL     1      54.162   5.036  14.546  1.00  0.00    -0.075 N 
HETATM   14  C   UNL     1      53.000   5.903  14.665  1.00  0.00     0.267 C 
HETATM   15  H   UNL     1      54.980   5.603  14.324  1.00  0.00     0.277 HD
HETATM   16  H   UNL     1      54.294   4.547  15.431  1.00  0.00     0.277 HD
ENDBRANCH  12  13
ENDBRANCH   3  12
TORSDOF 3
ENDMDL
MODEL 9
REMARK VINA RESULT:      -3.8     11.347     13.163
REMARK  3 active torsions:
REMARK  status: ('A' for Active; 'I' for Inactive)
REMARK    1  A    between atoms: C_1  and  C_2 
REMARK    2  A    between atoms: C_8  and  C_12 
REMARK    3  A    between atoms: N_9  and  C_12 
ROOT
HETATM    1  C   UNL     1      56.538   1.963  13.318  1.00  0.00    -0.025 A 
HETATM    2  C   UNL     1      56.878   2.353  12.012  1.00  0.00     0.021 A 
HETATM    3  C   UNL     1      58.215   2.382  11.585  1.00  0.00    -0.032 A 
HETATM    4  C   UNL     1      57.565   1.578  14.191  1.00  0.00     0.012 A 
HETATM    5  C   UNL     1      58.900   1.605  13.780  1.00  0.00     0.001 A 
HETATM    6  C   UNL     1      59.223   2.018  12.490  1.00  0.00     0.009 A 
ENDROOT
BRANCH   1   7
HETATM    7  C   UNL     1      55.152   2.005  13.792  1.00  0.00    -0.019 A 
HETATM    8  C   UNL     1      54.591   1.006  14.567  1.00  0.00     0.061 A 
HETATM    9  S   UNL     1      52.944   1.291  14.938  1.00  0.00    -0.113 SA
HETATM   10  C   UNL     1      52.953   2.769  14.085  1.00  0.00     0.050 A 
HETATM   11  C   UNL     1      54.185   3.036  13.530  1.00  0.00     0.020 A 
ENDBRANCH   1   7
BRANCH   3  12
HETATM   12  C   UNL     1      58.562   2.838  10.186  1.00  0.00     0.270 C 
BRANCH  12  13
HETATM   13  N   UNL     1      58.601   4.297  10.086  1.00  0.00    -0.075 N 
HETATM   14  C   UNL     1      59.049   4.721   8.769  1.00  0.00     0.267 C 
HETATM   15  H   UNL     1      59.244   4.660  10.790  1.00  0.00     0.277 HD
HETATM   16  H   UNL     1      57.660   4.657  10.240  1.00  0.00     0.277 HD
ENDBRANCH  12  13
ENDBRANCH   3  12
TORSDOF 3
ENDMDL
