MODEL 1
REMARK VINA RESULT:      -4.7      0.000      0.000
REMARK  3 active torsions:
REMARK  status: ('A' for Active; 'I' for Inactive)
REMARK    1  A    between atoms: C_1  and  C_3 
REMARK    2  A    between atoms: C_11  and  C_13 
REMARK    3  A    between atoms: N_12  and  C_13 
ROOT
HETATM    1  C   UNL     1      64.047   8.145   4.850  1.00  0.00    -0.025 A 
HETATM    2  C   UNL     1      63.412   9.365   5.115  1.00  0.00     0.013 A 
HETATM    3  C   UNL     1      63.827   7.533   3.608  1.00  0.00     0.013 A 
HETATM    4  C   UNL     1      62.995   8.129   2.653  1.00  0.00     0.010 A 
HETATM    5  C   UNL     1      62.586   9.963   4.158  1.00  0.00     0.010 A 
HETATM    6  C   UNL     1      62.369   9.352   2.916  1.00  0.00    -0.033 A 
ENDROOT
BRANCH   1   7
HETATM    7  C   UNL     1      64.942   7.548   5.845  1.00  0.00    -0.019 A 
HETATM    8  C   UNL     1      64.565   6.478   6.636  1.00  0.00     0.061 A 
HETATM    9  S   UNL     1      65.804   5.967   7.703  1.00  0.00    -0.113 SA
HETATM   10  C   UNL     1      66.862   7.180   7.136  1.00  0.00     0.050 A 
HETATM   11  C   UNL     1      66.283   7.952   6.154  1.00  0.00     0.020 A 
ENDBRANCH   1   7
BRANCH   6  12
HETATM   12  C   UNL     1      61.499  10.012   1.877  1.00  0.00     0.268 C 
BRANCH  12  13
HETATM   13  N   UNL     1      61.518  11.464   2.003  1.00  0.00    -0.075 N 
HETATM   14  H   UNL     1      60.774  11.865   1.432  1.00  0.00     0.274 HD
HETATM   15  H   UNL     1      62.420  11.821   1.686  1.00  0.00     0.274 HD
HETATM   16  H   UNL     1      61.376  11.722   2.979  1.00  0.00     0.274 HD
ENDBRANCH  12  13
ENDBRANCH   6  12
TORSDOF 3
ENDMDL
MODEL 2
REMARK VINA RESULT:      -4.6      0.236      1.355
REMARK  3 active torsions:
REMARK  status: ('A' for Active; 'I' for Inactive)
REMARK    1  A    between atoms: C_1  and  C_3 
REMARK    2  A    between atoms: C_11  and  C_13 
REMARK    3  A    between atoms: N_12  and  C_13 
ROOT
HETATM    1  C   UNL     1      64.200   8.030   4.918  1.00  0.00    -0.025 A 
HETATM    2  C   UNL     1      63.943   7.368   3.710  1.00  0.00     0.013 A 
HETATM    3  C   UNL     1      63.600   9.277   5.137  1.00  0.00     0.013 A 
HETATM    4  C   UNL     1      62.759   9.848   4.175  1.00  0.00     0.010 A 
HETATM    5  C   UNL     1      63.098   7.936   2.750  1.00  0.00     0.010 A 
HETATM    6  C   UNL     1      62.496   9.181   2.972  1.00  0.00    -0.033 A 
ENDROOT
BRANCH   1   7
HETATM    7  C   UNL     1      65.055   7.407   5.932  1.00  0.00    -0.019 A 
HETATM    8  C   UNL     1      64.699   6.245   6.592  1.00  0.00     0.061 A 
HETATM    9  S   UNL     1      65.884   5.725   7.714  1.00  0.00    -0.113 SA
HETATM   10  C   UNL     1      66.888   7.055   7.348  1.00  0.00     0.050 A 
HETATM   11  C   UNL     1      66.332   7.873   6.390  1.00  0.00     0.020 A 
ENDBRANCH   1   7
BRANCH   6  12
HETATM   12  C   UNL     1      61.566   9.779   1.948  1.00  0.00     0.268 C 
BRANCH  12  13
HETATM   13  N   UNL     1      61.460  11.225   2.096  1.00  0.00    -0.075 N 
HETATM   14  H   UNL     1      61.666  11.484   3.061  1.00  0.00     0.274 HD
HETATM   15  H   UNL     1      60.513  11.523   1.860  1.00  0.00     0.274 HD
HETATM   16  H   UNL     1      62.124  11.680   1.471  1.00  0.00     0.274 HD
ENDBRANCH  12  13
ENDBRANCH   6  12
TORSDOF 3
ENDMDL
MODEL 3
REMARK VINA RESULT:      -4.5      3.701      5.851
REMARK  3 active torsions:
REMARK  status: ('A' for Active; 'I' for Inactive)
REMARK    1  A    between atoms: C_1  and  C_3 
REMARK    2  A    between atoms: C_11  and  C_13 
REMARK    3  A    between atoms: N_12  and  C_13 
ROOT
HETATM    1  C   UNL     1      64.640   8.011   5.392  1.00  0.00    -0.025 A 
HETATM    2  C   UNL     1      64.243   7.055   6.337  1.00  0.00     0.013 A 
HETATM    3  C   UNL     1      66.011   8.218   5.188  1.00  0.00     0.013 A 
HETATM    4  C   UNL     1      66.963   7.486   5.908  1.00  0.00     0.010 A 
HETATM    5  C   UNL     1      65.194   6.319   7.052  1.00  0.00     0.010 A 
HETATM    6  C   UNL     1      66.564   6.526   6.844  1.00  0.00    -0.033 A 
ENDROOT
BRANCH   1   7
HETATM    7  C   UNL     1      63.635   8.747   4.622  1.00  0.00    -0.019 A 
HETATM    8  C   UNL     1      63.183   8.317   3.387  1.00  0.00     0.061 A 
HETATM    9  S   UNL     1      61.998   9.353   2.711  1.00  0.00    -0.113 SA
HETATM   10  C   UNL     1      62.082  10.406   4.052  1.00  0.00     0.050 A 
HETATM   11  C   UNL     1      62.989   9.973   4.992  1.00  0.00     0.020 A 
ENDBRANCH   1   7
BRANCH   6  12
HETATM   12  C   UNL     1      67.586   5.713   7.597  1.00  0.00     0.268 C 
BRANCH  12  13
HETATM   13  N   UNL     1      68.066   6.416   8.781  1.00  0.00    -0.075 N 
HETATM   14  H   UNL     1      69.084   6.480   8.748  1.00  0.00     0.274 HD
HETATM   15  H   UNL     1      67.784   5.905   9.617  1.00  0.00     0.274 HD
HETATM   16  H   UNL     1      67.666   7.353   8.804  1.00  0.00     0.274 HD
ENDBRANCH  12  13
ENDBRANCH   6  12
TORSDOF 3
ENDMDL
MODEL 4
REMARK VINA RESULT:      -4.4      3.668      5.876
REMARK  3 active torsions:
REMARK  status: ('A' for Active; 'I' for Inactive)
REMARK    1  A    between atoms: C_1  and  C_3 
REMARK    2  A    between atoms: C_11  and  C_13 
REMARK    3  A    between atoms: N_12  and  C_13 
ROOT
HETATM    1  C   UNL     1      64.473   7.921   5.387  1.00  0.00    -0.025 A 
HETATM    2  C   UNL     1      65.766   8.416   5.606  1.00  0.00     0.013 A 
HETATM    3  C   UNL     1      64.086   6.748   6.047  1.00  0.00     0.013 A 
HETATM    4  C   UNL     1      64.968   6.085   6.909  1.00  0.00     0.010 A 
HETATM    5  C   UNL     1      66.645   7.757   6.472  1.00  0.00     0.010 A 
HETATM    6  C   UNL     1      66.255   6.585   7.133  1.00  0.00    -0.033 A 
ENDROOT
BRANCH   1   7
HETATM    7  C   UNL     1      63.548   8.642   4.509  1.00  0.00    -0.019 A 
HETATM    8  C   UNL     1      62.969   9.846   4.867  1.00  0.00     0.061 A 
HETATM    9  S   UNL     1      61.941  10.481   3.652  1.00  0.00    -0.113 SA
HETATM   10  C   UNL     1      62.239   9.145   2.631  1.00  0.00     0.050 A 
HETATM   11  C   UNL     1      63.105   8.242   3.204  1.00  0.00     0.020 A 
ENDBRANCH   1   7
BRANCH   6  12
HETATM   12  C   UNL     1      67.196   5.892   8.086  1.00  0.00     0.268 C 
BRANCH  12  13
HETATM   13  N   UNL     1      66.519   4.846   8.844  1.00  0.00    -0.075 N 
HETATM   14  H   UNL     1      65.599   5.177   9.132  1.00  0.00     0.274 HD
HETATM   15  H   UNL     1      67.071   4.614   9.670  1.00  0.00     0.274 HD
HETATM   16  H   UNL     1      66.416   4.016   8.260  1.00  0.00     0.274 HD
ENDBRANCH  12  13
ENDBRANCH   6  12
TORSDOF 3
ENDMDL
MODEL 5
REMARK VINA RESULT:      -4.2      2.934      3.539
REMARK  3 active torsions:
REMARK  status: ('A' for Active; 'I' for Inactive)
REMARK    1  A    between atoms: C_1  and  C_3 
REMARK    2  A    between atoms: C_11  and  C_13 
REMARK    3  A    between atoms: N_12  and  C_13 
ROOT
HETATM    1  C   UNL     1      64.803   6.953   3.840  1.00  0.00    -0.025 A 
HETATM    2  C   UNL     1      63.635   7.362   3.181  1.00  0.00     0.013 A 
HETATM    3  C   UNL     1      65.283   7.739   4.896  1.00  0.00     0.013 A 
HETATM    4  C   UNL     1      64.612   8.904   5.286  1.00  0.00     0.010 A 
HETATM    5  C   UNL     1      62.962   8.522   3.576  1.00  0.00     0.010 A 
HETATM    6  C   UNL     1      63.442   9.305   4.633  1.00  0.00    -0.033 A 
ENDROOT
BRANCH   1   7
HETATM    7  C   UNL     1      65.477   5.715   3.443  1.00  0.00    -0.019 A 
HETATM    8  C   UNL     1      64.785   4.585   3.047  1.00  0.00     0.061 A 
HETATM    9  S   UNL     1      65.815   3.284   2.622  1.00  0.00    -0.113 SA
HETATM   10  C   UNL     1      67.208   4.205   2.978  1.00  0.00     0.050 A 
HETATM   11  C   UNL     1      66.891   5.474   3.406  1.00  0.00     0.020 A 
ENDBRANCH   1   7
BRANCH   6  12
HETATM   12  C   UNL     1      62.699  10.541   5.073  1.00  0.00     0.268 C 
BRANCH  12  13
HETATM   13  N   UNL     1      63.460  11.305   6.055  1.00  0.00    -0.075 N 
HETATM   14  H   UNL     1      63.123  12.267   6.072  1.00  0.00     0.274 HD
HETATM   15  H   UNL     1      64.448  11.295   5.800  1.00  0.00     0.274 HD
HETATM   16  H   UNL     1      63.343  10.885   6.977  1.00  0.00     0.274 HD
ENDBRANCH  12  13
ENDBRANCH   6  12
TORSDOF 3
ENDMDL
MODEL 6
REMARK VINA RESULT:      -4.2      3.605      5.739
REMARK  3 active torsions:
REMARK  status: ('A' for Active; 'I' for Inactive)
REMARK    1  A    between atoms: C_1  and  C_3 
REMARK    2  A    between atoms: C_11  and  C_13 
REMARK    3  A    between atoms: N_12  and  C_13 
ROOT
HETATM    1  C   UNL     1      63.076   7.933   3.321  1.00  0.00    -0.025 A 
HETATM    2  C   UNL     1      64.054   6.930   3.309  1.00  0.00     0.013 A 
HETATM    3  C   UNL     1      63.204   8.979   4.245  1.00  0.00     0.013 A 
HETATM    4  C   UNL     1      64.285   9.023   5.133  1.00  0.00     0.010 A 
HETATM    5  C   UNL     1      65.137   6.977   4.193  1.00  0.00     0.010 A 
HETATM    6  C   UNL     1      65.265   8.025   5.113  1.00  0.00    -0.033 A 
ENDROOT
BRANCH   1   7
HETATM    7  C   UNL     1      61.967   7.894   2.365  1.00  0.00    -0.019 A 
HETATM    8  C   UNL     1      60.750   7.307   2.661  1.00  0.00     0.061 A 
HETATM    9  S   UNL     1      59.626   7.413   1.373  1.00  0.00    -0.113 SA
HETATM   10  C   UNL     1      60.754   8.232   0.388  1.00  0.00     0.050 A 
HETATM   11  C   UNL     1      61.957   8.422   1.031  1.00  0.00     0.020 A 
ENDBRANCH   1   7
BRANCH   6  12
HETATM   12  C   UNL     1      66.448   8.087   6.046  1.00  0.00     0.268 C 
BRANCH  12  13
HETATM   13  N   UNL     1      66.169   7.420   7.313  1.00  0.00    -0.075 N 
HETATM   14  H   UNL     1      66.871   7.691   8.001  1.00  0.00     0.274 HD
HETATM   15  H   UNL     1      66.198   6.409   7.178  1.00  0.00     0.274 HD
HETATM   16  H   UNL     1      65.244   7.693   7.643  1.00  0.00     0.274 HD
ENDBRANCH  12  13
ENDBRANCH   6  12
TORSDOF 3
ENDMDL
MODEL 7
REMARK VINA RESULT:      -3.8      2.250      2.389
REMARK  3 active torsions:
REMARK  status: ('A' for Active; 'I' for Inactive)
REMARK    1  A    between atoms: C_1  and  C_3 
REMARK    2  A    between atoms: C_11  and  C_13 
REMARK    3  A    between atoms: N_12  and  C_13 
ROOT
HETATM    1  C   UNL     1      63.199   7.453   4.891  1.00  0.00    -0.025 A 
HETATM    2  C   UNL     1      62.133   6.644   5.309  1.00  0.00     0.013 A 
HETATM    3  C   UNL     1      63.015   8.273   3.770  1.00  0.00     0.013 A 
HETATM    4  C   UNL     1      61.794   8.288   3.084  1.00  0.00     0.010 A 
HETATM    5  C   UNL     1      60.912   6.664   4.627  1.00  0.00     0.010 A 
HETATM    6  C   UNL     1      60.729   7.487   3.508  1.00  0.00    -0.033 A 
ENDROOT
BRANCH   1   7
HETATM    7  C   UNL     1      64.460   7.453   5.636  1.00  0.00    -0.019 A 
HETATM    8  C   UNL     1      64.664   6.661   6.752  1.00  0.00     0.061 A 
HETATM    9  S   UNL     1      66.230   6.843   7.422  1.00  0.00    -0.113 SA
HETATM   10  C   UNL     1      66.657   7.998   6.241  1.00  0.00     0.050 A 
HETATM   11  C   UNL     1      65.630   8.235   5.355  1.00  0.00     0.020 A 
ENDBRANCH   1   7
BRANCH   6  12
HETATM   12  C   UNL     1      59.403   7.525   2.792  1.00  0.00     0.268 C 
BRANCH  12  13
HETATM   13  N   UNL     1      58.330   7.974   3.671  1.00  0.00    -0.075 N 
HETATM   14  H   UNL     1      58.704   8.630   4.356  1.00  0.00     0.274 HD
HETATM   15  H   UNL     1      57.928   7.170   4.154  1.00  0.00     0.274 HD
HETATM   16  H   UNL     1      57.607   8.433   3.118  1.00  0.00     0.274 HD
ENDBRANCH  12  13
ENDBRANCH   6  12
TORSDOF 3
ENDMDL
MODEL 8
REMARK VINA RESULT:      -3.8      3.958      5.581
REMARK  3 active torsions:
REMARK  status: ('A' for Active; 'I' for Inactive)
REMARK    1  A    between atoms: C_1  and  C_3 
REMARK    2  A    between atoms: C_11  and  C_13 
REMARK    3  A    between atoms: N_12  and  C_13 
ROOT
HETATM    1  C   UNL     1      62.707   7.320   5.174  1.00  0.00    -0.025 A 
HETATM    2  C   UNL     1      63.346   6.461   6.078  1.00  0.00     0.013 A 
HETATM    3  C   UNL     1      63.421   8.419   4.679  1.00  0.00     0.013 A 
HETATM    4  C   UNL     1      64.743   8.653   5.075  1.00  0.00     0.010 A 
HETATM    5  C   UNL     1      64.669   6.691   6.468  1.00  0.00     0.010 A 
HETATM    6  C   UNL     1      65.382   7.789   5.971  1.00  0.00    -0.033 A 
ENDROOT
BRANCH   1   7
HETATM    7  C   UNL     1      61.334   7.046   4.742  1.00  0.00    -0.019 A 
HETATM    8  C   UNL     1      60.766   7.658   3.639  1.00  0.00     0.061 A 
HETATM    9  S   UNL     1      59.157   7.147   3.346  1.00  0.00    -0.113 SA
HETATM   10  C   UNL     1      59.186   6.111   4.702  1.00  0.00     0.050 A 
HETATM   11  C   UNL     1      60.396   6.152   5.358  1.00  0.00     0.020 A 
ENDBRANCH   1   7
BRANCH   6  12
HETATM   12  C   UNL     1      66.817   8.020   6.373  1.00  0.00     0.268 C 
BRANCH  12  13
HETATM   13  N   UNL     1      67.102   7.459   7.689  1.00  0.00    -0.075 N 
HETATM   14  H   UNL     1      66.869   6.467   7.693  1.00  0.00     0.274 HD
HETATM   15  H   UNL     1      66.544   7.943   8.393  1.00  0.00     0.274 HD
HETATM   16  H   UNL     1      68.093   7.578   7.901  1.00  0.00     0.274 HD
ENDBRANCH  12  13
ENDBRANCH   6  12
TORSDOF 3
ENDMDL
MODEL 9
REMARK VINA RESULT:      -3.7     11.264     12.308
REMARK  3 active torsions:
REMARK  status: ('A' for Active; 'I' for Inactive)
REMARK    1  A    between atoms: C_1  and  C_3 
REMARK    2  A    between atoms: C_11  and  C_13 
REMARK    3  A    between atoms: N_12  and  C_13 
ROOT
HETATM    1  C   UNL     1      59.174   0.982  12.389  1.00  0.00    -0.025 A 
HETATM    2  C   UNL     1      58.529   1.899  11.548  1.00  0.00     0.013 A 
HETATM    3  C   UNL     1      58.607   0.710  13.640  1.00  0.00     0.013 A 
HETATM    4  C   UNL     1      57.421   1.336  14.042  1.00  0.00     0.010 A 
HETATM    5  C   UNL     1      57.341   2.520  11.947  1.00  0.00     0.010 A 
HETATM    6  C   UNL     1      56.773   2.245  13.198  1.00  0.00    -0.033 A 
ENDROOT
BRANCH   1   7
HETATM    7  C   UNL     1      60.396   0.308  11.943  1.00  0.00    -0.019 A 
HETATM    8  C   UNL     1      60.737   0.193  10.608  1.00  0.00     0.061 A 
HETATM    9  S   UNL     1      62.222  -0.625  10.366  1.00  0.00    -0.113 SA
HETATM   10  C   UNL     1      62.428  -0.856  12.044  1.00  0.00     0.050 A 
HETATM   11  C   UNL     1      61.389  -0.316  12.770  1.00  0.00     0.020 A 
ENDBRANCH   1   7
BRANCH   6  12
HETATM   12  C   UNL     1      55.479   2.896  13.615  1.00  0.00     0.268 C 
BRANCH  12  13
HETATM   13  N   UNL     1      54.980   2.346  14.869  1.00  0.00    -0.075 N 
HETATM   14  H   UNL     1      53.962   2.392  14.879  1.00  0.00     0.274 HD
HETATM   15  H   UNL     1      55.353   2.888  15.650  1.00  0.00     0.274 HD
HETATM   16  H   UNL     1      55.279   1.375  14.957  1.00  0.00     0.274 HD
ENDBRANCH  12  13
ENDBRANCH   6  12
TORSDOF 3
ENDMDL
