MODEL 1
REMARK VINA RESULT:      -5.3      0.000      0.000
REMARK  3 active torsions:
REMARK  status: ('A' for Active; 'I' for Inactive)
REMARK    1  A    between atoms: N_1  and  C_7 
REMARK    2  A    between atoms: C_4  and  C_8 
REMARK    3  A    between atoms: C_8  and  O_11 
ROOT
HETATM    1  N   UNL     1      62.811   8.152   4.724  1.00  0.00    -0.260 N 
HETATM    2  N   UNL     1      61.830   7.333   5.188  1.00  0.00    -0.298 N 
ATOM      3  HN  UNL     1      60.828   7.413   5.017  1.00  0.00     0.187 HD
HETATM    4  C   UNL     1      63.830   6.690   6.058  1.00  0.00     0.013 A 
HETATM    5  C   UNL     1      64.039   7.822   5.282  1.00  0.00     0.041 A 
HETATM    6  C   UNL     1      62.452   6.405   5.913  1.00  0.00     0.033 A 
HETATM    7  C   UNL     1      65.295   8.616   5.166  1.00  0.00     0.071 C 
HETATM    8  C   UNL     1      61.679   5.274   6.484  1.00  0.00     0.070 C 
ENDROOT
BRANCH   1   9
HETATM    9  C   UNL     1      62.464   9.174   3.798  1.00  0.00     0.056 A 
HETATM   10  C   UNL     1      62.396   8.855   2.433  1.00  0.00     0.031 A 
HETATM   11  C   UNL     1      62.033   9.828   1.500  1.00  0.00     0.002 A 
HETATM   12  C   UNL     1      61.771  11.131   1.918  1.00  0.00     0.000 A 
HETATM   13  C   UNL     1      61.881  11.464   3.269  1.00  0.00     0.002 A 
HETATM   14  C   UNL     1      62.224  10.489   4.211  1.00  0.00     0.031 A 
ENDBRANCH   1   9
BRANCH   4  15
HETATM   15  C   UNL     1      64.817   5.963   6.902  1.00  0.00     0.207 C 
BRANCH  15  16
HETATM   16  O   UNL     1      65.232   6.739   8.021  1.00  0.00    -0.396 OA
HETATM   17  H   UNL     1      66.170   6.572   8.200  1.00  0.00     0.209 HD
ENDBRANCH  15  16
ENDBRANCH   4  15
TORSDOF 3
ENDMDL
MODEL 2
REMARK VINA RESULT:      -5.3      2.660      5.561
REMARK  3 active torsions:
REMARK  status: ('A' for Active; 'I' for Inactive)
REMARK    1  A    between atoms: N_1  and  C_7 
REMARK    2  A    between atoms: C_4  and  C_8 
REMARK    3  A    between atoms: C_8  and  O_11 
ROOT
HETATM    1  N   UNL     1      64.497   8.398   5.027  1.00  0.00    -0.260 N 
HETATM    2  N   UNL     1      64.085   9.528   5.662  1.00  0.00    -0.298 N 
ATOM      3  HN  UNL     1      64.432   9.900   6.546  1.00  0.00     0.187 HD
HETATM    4  C   UNL     1      62.805   9.186   3.814  1.00  0.00     0.013 A 
HETATM    5  C   UNL     1      63.697   8.128   3.924  1.00  0.00     0.041 A 
HETATM    6  C   UNL     1      63.135  10.047   4.887  1.00  0.00     0.033 A 
HETATM    7  C   UNL     1      63.720   6.879   3.112  1.00  0.00     0.071 C 
HETATM    8  C   UNL     1      62.536  11.360   5.232  1.00  0.00     0.070 C 
ENDROOT
BRANCH   1   9
HETATM    9  C   UNL     1      65.611   7.689   5.554  1.00  0.00     0.056 A 
HETATM   10  C   UNL     1      65.429   6.903   6.703  1.00  0.00     0.031 A 
HETATM   11  C   UNL     1      66.495   6.172   7.231  1.00  0.00     0.002 A 
HETATM   12  C   UNL     1      67.755   6.250   6.640  1.00  0.00     0.000 A 
HETATM   13  C   UNL     1      67.951   7.065   5.524  1.00  0.00     0.002 A 
HETATM   14  C   UNL     1      66.883   7.783   4.978  1.00  0.00     0.031 A 
ENDBRANCH   1   9
BRANCH   4  15
HETATM   15  C   UNL     1      61.708   9.358   2.823  1.00  0.00     0.207 C 
BRANCH  15  16
HETATM   16  O   UNL     1      60.468   8.859   3.312  1.00  0.00    -0.396 OA
HETATM   17  H   UNL     1      60.302   9.218   4.198  1.00  0.00     0.209 HD
ENDBRANCH  15  16
ENDBRANCH   4  15
TORSDOF 3
ENDMDL
MODEL 3
REMARK VINA RESULT:      -5.2      2.530      5.455
REMARK  3 active torsions:
REMARK  status: ('A' for Active; 'I' for Inactive)
REMARK    1  A    between atoms: N_1  and  C_7 
REMARK    2  A    between atoms: C_4  and  C_8 
REMARK    3  A    between atoms: C_8  and  O_11 
ROOT
HETATM    1  N   UNL     1      63.450   8.579   4.187  1.00  0.00    -0.260 N 
HETATM    2  N   UNL     1      63.313   8.058   2.938  1.00  0.00    -0.298 N 
ATOM      3  HN  UNL     1      63.749   7.212   2.572  1.00  0.00     0.187 HD
HETATM    4  C   UNL     1      62.197  10.035   3.062  1.00  0.00     0.013 A 
HETATM    5  C   UNL     1      62.828   9.817   4.280  1.00  0.00     0.041 A 
HETATM    6  C   UNL     1      62.489   8.883   2.295  1.00  0.00     0.033 A 
HETATM    7  C   UNL     1      62.938  10.768   5.421  1.00  0.00     0.071 C 
HETATM    8  C   UNL     1      62.032   8.548   0.923  1.00  0.00     0.070 C 
ENDROOT
BRANCH   1   9
HETATM    9  C   UNL     1      64.175   7.836   5.159  1.00  0.00     0.056 A 
HETATM   10  C   UNL     1      65.509   8.188   5.420  1.00  0.00     0.031 A 
HETATM   11  C   UNL     1      66.242   7.497   6.386  1.00  0.00     0.002 A 
HETATM   12  C   UNL     1      65.663   6.430   7.071  1.00  0.00     0.000 A 
HETATM   13  C   UNL     1      64.351   6.049   6.783  1.00  0.00     0.002 A 
HETATM   14  C   UNL     1      63.605   6.750   5.831  1.00  0.00     0.031 A 
ENDBRANCH   1   9
BRANCH   4  15
HETATM   15  C   UNL     1      61.428  11.234   2.632  1.00  0.00     0.207 C 
BRANCH  15  16
HETATM   16  O   UNL     1      62.187  12.067   1.761  1.00  0.00    -0.396 OA
HETATM   17  H   UNL     1      61.873  11.953   0.851  1.00  0.00     0.209 HD
ENDBRANCH  15  16
ENDBRANCH   4  15
TORSDOF 3
ENDMDL
MODEL 4
REMARK VINA RESULT:      -5.2      1.542      2.920
REMARK  3 active torsions:
REMARK  status: ('A' for Active; 'I' for Inactive)
REMARK    1  A    between atoms: N_1  and  C_7 
REMARK    2  A    between atoms: C_4  and  C_8 
REMARK    3  A    between atoms: C_8  and  O_11 
ROOT
HETATM    1  N   UNL     1      64.336   7.898   5.215  1.00  0.00    -0.260 N 
HETATM    2  N   UNL     1      65.680   7.967   5.022  1.00  0.00    -0.298 N 
ATOM      3  HN  UNL     1      66.183   8.609   4.410  1.00  0.00     0.187 HD
HETATM    4  C   UNL     1      65.199   6.219   6.395  1.00  0.00     0.013 A 
HETATM    5  C   UNL     1      64.002   6.805   6.003  1.00  0.00     0.041 A 
HETATM    6  C   UNL     1      66.202   7.020   5.799  1.00  0.00     0.033 A 
HETATM    7  C   UNL     1      62.625   6.298   6.258  1.00  0.00     0.071 C 
HETATM    8  C   UNL     1      67.675   6.889   5.916  1.00  0.00     0.070 C 
ENDROOT
BRANCH   1   9
HETATM    9  C   UNL     1      63.510   8.886   4.612  1.00  0.00     0.056 A 
HETATM   10  C   UNL     1      63.246  10.070   5.319  1.00  0.00     0.031 A 
HETATM   11  C   UNL     1      62.461  11.071   4.746  1.00  0.00     0.002 A 
HETATM   12  C   UNL     1      61.905  10.884   3.482  1.00  0.00     0.000 A 
HETATM   13  C   UNL     1      62.128   9.691   2.793  1.00  0.00     0.002 A 
HETATM   14  C   UNL     1      62.931   8.692   3.353  1.00  0.00     0.031 A 
ENDBRANCH   1   9
BRANCH   4  15
HETATM   15  C   UNL     1      65.392   4.991   7.212  1.00  0.00     0.207 C 
BRANCH  15  16
HETATM   16  O   UNL     1      65.878   5.291   8.515  1.00  0.00    -0.396 OA
HETATM   17  H   UNL     1      65.184   5.114   9.168  1.00  0.00     0.209 HD
ENDBRANCH  15  16
ENDBRANCH   4  15
TORSDOF 3
ENDMDL
MODEL 5
REMARK VINA RESULT:      -4.4      2.642      5.447
REMARK  3 active torsions:
REMARK  status: ('A' for Active; 'I' for Inactive)
REMARK    1  A    between atoms: N_1  and  C_7 
REMARK    2  A    between atoms: C_4  and  C_8 
REMARK    3  A    between atoms: C_8  and  O_11 
ROOT
HETATM    1  N   UNL     1      64.467   7.510   4.225  1.00  0.00    -0.260 N 
HETATM    2  N   UNL     1      64.345   6.738   3.113  1.00  0.00    -0.298 N 
ATOM      3  HN  UNL     1      64.949   5.968   2.827  1.00  0.00     0.187 HD
HETATM    4  C   UNL     1      62.764   8.372   3.078  1.00  0.00     0.013 A 
HETATM    5  C   UNL     1      63.553   8.556   4.207  1.00  0.00     0.041 A 
HETATM    6  C   UNL     1      63.270   7.198   2.474  1.00  0.00     0.033 A 
HETATM    7  C   UNL     1      63.524   9.710   5.149  1.00  0.00     0.071 C 
HETATM    8  C   UNL     1      62.780   6.501   1.259  1.00  0.00     0.070 C 
ENDROOT
BRANCH   1   9
HETATM    9  C   UNL     1      65.459   7.170   5.185  1.00  0.00     0.056 A 
HETATM   10  C   UNL     1      65.048   6.742   6.457  1.00  0.00     0.031 A 
HETATM   11  C   UNL     1      65.995   6.375   7.416  1.00  0.00     0.002 A 
HETATM   12  C   UNL     1      67.354   6.467   7.124  1.00  0.00     0.000 A 
HETATM   13  C   UNL     1      67.768   6.934   5.875  1.00  0.00     0.002 A 
HETATM   14  C   UNL     1      66.825   7.283   4.904  1.00  0.00     0.031 A 
ENDBRANCH   1   9
BRANCH   4  15
HETATM   15  C   UNL     1      61.666   9.243   2.578  1.00  0.00     0.207 C 
BRANCH  15  16
HETATM   16  O   UNL     1      60.483   9.106   3.358  1.00  0.00    -0.396 OA
HETATM   17  H   UNL     1      60.626   8.441   4.049  1.00  0.00     0.209 HD
ENDBRANCH  15  16
ENDBRANCH   4  15
TORSDOF 3
ENDMDL
MODEL 6
REMARK VINA RESULT:      -4.4      3.448      5.301
REMARK  3 active torsions:
REMARK  status: ('A' for Active; 'I' for Inactive)
REMARK    1  A    between atoms: N_1  and  C_7 
REMARK    2  A    between atoms: C_4  and  C_8 
REMARK    3  A    between atoms: C_8  and  O_11 
ROOT
HETATM    1  N   UNL     1      62.257   7.213   2.823  1.00  0.00    -0.260 N 
HETATM    2  N   UNL     1      61.525   6.101   3.096  1.00  0.00    -0.298 N 
ATOM      3  HN  UNL     1      61.786   5.324   3.704  1.00  0.00     0.187 HD
HETATM    4  C   UNL     1      60.438   7.363   1.549  1.00  0.00     0.013 A 
HETATM    5  C   UNL     1      61.649   7.979   1.837  1.00  0.00     0.041 A 
HETATM    6  C   UNL     1      60.396   6.236   2.403  1.00  0.00     0.033 A 
HETATM    7  C   UNL     1      62.251   9.152   1.143  1.00  0.00     0.071 C 
HETATM    8  C   UNL     1      59.310   5.237   2.559  1.00  0.00     0.070 C 
ENDROOT
BRANCH   1   9
HETATM    9  C   UNL     1      63.473   7.419   3.531  1.00  0.00     0.056 A 
HETATM   10  C   UNL     1      63.564   8.505   4.416  1.00  0.00     0.031 A 
HETATM   11  C   UNL     1      64.734   8.721   5.146  1.00  0.00     0.002 A 
HETATM   12  C   UNL     1      65.831   7.880   4.972  1.00  0.00     0.000 A 
HETATM   13  C   UNL     1      65.760   6.825   4.060  1.00  0.00     0.002 A 
HETATM   14  C   UNL     1      64.584   6.590   3.341  1.00  0.00     0.031 A 
ENDBRANCH   1   9
BRANCH   4  15
HETATM   15  C   UNL     1      59.428   7.763   0.532  1.00  0.00     0.207 C 
BRANCH  15  16
HETATM   16  O   UNL     1      58.362   8.512   1.106  1.00  0.00    -0.396 OA
HETATM   17  H   UNL     1      58.569   9.457   1.057  1.00  0.00     0.209 HD
ENDBRANCH  15  16
ENDBRANCH   4  15
TORSDOF 3
ENDMDL
MODEL 7
REMARK VINA RESULT:      -4.2      2.544      6.045
REMARK  3 active torsions:
REMARK  status: ('A' for Active; 'I' for Inactive)
REMARK    1  A    between atoms: N_1  and  C_7 
REMARK    2  A    between atoms: C_4  and  C_8 
REMARK    3  A    between atoms: C_8  and  O_11 
ROOT
HETATM    1  N   UNL     1      64.841   6.433   6.528  1.00  0.00    -0.260 N 
HETATM    2  N   UNL     1      63.646   5.785   6.574  1.00  0.00    -0.298 N 
ATOM      3  HN  UNL     1      63.449   4.885   7.011  1.00  0.00     0.187 HD
HETATM    4  C   UNL     1      63.439   7.671   5.320  1.00  0.00     0.013 A 
HETATM    5  C   UNL     1      64.764   7.561   5.720  1.00  0.00     0.041 A 
HETATM    6  C   UNL     1      62.788   6.572   5.928  1.00  0.00     0.033 A 
HETATM    7  C   UNL     1      65.913   8.398   5.276  1.00  0.00     0.071 C 
HETATM    8  C   UNL     1      61.348   6.214   5.884  1.00  0.00     0.070 C 
ENDROOT
BRANCH   1   9
HETATM    9  C   UNL     1      65.936   5.894   7.257  1.00  0.00     0.056 A 
HETATM   10  C   UNL     1      66.329   6.524   8.449  1.00  0.00     0.031 A 
HETATM   11  C   UNL     1      67.384   6.006   9.203  1.00  0.00     0.002 A 
HETATM   12  C   UNL     1      68.075   4.882   8.755  1.00  0.00     0.000 A 
HETATM   13  C   UNL     1      67.716   4.279   7.549  1.00  0.00     0.002 A 
HETATM   14  C   UNL     1      66.647   4.780   6.799  1.00  0.00     0.031 A 
ENDBRANCH   1   9
BRANCH   4  15
HETATM   15  C   UNL     1      62.839   8.684   4.409  1.00  0.00     0.207 C 
BRANCH  15  16
HETATM   16  O   UNL     1      62.818   9.980   4.997  1.00  0.00    -0.396 OA
HETATM   17  H   UNL     1      63.297  10.601   4.427  1.00  0.00     0.209 HD
ENDBRANCH  15  16
ENDBRANCH   4  15
TORSDOF 3
ENDMDL
MODEL 8
REMARK VINA RESULT:      -4.2      1.821      2.255
REMARK  3 active torsions:
REMARK  status: ('A' for Active; 'I' for Inactive)
REMARK    1  A    between atoms: N_1  and  C_7 
REMARK    2  A    between atoms: C_4  and  C_8 
REMARK    3  A    between atoms: C_8  and  O_11 
ROOT
HETATM    1  N   UNL     1      61.328   7.541   4.229  1.00  0.00    -0.260 N 
HETATM    2  N   UNL     1      60.069   7.028   4.265  1.00  0.00    -0.298 N 
ATOM      3  HN  UNL     1      59.231   7.420   3.835  1.00  0.00     0.187 HD
HETATM    4  C   UNL     1      61.445   5.751   5.548  1.00  0.00     0.013 A 
HETATM    5  C   UNL     1      62.183   6.817   5.050  1.00  0.00     0.041 A 
HETATM    6  C   UNL     1      60.159   5.908   4.979  1.00  0.00     0.033 A 
HETATM    7  C   UNL     1      63.576   7.198   5.417  1.00  0.00     0.071 C 
HETATM    8  C   UNL     1      58.973   5.029   5.125  1.00  0.00     0.070 C 
ENDROOT
BRANCH   1   9
HETATM    9  C   UNL     1      61.576   8.681   3.417  1.00  0.00     0.056 A 
HETATM   10  C   UNL     1      61.778   8.498   2.040  1.00  0.00     0.031 A 
HETATM   11  C   UNL     1      61.999   9.599   1.209  1.00  0.00     0.002 A 
HETATM   12  C   UNL     1      62.055  10.881   1.751  1.00  0.00     0.000 A 
HETATM   13  C   UNL     1      61.899  11.063   3.126  1.00  0.00     0.002 A 
HETATM   14  C   UNL     1      61.657   9.968   3.960  1.00  0.00     0.031 A 
ENDBRANCH   1   9
BRANCH   4  15
HETATM   15  C   UNL     1      61.884   4.703   6.509  1.00  0.00     0.207 C 
BRANCH  15  16
HETATM   16  O   UNL     1      62.248   3.496   5.849  1.00  0.00    -0.396 OA
HETATM   17  H   UNL     1      62.884   3.008   6.395  1.00  0.00     0.209 HD
ENDBRANCH  15  16
ENDBRANCH   4  15
TORSDOF 3
ENDMDL
MODEL 9
REMARK VINA RESULT:      -4.1      3.531      4.997
REMARK  3 active torsions:
REMARK  status: ('A' for Active; 'I' for Inactive)
REMARK    1  A    between atoms: N_1  and  C_7 
REMARK    2  A    between atoms: C_4  and  C_8 
REMARK    3  A    between atoms: C_8  and  O_11 
ROOT
HETATM    1  N   UNL     1      60.400   7.794   3.677  1.00  0.00    -0.260 N 
HETATM    2  N   UNL     1      60.501   8.914   2.915  1.00  0.00    -0.298 N 
ATOM      3  HN  UNL     1      59.845   9.239   2.205  1.00  0.00     0.187 HD
HETATM    4  C   UNL     1      62.370   8.694   4.191  1.00  0.00     0.013 A 
HETATM    5  C   UNL     1      61.552   7.597   4.428  1.00  0.00     0.041 A 
HETATM    6  C   UNL     1      61.637   9.500   3.289  1.00  0.00     0.033 A 
HETATM    7  C   UNL     1      61.883   6.380   5.220  1.00  0.00     0.071 C 
HETATM    8  C   UNL     1      62.006  10.823   2.726  1.00  0.00     0.070 C 
ENDROOT
BRANCH   1   9
HETATM    9  C   UNL     1      59.209   7.020   3.597  1.00  0.00     0.056 A 
HETATM   10  C   UNL     1      58.031   7.534   4.163  1.00  0.00     0.031 A 
HETATM   11  C   UNL     1      56.839   6.813   4.080  1.00  0.00     0.002 A 
HETATM   12  C   UNL     1      56.821   5.563   3.464  1.00  0.00     0.000 A 
HETATM   13  C   UNL     1      57.999   5.029   2.939  1.00  0.00     0.002 A 
HETATM   14  C   UNL     1      59.192   5.755   3.001  1.00  0.00     0.031 A 
ENDBRANCH   1   9
BRANCH   4  15
HETATM   15  C   UNL     1      63.737   8.947   4.722  1.00  0.00     0.207 C 
BRANCH  15  16
HETATM   16  O   UNL     1      63.754  10.017   5.659  1.00  0.00    -0.396 OA
HETATM   17  H   UNL     1      64.236   9.743   6.454  1.00  0.00     0.209 HD
ENDBRANCH  15  16
ENDBRANCH   4  15
TORSDOF 3
ENDMDL
