MODEL 1
REMARK VINA RESULT:      -5.7      0.000      0.000
REMARK  4 active torsions:
REMARK  status: ('A' for Active; 'I' for Inactive)
REMARK    1  A    between atoms: C_1  and  O_4 
REMARK    2  A    between atoms: O_4  and  C_5 
REMARK    3  A    between atoms: C_6  and  C_14 
REMARK    4  A    between atoms: O_11  and  C_14 
ROOT
HETATM    1  C   UNL     1      63.269   8.626   5.121  1.00  0.00     0.077 A 
HETATM    2  C   UNL     1      62.174  10.087   2.985  1.00  0.00    -0.035 A 
HETATM    3  C   UNL     1      62.965   7.985   3.919  1.00  0.00     0.038 A 
HETATM    4  C   UNL     1      62.954   9.978   5.278  1.00  0.00     0.038 A 
HETATM    5  C   UNL     1      62.410  10.706   4.218  1.00  0.00     0.012 A 
HETATM    6  C   UNL     1      62.445   8.718   2.849  1.00  0.00     0.012 A 
ENDROOT
BRANCH   1   7
HETATM    7  O   UNL     1      63.809   8.006   6.223  1.00  0.00    -0.294 OA
BRANCH   7   8
HETATM    8  C   UNL     1      65.119   7.579   6.206  1.00  0.00     0.147 A 
HETATM    9  N   UNL     1      65.494   6.925   7.328  1.00  0.00    -0.347 N 
HETATM   10  C   UNL     1      66.771   6.496   7.397  1.00  0.00     0.090 A 
ATOM     11  HN  UNL     1      64.837   6.762   8.091  1.00  0.00     0.167 HD
HETATM   12  C   UNL     1      67.704   6.678   6.389  1.00  0.00     0.017 A 
HETATM   13  C   UNL     1      67.311   7.379   5.257  1.00  0.00     0.006 A 
HETATM   14  C   UNL     1      66.008   7.866   5.174  1.00  0.00     0.056 A 
ENDBRANCH   7   8
ENDBRANCH   1   7
BRANCH   2  15
HETATM   15  C   UNL     1      61.640  10.868   1.814  1.00  0.00     0.202 C 
BRANCH  15  16
HETATM   16  O   UNL     1      62.055  12.226   1.900  1.00  0.00    -0.396 OA
HETATM   17  H   UNL     1      62.155  12.591   1.006  1.00  0.00     0.209 HD
ENDBRANCH  15  16
ENDBRANCH   2  15
TORSDOF 4
ENDMDL
MODEL 2
REMARK VINA RESULT:      -5.6      3.835      6.275
REMARK  4 active torsions:
REMARK  status: ('A' for Active; 'I' for Inactive)
REMARK    1  A    between atoms: C_1  and  O_4 
REMARK    2  A    between atoms: O_4  and  C_5 
REMARK    3  A    between atoms: C_6  and  C_14 
REMARK    4  A    between atoms: O_11  and  C_14 
ROOT
HETATM    1  C   UNL     1      61.975   9.623   2.151  1.00  0.00     0.077 A 
HETATM    2  C   UNL     1      62.599  10.697   4.672  1.00  0.00    -0.035 A 
HETATM    3  C   UNL     1      62.610   8.833   3.110  1.00  0.00     0.038 A 
HETATM    4  C   UNL     1      61.722  10.969   2.427  1.00  0.00     0.038 A 
HETATM    5  C   UNL     1      62.031  11.505   3.680  1.00  0.00     0.012 A 
HETATM    6  C   UNL     1      62.896   9.360   4.372  1.00  0.00     0.012 A 
ENDROOT
BRANCH   1   7
HETATM    7  O   UNL     1      61.623   9.195   0.892  1.00  0.00    -0.294 OA
BRANCH   7   8
HETATM    8  C   UNL     1      60.714   8.171   0.736  1.00  0.00     0.147 A 
HETATM    9  N   UNL     1      59.454   8.500   1.097  1.00  0.00    -0.347 N 
HETATM   10  C   UNL     1      58.511   7.540   0.996  1.00  0.00     0.090 A 
ATOM     11  HN  UNL     1      59.226   9.435   1.433  1.00  0.00     0.167 HD
HETATM   12  C   UNL     1      58.759   6.257   0.537  1.00  0.00     0.017 A 
HETATM   13  C   UNL     1      60.065   5.927   0.200  1.00  0.00     0.006 A 
HETATM   14  C   UNL     1      61.067   6.887   0.330  1.00  0.00     0.056 A 
ENDBRANCH   7   8
ENDBRANCH   1   7
BRANCH   2  15
HETATM   15  C   UNL     1      62.888  11.242   6.045  1.00  0.00     0.202 C 
BRANCH  15  16
HETATM   16  O   UNL     1      64.287  11.433   6.212  1.00  0.00    -0.396 OA
HETATM   17  H   UNL     1      64.453  11.887   7.053  1.00  0.00     0.209 HD
ENDBRANCH  15  16
ENDBRANCH   2  15
TORSDOF 4
ENDMDL
MODEL 3
REMARK VINA RESULT:      -5.4      1.529      1.623
REMARK  4 active torsions:
REMARK  status: ('A' for Active; 'I' for Inactive)
REMARK    1  A    between atoms: C_1  and  O_4 
REMARK    2  A    between atoms: O_4  and  C_5 
REMARK    3  A    between atoms: C_6  and  C_14 
REMARK    4  A    between atoms: O_11  and  C_14 
ROOT
HETATM    1  C   UNL     1      64.110   8.901   4.800  1.00  0.00     0.077 A 
HETATM    2  C   UNL     1      62.099   8.795   2.839  1.00  0.00    -0.035 A 
HETATM    3  C   UNL     1      64.058   7.829   3.908  1.00  0.00     0.038 A 
HETATM    4  C   UNL     1      63.112   9.878   4.758  1.00  0.00     0.038 A 
HETATM    5  C   UNL     1      62.111   9.828   3.784  1.00  0.00     0.012 A 
HETATM    6  C   UNL     1      63.074   7.791   2.917  1.00  0.00     0.012 A 
ENDROOT
BRANCH   1   7
HETATM    7  O   UNL     1      65.051   9.052   5.791  1.00  0.00    -0.294 OA
BRANCH   7   8
HETATM    8  C   UNL     1      65.888   8.007   6.117  1.00  0.00     0.147 A 
HETATM    9  N   UNL     1      65.434   7.240   7.132  1.00  0.00    -0.347 N 
HETATM   10  C   UNL     1      66.212   6.210   7.526  1.00  0.00     0.090 A 
ATOM     11  HN  UNL     1      64.540   7.433   7.583  1.00  0.00     0.167 HD
HETATM   12  C   UNL     1      67.429   5.894   6.946  1.00  0.00     0.017 A 
HETATM   13  C   UNL     1      67.895   6.710   5.924  1.00  0.00     0.006 A 
HETATM   14  C   UNL     1      67.130   7.804   5.521  1.00  0.00     0.056 A 
ENDBRANCH   7   8
ENDBRANCH   1   7
BRANCH   2  15
HETATM   15  C   UNL     1      61.062   8.754   1.748  1.00  0.00     0.202 C 
BRANCH  15  16
HETATM   16  O   UNL     1      59.819   8.302   2.271  1.00  0.00    -0.396 OA
HETATM   17  H   UNL     1      59.929   8.056   3.202  1.00  0.00     0.209 HD
ENDBRANCH  15  16
ENDBRANCH   2  15
TORSDOF 4
ENDMDL
MODEL 4
REMARK VINA RESULT:      -5.3      2.259      6.030
REMARK  4 active torsions:
REMARK  status: ('A' for Active; 'I' for Inactive)
REMARK    1  A    between atoms: C_1  and  O_4 
REMARK    2  A    between atoms: O_4  and  C_5 
REMARK    3  A    between atoms: C_6  and  C_14 
REMARK    4  A    between atoms: O_11  and  C_14 
ROOT
HETATM    1  C   UNL     1      63.815   8.067   5.508  1.00  0.00     0.077 A 
HETATM    2  C   UNL     1      66.203   6.718   6.118  1.00  0.00    -0.035 A 
HETATM    3  C   UNL     1      65.045   8.645   5.192  1.00  0.00     0.038 A 
HETATM    4  C   UNL     1      63.784   6.851   6.196  1.00  0.00     0.038 A 
HETATM    5  C   UNL     1      64.970   6.179   6.500  1.00  0.00     0.012 A 
HETATM    6  C   UNL     1      66.231   7.962   5.472  1.00  0.00     0.012 A 
ENDROOT
BRANCH   1   7
HETATM    7  O   UNL     1      62.591   8.638   5.250  1.00  0.00    -0.294 OA
BRANCH   7   8
HETATM    8  C   UNL     1      62.374   9.308   4.066  1.00  0.00     0.147 A 
HETATM    9  N   UNL     1      62.147  10.631   4.221  1.00  0.00    -0.347 N 
HETATM   10  C   UNL     1      61.901  11.352   3.107  1.00  0.00     0.090 A 
ATOM     11  HN  UNL     1      62.161  11.067   5.143  1.00  0.00     0.167 HD
HETATM   12  C   UNL     1      61.880  10.819   1.829  1.00  0.00     0.017 A 
HETATM   13  C   UNL     1      62.084   9.453   1.691  1.00  0.00     0.006 A 
HETATM   14  C   UNL     1      62.303   8.676   2.827  1.00  0.00     0.056 A 
ENDBRANCH   7   8
ENDBRANCH   1   7
BRANCH   2  15
HETATM   15  C   UNL     1      67.489   5.982   6.388  1.00  0.00     0.202 C 
BRANCH  15  16
HETATM   16  O   UNL     1      68.075   6.446   7.598  1.00  0.00    -0.396 OA
HETATM   17  H   UNL     1      69.030   6.562   7.471  1.00  0.00     0.209 HD
ENDBRANCH  15  16
ENDBRANCH   2  15
TORSDOF 4
ENDMDL
MODEL 5
REMARK VINA RESULT:      -5.3      2.355      6.477
REMARK  4 active torsions:
REMARK  status: ('A' for Active; 'I' for Inactive)
REMARK    1  A    between atoms: C_1  and  O_4 
REMARK    2  A    between atoms: O_4  and  C_5 
REMARK    3  A    between atoms: C_6  and  C_14 
REMARK    4  A    between atoms: O_11  and  C_14 
ROOT
HETATM    1  C   UNL     1      66.264   7.483   6.392  1.00  0.00     0.077 A 
HETATM    2  C   UNL     1      67.103   4.936   7.233  1.00  0.00    -0.035 A 
HETATM    3  C   UNL     1      67.392   6.893   5.818  1.00  0.00     0.038 A 
HETATM    4  C   UNL     1      65.605   6.831   7.437  1.00  0.00     0.038 A 
HETATM    5  C   UNL     1      66.020   5.565   7.857  1.00  0.00     0.012 A 
HETATM    6  C   UNL     1      67.792   5.615   6.218  1.00  0.00     0.012 A 
ENDROOT
BRANCH   1   7
HETATM    7  O   UNL     1      65.768   8.719   6.052  1.00  0.00    -0.294 OA
BRANCH   7   8
HETATM    8  C   UNL     1      64.660   8.823   5.240  1.00  0.00     0.147 A 
HETATM    9  N   UNL     1      63.842   9.850   5.562  1.00  0.00    -0.347 N 
HETATM   10  C   UNL     1      62.721  10.002   4.826  1.00  0.00     0.090 A 
ATOM     11  HN  UNL     1      64.064  10.484   6.329  1.00  0.00     0.167 HD
HETATM   12  C   UNL     1      62.373   9.180   3.768  1.00  0.00     0.017 A 
HETATM   13  C   UNL     1      63.208   8.112   3.471  1.00  0.00     0.006 A 
HETATM   14  C   UNL     1      64.354   7.908   4.236  1.00  0.00     0.056 A 
ENDBRANCH   7   8
ENDBRANCH   1   7
BRANCH   2  15
HETATM   15  C   UNL     1      67.531   3.549   7.633  1.00  0.00     0.202 C 
BRANCH  15  16
HETATM   16  O   UNL     1      67.105   3.268   8.961  1.00  0.00    -0.396 OA
HETATM   17  H   UNL     1      67.599   2.507   9.305  1.00  0.00     0.209 HD
ENDBRANCH  15  16
ENDBRANCH   2  15
TORSDOF 4
ENDMDL
MODEL 6
REMARK VINA RESULT:      -4.8      2.304      6.071
REMARK  4 active torsions:
REMARK  status: ('A' for Active; 'I' for Inactive)
REMARK    1  A    between atoms: C_1  and  O_4 
REMARK    2  A    between atoms: O_4  and  C_5 
REMARK    3  A    between atoms: C_6  and  C_14 
REMARK    4  A    between atoms: O_11  and  C_14 
ROOT
HETATM    1  C   UNL     1      64.460   7.226   4.864  1.00  0.00     0.077 A 
HETATM    2  C   UNL     1      66.472   6.475   6.676  1.00  0.00    -0.035 A 
HETATM    3  C   UNL     1      64.133   6.502   6.012  1.00  0.00     0.038 A 
HETATM    4  C   UNL     1      65.800   7.506   4.587  1.00  0.00     0.038 A 
HETATM    5  C   UNL     1      66.802   7.134   5.487  1.00  0.00     0.012 A 
HETATM    6  C   UNL     1      65.131   6.153   6.925  1.00  0.00     0.012 A 
ENDROOT
BRANCH   1   7
HETATM    7  O   UNL     1      63.554   7.644   3.917  1.00  0.00    -0.294 OA
BRANCH   7   8
HETATM    8  C   UNL     1      63.033   8.919   3.972  1.00  0.00     0.147 A 
HETATM    9  N   UNL     1      62.444   9.316   2.823  1.00  0.00    -0.347 N 
HETATM   10  C   UNL     1      61.930  10.564   2.790  1.00  0.00     0.090 A 
ATOM     11  HN  UNL     1      62.390   8.698   2.013  1.00  0.00     0.167 HD
HETATM   12  C   UNL     1      61.964  11.442   3.860  1.00  0.00     0.017 A 
HETATM   13  C   UNL     1      62.600  11.029   5.022  1.00  0.00     0.006 A 
HETATM   14  C   UNL     1      63.173   9.759   5.073  1.00  0.00     0.056 A 
ENDBRANCH   7   8
ENDBRANCH   1   7
BRANCH   2  15
HETATM   15  C   UNL     1      67.531   6.116   7.684  1.00  0.00     0.202 C 
BRANCH  15  16
HETATM   16  O   UNL     1      67.585   7.099   8.711  1.00  0.00    -0.396 OA
HETATM   17  H   UNL     1      67.073   7.877   8.440  1.00  0.00     0.209 HD
ENDBRANCH  15  16
ENDBRANCH   2  15
TORSDOF 4
ENDMDL
MODEL 7
REMARK VINA RESULT:      -4.6      2.568      3.359
REMARK  4 active torsions:
REMARK  status: ('A' for Active; 'I' for Inactive)
REMARK    1  A    between atoms: C_1  and  O_4 
REMARK    2  A    between atoms: O_4  and  C_5 
REMARK    3  A    between atoms: C_6  and  C_14 
REMARK    4  A    between atoms: O_11  and  C_14 
ROOT
HETATM    1  C   UNL     1      63.001   8.128   4.799  1.00  0.00     0.077 A 
HETATM    2  C   UNL     1      62.166   9.875   2.762  1.00  0.00    -0.035 A 
HETATM    3  C   UNL     1      62.841   7.657   3.495  1.00  0.00     0.038 A 
HETATM    4  C   UNL     1      62.670   9.453   5.096  1.00  0.00     0.038 A 
HETATM    5  C   UNL     1      62.255  10.323   4.085  1.00  0.00     0.012 A 
HETATM    6  C   UNL     1      62.452   8.532   2.478  1.00  0.00     0.012 A 
ENDROOT
BRANCH   1   7
HETATM    7  O   UNL     1      63.407   7.361   5.866  1.00  0.00    -0.294 OA
BRANCH   7   8
HETATM    8  C   UNL     1      62.667   6.266   6.254  1.00  0.00     0.147 A 
HETATM    9  N   UNL     1      63.354   5.103   6.219  1.00  0.00    -0.347 N 
HETATM   10  C   UNL     1      62.689   3.980   6.562  1.00  0.00     0.090 A 
ATOM     11  HN  UNL     1      64.336   5.075   5.944  1.00  0.00     0.167 HD
HETATM   12  C   UNL     1      61.361   3.957   6.954  1.00  0.00     0.017 A 
HETATM   13  C   UNL     1      60.661   5.156   6.955  1.00  0.00     0.006 A 
HETATM   14  C   UNL     1      61.312   6.327   6.569  1.00  0.00     0.056 A 
ENDBRANCH   7   8
ENDBRANCH   1   7
BRANCH   2  15
HETATM   15  C   UNL     1      61.775  10.811   1.650  1.00  0.00     0.202 C 
BRANCH  15  16
HETATM   16  O   UNL     1      62.094  12.152   2.003  1.00  0.00    -0.396 OA
HETATM   17  H   UNL     1      62.813  12.473   1.436  1.00  0.00     0.209 HD
ENDBRANCH  15  16
ENDBRANCH   2  15
TORSDOF 4
ENDMDL
MODEL 8
REMARK VINA RESULT:      -4.6      2.598      6.002
REMARK  4 active torsions:
REMARK  status: ('A' for Active; 'I' for Inactive)
REMARK    1  A    between atoms: C_1  and  O_4 
REMARK    2  A    between atoms: O_4  and  C_5 
REMARK    3  A    between atoms: C_6  and  C_14 
REMARK    4  A    between atoms: O_11  and  C_14 
ROOT
HETATM    1  C   UNL     1      62.965   8.510   4.995  1.00  0.00     0.077 A 
HETATM    2  C   UNL     1      64.981   7.070   6.321  1.00  0.00    -0.035 A 
HETATM    3  C   UNL     1      62.658   7.314   5.645  1.00  0.00     0.038 A 
HETATM    4  C   UNL     1      64.292   8.943   4.945  1.00  0.00     0.038 A 
HETATM    5  C   UNL     1      65.296   8.229   5.603  1.00  0.00     0.012 A 
HETATM    6  C   UNL     1      63.655   6.613   6.327  1.00  0.00     0.012 A 
ENDROOT
BRANCH   1   7
HETATM    7  O   UNL     1      62.056   9.292   4.321  1.00  0.00    -0.294 OA
BRANCH   7   8
HETATM    8  C   UNL     1      61.608   8.917   3.074  1.00  0.00     0.147 A 
HETATM    9  N   UNL     1      60.393   8.326   3.085  1.00  0.00    -0.347 N 
HETATM   10  C   UNL     1      59.897   7.908   1.902  1.00  0.00     0.090 A 
ATOM     11  HN  UNL     1      59.872   8.201   3.953  1.00  0.00     0.167 HD
HETATM   12  C   UNL     1      60.553   8.059   0.691  1.00  0.00     0.017 A 
HETATM   13  C   UNL     1      61.813   8.640   0.701  1.00  0.00     0.006 A 
HETATM   14  C   UNL     1      62.367   9.049   1.914  1.00  0.00     0.056 A 
ENDBRANCH   7   8
ENDBRANCH   1   7
BRANCH   2  15
HETATM   15  C   UNL     1      66.039   6.317   7.083  1.00  0.00     0.202 C 
BRANCH  15  16
HETATM   16  O   UNL     1      67.220   6.202   6.299  1.00  0.00    -0.396 OA
HETATM   17  H   UNL     1      67.922   6.744   6.692  1.00  0.00     0.209 HD
ENDBRANCH  15  16
ENDBRANCH   2  15
TORSDOF 4
ENDMDL
MODEL 9
REMARK VINA RESULT:      -4.6      4.171      6.432
REMARK  4 active torsions:
REMARK  status: ('A' for Active; 'I' for Inactive)
REMARK    1  A    between atoms: C_1  and  O_4 
REMARK    2  A    between atoms: O_4  and  C_5 
REMARK    3  A    between atoms: C_6  and  C_14 
REMARK    4  A    between atoms: O_11  and  C_14 
ROOT
HETATM    1  C   UNL     1      60.708   6.496   4.917  1.00  0.00     0.077 A 
HETATM    2  C   UNL     1      58.988   5.981   7.080  1.00  0.00    -0.035 A 
HETATM    3  C   UNL     1      59.328   6.449   4.717  1.00  0.00     0.038 A 
HETATM    4  C   UNL     1      61.229   6.210   6.182  1.00  0.00     0.038 A 
HETATM    5  C   UNL     1      60.376   5.954   7.258  1.00  0.00     0.012 A 
HETATM    6  C   UNL     1      58.472   6.219   5.798  1.00  0.00     0.012 A 
ENDROOT
BRANCH   1   7
HETATM    7  O   UNL     1      61.635   6.744   3.932  1.00  0.00    -0.294 OA
BRANCH   7   8
HETATM    8  C   UNL     1      61.696   7.983   3.333  1.00  0.00     0.147 A 
HETATM    9  N   UNL     1      61.578   7.945   1.988  1.00  0.00    -0.347 N 
HETATM   10  C   UNL     1      61.654   9.119   1.326  1.00  0.00     0.090 A 
ATOM     11  HN  UNL     1      61.438   7.065   1.492  1.00  0.00     0.167 HD
HETATM   12  C   UNL     1      61.832  10.345   1.945  1.00  0.00     0.017 A 
HETATM   13  C   UNL     1      61.983  10.363   3.325  1.00  0.00     0.006 A 
HETATM   14  C   UNL     1      61.946   9.162   4.031  1.00  0.00     0.056 A 
ENDBRANCH   7   8
ENDBRANCH   1   7
BRANCH   2  15
HETATM   15  C   UNL     1      58.052   5.763   8.238  1.00  0.00     0.202 C 
BRANCH  15  16
HETATM   16  O   UNL     1      58.779   5.754   9.461  1.00  0.00    -0.396 OA
HETATM   17  H   UNL     1      59.585   6.284   9.362  1.00  0.00     0.209 HD
ENDBRANCH  15  16
ENDBRANCH   2  15
TORSDOF 4
ENDMDL
