MODEL 1
REMARK VINA RESULT:      -5.5      0.000      0.000
REMARK  2 active torsions:
REMARK  status: ('A' for Active; 'I' for Inactive)
REMARK    1  A    between atoms: C_1  and  C_4 
REMARK    2  A    between atoms: C_2  and  C_3 
ROOT
HETATM    1  C   UNL     1      62.173   9.849   3.709  1.00  0.00     0.041 A 
HETATM    2  C   UNL     1      63.390   8.087   4.871  1.00  0.00    -0.024 A 
HETATM    3  C   UNL     1      63.249   9.435   4.508  1.00  0.00     0.030 A 
HETATM    4  C   UNL     1      61.238   8.911   3.259  1.00  0.00     0.018 A 
HETATM    5  C   UNL     1      62.433   7.164   4.422  1.00  0.00     0.012 A 
HETATM    6  C   UNL     1      61.368   7.571   3.615  1.00  0.00     0.002 A 
ENDROOT
BRANCH   2   7
HETATM    7  C   UNL     1      64.509   7.667   5.718  1.00  0.00    -0.019 A 
HETATM    8  C   UNL     1      64.391   6.644   6.643  1.00  0.00     0.061 A 
HETATM    9  S   UNL     1      65.840   6.352   7.505  1.00  0.00    -0.113 SA
HETATM   10  C   UNL     1      66.660   7.576   6.643  1.00  0.00     0.050 A 
HETATM   11  C   UNL     1      65.843   8.196   5.723  1.00  0.00     0.020 A 
ENDBRANCH   2   7
BRANCH   1  12
HETATM   12  C   UNL     1      61.983  11.268   3.325  1.00  0.00     0.209 C 
HETATM   13  O   UNL     1      61.941  11.700   2.187  1.00  0.00    -0.644 OA
HETATM   14  O   UNL     1      61.839  12.082   4.385  1.00  0.00    -0.644 OA
ENDBRANCH   1  12
TORSDOF 2
ENDMDL
MODEL 2
REMARK VINA RESULT:      -5.4      1.775      2.140
REMARK  2 active torsions:
REMARK  status: ('A' for Active; 'I' for Inactive)
REMARK    1  A    between atoms: C_1  and  C_4 
REMARK    2  A    between atoms: C_2  and  C_3 
ROOT
HETATM    1  C   UNL     1      63.131   9.795   4.698  1.00  0.00     0.041 A 
HETATM    2  C   UNL     1      64.469   7.785   4.380  1.00  0.00    -0.024 A 
HETATM    3  C   UNL     1      64.211   8.981   5.067  1.00  0.00     0.030 A 
HETATM    4  C   UNL     1      62.309   9.423   3.629  1.00  0.00     0.018 A 
HETATM    5  C   UNL     1      63.624   7.420   3.321  1.00  0.00     0.012 A 
HETATM    6  C   UNL     1      62.556   8.237   2.942  1.00  0.00     0.002 A 
ENDROOT
BRANCH   2   7
HETATM    7  C   UNL     1      65.592   6.934   4.782  1.00  0.00    -0.019 A 
HETATM    8  C   UNL     1      66.027   6.858   6.094  1.00  0.00     0.061 A 
HETATM    9  S   UNL     1      67.354   5.797   6.298  1.00  0.00    -0.113 SA
HETATM   10  C   UNL     1      67.361   5.404   4.637  1.00  0.00     0.050 A 
HETATM   11  C   UNL     1      66.375   6.072   3.944  1.00  0.00     0.020 A 
ENDBRANCH   2   7
BRANCH   1  12
HETATM   12  C   UNL     1      62.818  11.054   5.416  1.00  0.00     0.209 C 
HETATM   13  O   UNL     1      63.202  11.354   6.532  1.00  0.00    -0.644 OA
HETATM   14  O   UNL     1      62.048  11.889   4.696  1.00  0.00    -0.644 OA
ENDBRANCH   1  12
TORSDOF 2
ENDMDL
MODEL 3
REMARK VINA RESULT:      -5.3      1.864      2.415
REMARK  2 active torsions:
REMARK  status: ('A' for Active; 'I' for Inactive)
REMARK    1  A    between atoms: C_1  and  C_4 
REMARK    2  A    between atoms: C_2  and  C_3 
ROOT
HETATM    1  C   UNL     1      62.154   9.414   2.635  1.00  0.00     0.041 A 
HETATM    2  C   UNL     1      63.490   8.978   4.624  1.00  0.00    -0.024 A 
HETATM    3  C   UNL     1      62.996   8.572   3.375  1.00  0.00     0.030 A 
HETATM    4  C   UNL     1      61.790  10.663   3.148  1.00  0.00     0.018 A 
HETATM    5  C   UNL     1      63.126  10.241   5.115  1.00  0.00     0.012 A 
HETATM    6  C   UNL     1      62.275  11.075   4.387  1.00  0.00     0.002 A 
ENDROOT
BRANCH   2   7
HETATM    7  C   UNL     1      64.381   8.097   5.383  1.00  0.00    -0.019 A 
HETATM    8  C   UNL     1      63.903   7.057   6.162  1.00  0.00     0.061 A 
HETATM    9  S   UNL     1      65.148   6.183   6.948  1.00  0.00    -0.113 SA
HETATM   10  C   UNL     1      66.352   7.168   6.247  1.00  0.00     0.050 A 
HETATM   11  C   UNL     1      65.815   8.144   5.436  1.00  0.00     0.020 A 
ENDBRANCH   2   7
BRANCH   1  12
HETATM   12  C   UNL     1      61.632   9.026   1.302  1.00  0.00     0.209 C 
HETATM   13  O   UNL     1      60.484   8.705   1.051  1.00  0.00    -0.644 OA
HETATM   14  O   UNL     1      62.569   9.072   0.340  1.00  0.00    -0.644 OA
ENDBRANCH   1  12
TORSDOF 2
ENDMDL
MODEL 4
REMARK VINA RESULT:      -5.1      2.420      3.168
REMARK  2 active torsions:
REMARK  status: ('A' for Active; 'I' for Inactive)
REMARK    1  A    between atoms: C_1  and  C_4 
REMARK    2  A    between atoms: C_2  and  C_3 
ROOT
HETATM    1  C   UNL     1      62.455   9.943   3.596  1.00  0.00     0.041 A 
HETATM    2  C   UNL     1      63.067   7.792   2.630  1.00  0.00    -0.024 A 
HETATM    3  C   UNL     1      63.085   8.696   3.704  1.00  0.00     0.030 A 
HETATM    4  C   UNL     1      61.813  10.300   2.405  1.00  0.00     0.018 A 
HETATM    5  C   UNL     1      62.405   8.162   1.449  1.00  0.00     0.012 A 
HETATM    6  C   UNL     1      61.789   9.410   1.334  1.00  0.00     0.002 A 
ENDROOT
BRANCH   2   7
HETATM    7  C   UNL     1      63.716   6.485   2.758  1.00  0.00    -0.019 A 
HETATM    8  C   UNL     1      64.205   6.019   3.966  1.00  0.00     0.061 A 
HETATM    9  S   UNL     1      64.919   4.468   3.845  1.00  0.00    -0.113 SA
HETATM   10  C   UNL     1      64.571   4.383   2.176  1.00  0.00     0.050 A 
HETATM   11  C   UNL     1      63.930   5.514   1.723  1.00  0.00     0.020 A 
ENDBRANCH   2   7
BRANCH   1  12
HETATM   12  C   UNL     1      62.437  10.912   4.718  1.00  0.00     0.209 C 
HETATM   13  O   UNL     1      61.975  12.038   4.682  1.00  0.00    -0.644 OA
HETATM   14  O   UNL     1      62.987  10.420   5.843  1.00  0.00    -0.644 OA
ENDBRANCH   1  12
TORSDOF 2
ENDMDL
MODEL 5
REMARK VINA RESULT:      -5.1      3.122      4.824
REMARK  2 active torsions:
REMARK  status: ('A' for Active; 'I' for Inactive)
REMARK    1  A    between atoms: C_1  and  C_4 
REMARK    2  A    between atoms: C_2  and  C_3 
ROOT
HETATM    1  C   UNL     1      63.185   9.737   4.771  1.00  0.00     0.041 A 
HETATM    2  C   UNL     1      62.690   8.060   3.075  1.00  0.00    -0.024 A 
HETATM    3  C   UNL     1      62.377   9.262   3.728  1.00  0.00     0.030 A 
HETATM    4  C   UNL     1      64.306   9.003   5.175  1.00  0.00     0.018 A 
HETATM    5  C   UNL     1      63.826   7.346   3.484  1.00  0.00     0.012 A 
HETATM    6  C   UNL     1      64.625   7.810   4.532  1.00  0.00     0.002 A 
ENDROOT
BRANCH   2   7
HETATM    7  C   UNL     1      61.847   7.579   1.977  1.00  0.00    -0.019 A 
HETATM    8  C   UNL     1      60.691   8.236   1.592  1.00  0.00     0.061 A 
HETATM    9  S   UNL     1      59.889   7.469   0.289  1.00  0.00    -0.113 SA
HETATM   10  C   UNL     1      61.083   6.253   0.203  1.00  0.00     0.050 A 
HETATM   11  C   UNL     1      62.068   6.427   1.150  1.00  0.00     0.020 A 
ENDBRANCH   2   7
BRANCH   1  12
HETATM   12  C   UNL     1      62.895  11.013   5.468  1.00  0.00     0.209 C 
HETATM   13  O   UNL     1      63.332  11.348   6.554  1.00  0.00    -0.644 OA
HETATM   14  O   UNL     1      62.083  11.821   4.764  1.00  0.00    -0.644 OA
ENDBRANCH   1  12
TORSDOF 2
ENDMDL
MODEL 6
REMARK VINA RESULT:      -4.9      4.125      6.196
REMARK  2 active torsions:
REMARK  status: ('A' for Active; 'I' for Inactive)
REMARK    1  A    between atoms: C_1  and  C_4 
REMARK    2  A    between atoms: C_2  and  C_3 
ROOT
HETATM    1  C   UNL     1      66.427   6.479   7.228  1.00  0.00     0.041 A 
HETATM    2  C   UNL     1      65.442   7.601   5.303  1.00  0.00    -0.024 A 
HETATM    3  C   UNL     1      65.320   7.056   6.591  1.00  0.00     0.030 A 
HETATM    4  C   UNL     1      67.662   6.431   6.574  1.00  0.00     0.018 A 
HETATM    5  C   UNL     1      66.694   7.557   4.669  1.00  0.00     0.012 A 
HETATM    6  C   UNL     1      67.795   6.970   5.296  1.00  0.00     0.002 A 
ENDROOT
BRANCH   2   7
HETATM    7  C   UNL     1      64.283   8.215   4.651  1.00  0.00    -0.019 A 
HETATM    8  C   UNL     1      63.717   7.688   3.503  1.00  0.00     0.061 A 
HETATM    9  S   UNL     1      62.379   8.595   2.941  1.00  0.00    -0.113 SA
HETATM   10  C   UNL     1      62.519   9.700   4.233  1.00  0.00     0.050 A 
HETATM   11  C   UNL     1      63.567   9.386   5.071  1.00  0.00     0.020 A 
ENDBRANCH   2   7
BRANCH   1  12
HETATM   12  C   UNL     1      66.337   5.914   8.596  1.00  0.00     0.209 C 
HETATM   13  O   UNL     1      66.313   6.553   9.632  1.00  0.00    -0.644 OA
HETATM   14  O   UNL     1      66.265   4.571   8.604  1.00  0.00    -0.644 OA
ENDBRANCH   1  12
TORSDOF 2
ENDMDL
MODEL 7
REMARK VINA RESULT:      -4.6      3.779      4.897
REMARK  2 active torsions:
REMARK  status: ('A' for Active; 'I' for Inactive)
REMARK    1  A    between atoms: C_1  and  C_4 
REMARK    2  A    between atoms: C_2  and  C_3 
ROOT
HETATM    1  C   UNL     1      61.794   9.712   3.133  1.00  0.00     0.041 A 
HETATM    2  C   UNL     1      60.676   7.625   2.560  1.00  0.00    -0.024 A 
HETATM    3  C   UNL     1      61.069   8.574   3.516  1.00  0.00     0.030 A 
HETATM    4  C   UNL     1      62.142   9.899   1.791  1.00  0.00     0.018 A 
HETATM    5  C   UNL     1      61.022   7.838   1.217  1.00  0.00     0.012 A 
HETATM    6  C   UNL     1      61.756   8.963   0.835  1.00  0.00     0.002 A 
ENDROOT
BRANCH   2   7
HETATM    7  C   UNL     1      59.907   6.446   2.967  1.00  0.00    -0.019 A 
HETATM    8  C   UNL     1      59.532   5.463   2.068  1.00  0.00     0.061 A 
HETATM    9  S   UNL     1      58.639   4.197   2.795  1.00  0.00    -0.113 SA
HETATM   10  C   UNL     1      58.752   4.932   4.331  1.00  0.00     0.050 A 
HETATM   11  C   UNL     1      59.451   6.118   4.288  1.00  0.00     0.020 A 
ENDBRANCH   2   7
BRANCH   1  12
HETATM   12  C   UNL     1      62.206  10.745   4.114  1.00  0.00     0.209 C 
HETATM   13  O   UNL     1      62.762  10.538   5.177  1.00  0.00    -0.644 OA
HETATM   14  O   UNL     1      61.915  11.994   3.711  1.00  0.00    -0.644 OA
ENDBRANCH   1  12
TORSDOF 2
ENDMDL
MODEL 8
REMARK VINA RESULT:      -4.4      3.646      5.393
REMARK  2 active torsions:
REMARK  status: ('A' for Active; 'I' for Inactive)
REMARK    1  A    between atoms: C_1  and  C_4 
REMARK    2  A    between atoms: C_2  and  C_3 
ROOT
HETATM    1  C   UNL     1      65.352   7.450   4.814  1.00  0.00     0.041 A 
HETATM    2  C   UNL     1      63.688   7.130   3.065  1.00  0.00    -0.024 A 
HETATM    3  C   UNL     1      64.181   7.856   4.160  1.00  0.00     0.030 A 
HETATM    4  C   UNL     1      66.031   6.304   4.384  1.00  0.00     0.018 A 
HETATM    5  C   UNL     1      64.390   5.993   2.639  1.00  0.00     0.012 A 
HETATM    6  C   UNL     1      65.550   5.577   3.298  1.00  0.00     0.002 A 
ENDROOT
BRANCH   2   7
HETATM    7  C   UNL     1      62.471   7.571   2.378  1.00  0.00    -0.019 A 
HETATM    8  C   UNL     1      61.289   6.853   2.438  1.00  0.00     0.061 A 
HETATM    9  S   UNL     1      60.020   7.579   1.549  1.00  0.00    -0.113 SA
HETATM   10  C   UNL     1      61.023   8.878   1.081  1.00  0.00     0.050 A 
HETATM   11  C   UNL     1      62.298   8.757   1.589  1.00  0.00     0.020 A 
ENDBRANCH   2   7
BRANCH   1  12
HETATM   12  C   UNL     1      65.913   8.206   5.960  1.00  0.00     0.209 C 
HETATM   13  O   UNL     1      66.747   7.796   6.747  1.00  0.00    -0.644 OA
HETATM   14  O   UNL     1      65.414   9.451   6.060  1.00  0.00    -0.644 OA
ENDBRANCH   1  12
TORSDOF 2
ENDMDL
MODEL 9
REMARK VINA RESULT:      -4.3     12.360     13.497
REMARK  2 active torsions:
REMARK  status: ('A' for Active; 'I' for Inactive)
REMARK    1  A    between atoms: C_1  and  C_4 
REMARK    2  A    between atoms: C_2  and  C_3 
ROOT
HETATM    1  C   UNL     1      54.743   2.902  13.884  1.00  0.00     0.041 A 
HETATM    2  C   UNL     1      56.448   1.164  13.858  1.00  0.00    -0.024 A 
HETATM    3  C   UNL     1      56.032   2.468  13.549  1.00  0.00     0.030 A 
HETATM    4  C   UNL     1      53.855   2.028  14.521  1.00  0.00     0.018 A 
HETATM    5  C   UNL     1      55.549   0.306  14.510  1.00  0.00     0.012 A 
HETATM    6  C   UNL     1      54.259   0.732  14.833  1.00  0.00     0.002 A 
ENDROOT
BRANCH   2   7
HETATM    7  C   UNL     1      57.803   0.723  13.516  1.00  0.00    -0.019 A 
HETATM    8  C   UNL     1      58.142  -0.616  13.424  1.00  0.00     0.061 A 
HETATM    9  S   UNL     1      59.786  -0.862  13.014  1.00  0.00    -0.113 SA
HETATM   10  C   UNL     1      60.071   0.818  12.934  1.00  0.00     0.050 A 
HETATM   11  C   UNL     1      58.938   1.549  13.218  1.00  0.00     0.020 A 
ENDBRANCH   2   7
BRANCH   1  12
HETATM   12  C   UNL     1      54.279   4.280  13.592  1.00  0.00     0.209 C 
HETATM   13  O   UNL     1      54.349   5.232  14.347  1.00  0.00    -0.644 OA
HETATM   14  O   UNL     1      53.761   4.406  12.357  1.00  0.00    -0.644 OA
ENDBRANCH   1  12
TORSDOF 2
ENDMDL
