MODEL 1
REMARK VINA RESULT:      -5.7      0.000      0.000
REMARK  3 active torsions:
REMARK  status: ('A' for Active; 'I' for Inactive)
REMARK    1  A    between atoms: C_1  and  C_6 
REMARK    2  A    between atoms: C_2  and  C_7 
REMARK    3  A    between atoms: C_7  and  O_8 
ROOT
HETATM    1  C   UNL     1      63.377   9.102   4.495  1.00  0.00     0.094 A 
HETATM    2  C   UNL     1      62.809  10.345   4.748  1.00  0.00     0.002 A 
HETATM    3  O   UNL     1      62.972   8.660   3.261  1.00  0.00    -0.314 OA
HETATM    4  C   UNL     1      62.020  10.657   3.600  1.00  0.00     0.044 A 
HETATM    5  C   UNL     1      62.156   9.605   2.726  1.00  0.00     0.050 A 
HETATM    6  C   UNL     1      61.609   9.319   1.386  1.00  0.00     0.076 C 
ENDROOT
BRANCH   1   7
HETATM    7  C   UNL     1      64.250   8.185   5.229  1.00  0.00    -0.002 A 
HETATM    8  C   UNL     1      63.707   7.178   6.044  1.00  0.00     0.014 A 
HETATM    9  C   UNL     1      64.531   6.335   6.795  1.00  0.00     0.001 A 
HETATM   10  C   UNL     1      65.915   6.480   6.739  1.00  0.00     0.000 A 
HETATM   11  C   UNL     1      66.473   7.457   5.920  1.00  0.00     0.001 A 
HETATM   12  C   UNL     1      65.646   8.298   5.169  1.00  0.00     0.014 A 
ENDBRANCH   1   7
BRANCH   2  13
HETATM   13  C   UNL     1      62.938  11.204   5.956  1.00  0.00     0.205 C 
BRANCH  13  14
HETATM   14  O   UNL     1      64.293  11.490   6.277  1.00  0.00    -0.396 OA
HETATM   15  H   UNL     1      64.366  12.407   6.583  1.00  0.00     0.209 HD
ENDBRANCH  13  14
ENDBRANCH   2  13
TORSDOF 3
ENDMDL
MODEL 2
REMARK VINA RESULT:      -5.6      1.586      4.791
REMARK  3 active torsions:
REMARK  status: ('A' for Active; 'I' for Inactive)
REMARK    1  A    between atoms: C_1  and  C_6 
REMARK    2  A    between atoms: C_2  and  C_7 
REMARK    3  A    between atoms: C_7  and  O_8 
ROOT
HETATM    1  C   UNL     1      62.765   8.133   4.803  1.00  0.00     0.094 A 
HETATM    2  C   UNL     1      63.908   7.680   5.453  1.00  0.00     0.002 A 
HETATM    3  O   UNL     1      61.690   7.379   5.196  1.00  0.00    -0.314 OA
HETATM    4  C   UNL     1      63.485   6.592   6.276  1.00  0.00     0.044 A 
HETATM    5  C   UNL     1      62.131   6.453   6.087  1.00  0.00     0.050 A 
HETATM    6  C   UNL     1      61.118   5.533   6.637  1.00  0.00     0.076 C 
ENDROOT
BRANCH   1   7
HETATM    7  C   UNL     1      62.471   9.172   3.816  1.00  0.00    -0.002 A 
HETATM    8  C   UNL     1      62.231  10.495   4.221  1.00  0.00     0.014 A 
HETATM    9  C   UNL     1      61.892  11.484   3.292  1.00  0.00     0.001 A 
HETATM   10  C   UNL     1      61.793  11.167   1.939  1.00  0.00     0.000 A 
HETATM   11  C   UNL     1      62.049   9.867   1.516  1.00  0.00     0.001 A 
HETATM   12  C   UNL     1      62.390   8.880   2.448  1.00  0.00     0.014 A 
ENDBRANCH   1   7
BRANCH   2  13
HETATM   13  C   UNL     1      65.308   8.167   5.333  1.00  0.00     0.205 C 
BRANCH  13  14
HETATM   14  O   UNL     1      65.540   9.345   6.095  1.00  0.00    -0.396 OA
HETATM   15  H   UNL     1      64.784   9.945   6.002  1.00  0.00     0.209 HD
ENDBRANCH  13  14
ENDBRANCH   2  13
TORSDOF 3
ENDMDL
MODEL 3
REMARK VINA RESULT:      -5.4      1.683      5.092
REMARK  3 active torsions:
REMARK  status: ('A' for Active; 'I' for Inactive)
REMARK    1  A    between atoms: C_1  and  C_6 
REMARK    2  A    between atoms: C_2  and  C_7 
REMARK    3  A    between atoms: C_7  and  O_8 
ROOT
HETATM    1  C   UNL     1      63.600   8.453   4.835  1.00  0.00     0.094 A 
HETATM    2  C   UNL     1      63.262   7.330   5.582  1.00  0.00     0.002 A 
HETATM    3  O   UNL     1      64.912   8.777   5.068  1.00  0.00    -0.314 OA
HETATM    4  C   UNL     1      64.442   6.970   6.301  1.00  0.00     0.044 A 
HETATM    5  C   UNL     1      65.414   7.876   5.951  1.00  0.00     0.050 A 
HETATM    6  C   UNL     1      66.828   8.049   6.336  1.00  0.00     0.076 C 
ENDROOT
BRANCH   1   7
HETATM    7  C   UNL     1      62.891   9.345   3.916  1.00  0.00    -0.002 A 
HETATM    8  C   UNL     1      62.618   8.944   2.599  1.00  0.00     0.014 A 
HETATM    9  C   UNL     1      61.993   9.810   1.695  1.00  0.00     0.001 A 
HETATM   10  C   UNL     1      61.625  11.091   2.098  1.00  0.00     0.000 A 
HETATM   11  C   UNL     1      61.866  11.499   3.406  1.00  0.00     0.001 A 
HETATM   12  C   UNL     1      62.490  10.630   4.307  1.00  0.00     0.014 A 
ENDBRANCH   1   7
BRANCH   2  13
HETATM   13  C   UNL     1      61.956   6.625   5.674  1.00  0.00     0.205 C 
BRANCH  13  14
HETATM   14  O   UNL     1      61.427   6.632   6.994  1.00  0.00    -0.396 OA
HETATM   15  H   UNL     1      61.156   5.733   7.238  1.00  0.00     0.209 HD
ENDBRANCH  13  14
ENDBRANCH   2  13
TORSDOF 3
ENDMDL
MODEL 4
REMARK VINA RESULT:      -4.8      1.751      4.802
REMARK  3 active torsions:
REMARK  status: ('A' for Active; 'I' for Inactive)
REMARK    1  A    between atoms: C_1  and  C_6 
REMARK    2  A    between atoms: C_2  and  C_7 
REMARK    3  A    between atoms: C_7  and  O_8 
ROOT
HETATM    1  C   UNL     1      63.760   7.639   5.396  1.00  0.00     0.094 A 
HETATM    2  C   UNL     1      64.984   7.377   6.002  1.00  0.00     0.002 A 
HETATM    3  O   UNL     1      62.947   6.542   5.519  1.00  0.00    -0.314 OA
HETATM    4  C   UNL     1      64.890   6.046   6.511  1.00  0.00     0.044 A 
HETATM    5  C   UNL     1      63.635   5.586   6.196  1.00  0.00     0.050 A 
HETATM    6  C   UNL     1      62.928   4.314   6.437  1.00  0.00     0.076 C 
ENDROOT
BRANCH   1   7
HETATM    7  C   UNL     1      63.180   8.766   4.663  1.00  0.00    -0.002 A 
HETATM    8  C   UNL     1      63.014  10.014   5.285  1.00  0.00     0.014 A 
HETATM    9  C   UNL     1      62.408  11.080   4.613  1.00  0.00     0.001 A 
HETATM   10  C   UNL     1      61.964  10.918   3.303  1.00  0.00     0.000 A 
HETATM   11  C   UNL     1      62.140   9.696   2.662  1.00  0.00     0.001 A 
HETATM   12  C   UNL     1      62.748   8.631   3.337  1.00  0.00     0.014 A 
ENDBRANCH   1   7
BRANCH   2  13
HETATM   13  C   UNL     1      66.183   8.250   6.104  1.00  0.00     0.205 C 
BRANCH  13  14
HETATM   14  O   UNL     1      66.923   8.301   4.892  1.00  0.00    -0.396 OA
HETATM   15  H   UNL     1      67.787   8.709   5.057  1.00  0.00     0.209 HD
ENDBRANCH  13  14
ENDBRANCH   2  13
TORSDOF 3
ENDMDL
MODEL 5
REMARK VINA RESULT:      -4.8      2.510      5.035
REMARK  3 active torsions:
REMARK  status: ('A' for Active; 'I' for Inactive)
REMARK    1  A    between atoms: C_1  and  C_6 
REMARK    2  A    between atoms: C_2  and  C_7 
REMARK    3  A    between atoms: C_7  and  O_8 
ROOT
HETATM    1  C   UNL     1      61.555   7.554   4.440  1.00  0.00     0.094 A 
HETATM    2  C   UNL     1      62.397   6.902   5.333  1.00  0.00     0.002 A 
HETATM    3  O   UNL     1      60.327   6.945   4.445  1.00  0.00    -0.314 OA
HETATM    4  C   UNL     1      61.624   5.842   5.897  1.00  0.00     0.044 A 
HETATM    5  C   UNL     1      60.375   5.914   5.329  1.00  0.00     0.050 A 
HETATM    6  C   UNL     1      59.140   5.123   5.486  1.00  0.00     0.076 C 
ENDROOT
BRANCH   1   7
HETATM    7  C   UNL     1      61.687   8.681   3.515  1.00  0.00    -0.002 A 
HETATM    8  C   UNL     1      61.803   8.461   2.132  1.00  0.00     0.014 A 
HETATM    9  C   UNL     1      61.988   9.526   1.245  1.00  0.00     0.001 A 
HETATM   10  C   UNL     1      62.055  10.831   1.726  1.00  0.00     0.000 A 
HETATM   11  C   UNL     1      61.920  11.071   3.090  1.00  0.00     0.001 A 
HETATM   12  C   UNL     1      61.733  10.004   3.975  1.00  0.00     0.014 A 
ENDBRANCH   1   7
BRANCH   2  13
HETATM   13  C   UNL     1      63.822   7.185   5.652  1.00  0.00     0.205 C 
BRANCH  13  14
HETATM   14  O   UNL     1      64.039   7.374   7.044  1.00  0.00    -0.396 OA
HETATM   15  H   UNL     1      64.683   6.722   7.362  1.00  0.00     0.209 HD
ENDBRANCH  13  14
ENDBRANCH   2  13
TORSDOF 3
ENDMDL
MODEL 6
REMARK VINA RESULT:      -4.8      2.199      5.327
REMARK  3 active torsions:
REMARK  status: ('A' for Active; 'I' for Inactive)
REMARK    1  A    between atoms: C_1  and  C_6 
REMARK    2  A    between atoms: C_2  and  C_7 
REMARK    3  A    between atoms: C_7  and  O_8 
ROOT
HETATM    1  C   UNL     1      61.642   8.598   3.667  1.00  0.00     0.094 A 
HETATM    2  C   UNL     1      62.219   9.814   4.018  1.00  0.00     0.002 A 
HETATM    3  O   UNL     1      62.243   7.589   4.372  1.00  0.00    -0.314 OA
HETATM    4  C   UNL     1      63.223   9.505   4.985  1.00  0.00     0.044 A 
HETATM    5  C   UNL     1      63.194   8.143   5.168  1.00  0.00     0.050 A 
HETATM    6  C   UNL     1      63.964   7.216   6.019  1.00  0.00     0.076 C 
ENDROOT
BRANCH   1   7
HETATM    7  C   UNL     1      60.599   8.171   2.732  1.00  0.00    -0.002 A 
HETATM    8  C   UNL     1      60.756   8.362   1.350  1.00  0.00     0.014 A 
HETATM    9  C   UNL     1      59.742   8.011   0.453  1.00  0.00     0.001 A 
HETATM   10  C   UNL     1      58.555   7.455   0.924  1.00  0.00     0.000 A 
HETATM   11  C   UNL     1      58.390   7.237   2.288  1.00  0.00     0.001 A 
HETATM   12  C   UNL     1      59.407   7.589   3.183  1.00  0.00     0.014 A 
ENDBRANCH   1   7
BRANCH   2  13
HETATM   13  C   UNL     1      61.915  11.177   3.505  1.00  0.00     0.205 C 
BRANCH  13  14
HETATM   14  O   UNL     1      62.135  12.186   4.482  1.00  0.00    -0.396 OA
HETATM   15  H   UNL     1      62.043  11.804   5.368  1.00  0.00     0.209 HD
ENDBRANCH  13  14
ENDBRANCH   2  13
TORSDOF 3
ENDMDL
MODEL 7
REMARK VINA RESULT:      -4.6      1.762      4.818
REMARK  3 active torsions:
REMARK  status: ('A' for Active; 'I' for Inactive)
REMARK    1  A    between atoms: C_1  and  C_6 
REMARK    2  A    between atoms: C_2  and  C_7 
REMARK    3  A    between atoms: C_7  and  O_8 
ROOT
HETATM    1  C   UNL     1      63.686   7.515   5.363  1.00  0.00     0.094 A 
HETATM    2  C   UNL     1      64.917   7.306   5.975  1.00  0.00     0.002 A 
HETATM    3  O   UNL     1      62.904   6.400   5.520  1.00  0.00    -0.314 OA
HETATM    4  C   UNL     1      64.862   5.989   6.522  1.00  0.00     0.044 A 
HETATM    5  C   UNL     1      63.620   5.484   6.223  1.00  0.00     0.050 A 
HETATM    6  C   UNL     1      62.951   4.199   6.503  1.00  0.00     0.076 C 
ENDROOT
BRANCH   1   7
HETATM    7  C   UNL     1      63.073   8.603   4.599  1.00  0.00    -0.002 A 
HETATM    8  C   UNL     1      62.714   8.418   3.254  1.00  0.00     0.014 A 
HETATM    9  C   UNL     1      62.182   9.467   2.498  1.00  0.00     0.001 A 
HETATM   10  C   UNL     1      61.993  10.719   3.078  1.00  0.00     0.000 A 
HETATM   11  C   UNL     1      62.320  10.916   4.415  1.00  0.00     0.001 A 
HETATM   12  C   UNL     1      62.852   9.864   5.169  1.00  0.00     0.014 A 
ENDBRANCH   1   7
BRANCH   2  13
HETATM   13  C   UNL     1      66.091   8.216   6.049  1.00  0.00     0.205 C 
BRANCH  13  14
HETATM   14  O   UNL     1      66.813   8.271   4.826  1.00  0.00    -0.396 OA
HETATM   15  H   UNL     1      66.311   8.787   4.176  1.00  0.00     0.209 HD
ENDBRANCH  13  14
ENDBRANCH   2  13
TORSDOF 3
ENDMDL
MODEL 8
REMARK VINA RESULT:      -4.6      1.839      3.314
REMARK  3 active torsions:
REMARK  status: ('A' for Active; 'I' for Inactive)
REMARK    1  A    between atoms: C_1  and  C_6 
REMARK    2  A    between atoms: C_2  and  C_7 
REMARK    3  A    between atoms: C_7  and  O_8 
ROOT
HETATM    1  C   UNL     1      62.791   8.586   3.120  1.00  0.00     0.094 A 
HETATM    2  C   UNL     1      62.443   8.180   1.836  1.00  0.00     0.002 A 
HETATM    3  O   UNL     1      62.534   9.925   3.258  1.00  0.00    -0.314 OA
HETATM    4  C   UNL     1      61.955   9.348   1.176  1.00  0.00     0.044 A 
HETATM    5  C   UNL     1      62.027  10.378   2.082  1.00  0.00     0.050 A 
HETATM    6  C   UNL     1      61.679  11.810   2.023  1.00  0.00     0.076 C 
ENDROOT
BRANCH   1   7
HETATM    7  C   UNL     1      63.371   7.937   4.297  1.00  0.00    -0.002 A 
HETATM    8  C   UNL     1      62.610   7.044   5.068  1.00  0.00     0.014 A 
HETATM    9  C   UNL     1      63.134   6.463   6.227  1.00  0.00     0.001 A 
HETATM   10  C   UNL     1      64.433   6.762   6.632  1.00  0.00     0.000 A 
HETATM   11  C   UNL     1      65.210   7.628   5.869  1.00  0.00     0.001 A 
HETATM   12  C   UNL     1      64.683   8.206   4.709  1.00  0.00     0.014 A 
ENDBRANCH   1   7
BRANCH   2  13
HETATM   13  C   UNL     1      62.561   6.833   1.217  1.00  0.00     0.205 C 
BRANCH  13  14
HETATM   14  O   UNL     1      61.591   6.616   0.200  1.00  0.00    -0.396 OA
HETATM   15  H   UNL     1      60.793   6.227   0.592  1.00  0.00     0.209 HD
ENDBRANCH  13  14
ENDBRANCH   2  13
TORSDOF 3
ENDMDL
MODEL 9
REMARK VINA RESULT:      -4.4      2.492      3.674
REMARK  3 active torsions:
REMARK  status: ('A' for Active; 'I' for Inactive)
REMARK    1  A    between atoms: C_1  and  C_6 
REMARK    2  A    between atoms: C_2  and  C_7 
REMARK    3  A    between atoms: C_7  and  O_8 
ROOT
HETATM    1  C   UNL     1      64.224   6.596   6.438  1.00  0.00     0.094 A 
HETATM    2  C   UNL     1      63.778   7.641   5.637  1.00  0.00     0.002 A 
HETATM    3  O   UNL     1      63.155   5.831   6.826  1.00  0.00    -0.314 OA
HETATM    4  C   UNL     1      62.361   7.488   5.549  1.00  0.00     0.044 A 
HETATM    5  C   UNL     1      62.034   6.374   6.284  1.00  0.00     0.050 A 
HETATM    6  C   UNL     1      60.761   5.692   6.584  1.00  0.00     0.076 C 
ENDROOT
BRANCH   1   7
HETATM    7  C   UNL     1      65.522   6.163   6.959  1.00  0.00    -0.002 A 
HETATM    8  C   UNL     1      65.988   6.633   8.197  1.00  0.00     0.014 A 
HETATM    9  C   UNL     1      67.251   6.272   8.678  1.00  0.00     0.001 A 
HETATM   10  C   UNL     1      68.067   5.428   7.929  1.00  0.00     0.000 A 
HETATM   11  C   UNL     1      67.614   4.934   6.710  1.00  0.00     0.001 A 
HETATM   12  C   UNL     1      66.350   5.296   6.233  1.00  0.00     0.014 A 
ENDBRANCH   1   7
BRANCH   2  13
HETATM   13  C   UNL     1      64.561   8.734   5.002  1.00  0.00     0.205 C 
BRANCH  13  14
HETATM   14  O   UNL     1      65.271   9.516   5.953  1.00  0.00    -0.396 OA
HETATM   15  H   UNL     1      65.329   9.033   6.791  1.00  0.00     0.209 HD
ENDBRANCH  13  14
ENDBRANCH   2  13
TORSDOF 3
ENDMDL
