MODEL 1
REMARK VINA RESULT:      -6.0      0.000      0.000
REMARK  2 active torsions:
REMARK  status: ('A' for Active; 'I' for Inactive)
REMARK    1  A    between atoms: C_1  and  C_5 
REMARK    2  A    between atoms: C_2  and  C_7 
ROOT
HETATM    1  C   UNL     1      63.860   7.700   5.488  1.00  0.00     0.077 A 
HETATM    2  C   UNL     1      62.717   8.135   4.835  1.00  0.00     0.103 A 
HETATM    3  O   UNL     1      61.649   7.361   5.209  1.00  0.00    -0.314 OA
HETATM    4  C   UNL     1      63.460   6.570   6.266  1.00  0.00     0.053 A 
HETATM    5  C   UNL     1      62.108   6.413   6.070  1.00  0.00     0.051 A 
HETATM    6  C   UNL     1      61.113   5.454   6.588  1.00  0.00     0.077 C 
ENDROOT
BRANCH   2   7
HETATM    7  C   UNL     1      62.428   9.162   3.834  1.00  0.00    -0.001 A 
HETATM    8  C   UNL     1      62.202  10.492   4.224  1.00  0.00     0.014 A 
HETATM    9  C   UNL     1      61.868  11.472   3.289  1.00  0.00     0.001 A 
HETATM   10  C   UNL     1      61.783  11.144   1.941  1.00  0.00     0.000 A 
HETATM   11  C   UNL     1      62.040   9.838   1.528  1.00  0.00     0.001 A 
HETATM   12  C   UNL     1      62.363   8.856   2.469  1.00  0.00     0.014 A 
ENDBRANCH   2   7
BRANCH   1  13
HETATM   13  C   UNL     1      65.178   8.279   5.392  1.00  0.00     0.212 C 
HETATM   14  O   UNL     1      66.170   7.762   4.901  1.00  0.00    -0.644 OA
HETATM   15  O   UNL     1      65.279   9.508   5.941  1.00  0.00    -0.644 OA
ENDBRANCH   1  13
TORSDOF 2
ENDMDL
MODEL 2
REMARK VINA RESULT:      -5.8      1.847      4.824
REMARK  2 active torsions:
REMARK  status: ('A' for Active; 'I' for Inactive)
REMARK    1  A    between atoms: C_1  and  C_5 
REMARK    2  A    between atoms: C_2  and  C_7 
ROOT
HETATM    1  C   UNL     1      62.556  10.039   3.852  1.00  0.00     0.077 A 
HETATM    2  C   UNL     1      63.217   8.822   3.899  1.00  0.00     0.103 A 
HETATM    3  O   UNL     1      63.057   8.165   2.707  1.00  0.00    -0.314 OA
HETATM    4  C   UNL     1      61.927  10.095   2.570  1.00  0.00     0.053 A 
HETATM    5  C   UNL     1      62.271   8.938   1.910  1.00  0.00     0.051 A 
HETATM    6  C   UNL     1      61.957   8.404   0.572  1.00  0.00     0.077 C 
ENDROOT
BRANCH   2   7
HETATM    7  C   UNL     1      63.968   8.093   4.921  1.00  0.00    -0.001 A 
HETATM    8  C   UNL     1      65.317   8.401   5.166  1.00  0.00     0.014 A 
HETATM    9  C   UNL     1      66.065   7.678   6.097  1.00  0.00     0.001 A 
HETATM   10  C   UNL     1      65.467   6.652   6.820  1.00  0.00     0.000 A 
HETATM   11  C   UNL     1      64.119   6.356   6.619  1.00  0.00     0.001 A 
HETATM   12  C   UNL     1      63.377   7.074   5.678  1.00  0.00     0.014 A 
ENDBRANCH   2   7
BRANCH   1  13
HETATM   13  C   UNL     1      62.520  11.038   4.893  1.00  0.00     0.212 C 
HETATM   14  O   UNL     1      62.984  10.940   6.019  1.00  0.00    -0.644 OA
HETATM   15  O   UNL     1      61.869  12.170   4.546  1.00  0.00    -0.644 OA
ENDBRANCH   1  13
TORSDOF 2
ENDMDL
MODEL 3
REMARK VINA RESULT:      -5.6      1.010      3.204
REMARK  2 active torsions:
REMARK  status: ('A' for Active; 'I' for Inactive)
REMARK    1  A    between atoms: C_1  and  C_5 
REMARK    2  A    between atoms: C_2  and  C_7 
ROOT
HETATM    1  C   UNL     1      63.176   7.231   5.701  1.00  0.00     0.077 A 
HETATM    2  C   UNL     1      63.579   8.280   4.889  1.00  0.00     0.103 A 
HETATM    3  O   UNL     1      64.914   8.525   5.081  1.00  0.00    -0.314 OA
HETATM    4  C   UNL     1      64.330   6.855   6.456  1.00  0.00     0.053 A 
HETATM    5  C   UNL     1      65.360   7.663   6.035  1.00  0.00     0.051 A 
HETATM    6  C   UNL     1      66.783   7.769   6.408  1.00  0.00     0.077 C 
ENDROOT
BRANCH   2   7
HETATM    7  C   UNL     1      62.904   9.178   3.953  1.00  0.00    -0.001 A 
HETATM    8  C   UNL     1      62.656   8.773   2.632  1.00  0.00     0.014 A 
HETATM    9  C   UNL     1      62.065   9.638   1.709  1.00  0.00     0.001 A 
HETATM   10  C   UNL     1      61.686  10.917   2.103  1.00  0.00     0.000 A 
HETATM   11  C   UNL     1      61.889  11.325   3.420  1.00  0.00     0.001 A 
HETATM   12  C   UNL     1      62.491  10.460   4.337  1.00  0.00     0.014 A 
ENDBRANCH   2   7
BRANCH   1  13
HETATM   13  C   UNL     1      61.857   6.648   5.762  1.00  0.00     0.212 C 
HETATM   14  O   UNL     1      61.190   6.248   4.821  1.00  0.00    -0.644 OA
HETATM   15  O   UNL     1      61.342   6.586   7.008  1.00  0.00    -0.644 OA
ENDBRANCH   1  13
TORSDOF 2
ENDMDL
MODEL 4
REMARK VINA RESULT:      -5.4      1.293      1.682
REMARK  2 active torsions:
REMARK  status: ('A' for Active; 'I' for Inactive)
REMARK    1  A    between atoms: C_1  and  C_5 
REMARK    2  A    between atoms: C_2  and  C_7 
ROOT
HETATM    1  C   UNL     1      65.107   7.263   5.902  1.00  0.00     0.077 A 
HETATM    2  C   UNL     1      63.847   7.522   5.384  1.00  0.00     0.103 A 
HETATM    3  O   UNL     1      63.039   6.430   5.570  1.00  0.00    -0.314 OA
HETATM    4  C   UNL     1      65.063   5.920   6.386  1.00  0.00     0.053 A 
HETATM    5  C   UNL     1      63.784   5.463   6.171  1.00  0.00     0.051 A 
HETATM    6  C   UNL     1      63.104   4.184   6.450  1.00  0.00     0.077 C 
ENDROOT
BRANCH   2   7
HETATM    7  C   UNL     1      63.236   8.640   4.665  1.00  0.00    -0.001 A 
HETATM    8  C   UNL     1      63.091   9.891   5.286  1.00  0.00     0.014 A 
HETATM    9  C   UNL     1      62.459  10.952   4.636  1.00  0.00     0.001 A 
HETATM   10  C   UNL     1      61.985  10.786   3.339  1.00  0.00     0.000 A 
HETATM   11  C   UNL     1      62.153   9.563   2.691  1.00  0.00     0.001 A 
HETATM   12  C   UNL     1      62.776   8.500   3.350  1.00  0.00     0.014 A 
ENDBRANCH   2   7
BRANCH   1  13
HETATM   13  C   UNL     1      66.226   8.175   5.937  1.00  0.00     0.212 C 
HETATM   14  O   UNL     1      66.563   8.883   6.872  1.00  0.00    -0.644 OA
HETATM   15  O   UNL     1      66.922   8.233   4.781  1.00  0.00    -0.644 OA
ENDBRANCH   1  13
TORSDOF 2
ENDMDL
MODEL 5
REMARK VINA RESULT:      -5.3      2.223      3.264
REMARK  2 active torsions:
REMARK  status: ('A' for Active; 'I' for Inactive)
REMARK    1  A    between atoms: C_1  and  C_5 
REMARK    2  A    between atoms: C_2  and  C_7 
ROOT
HETATM    1  C   UNL     1      63.550   9.353   4.759  1.00  0.00     0.077 A 
HETATM    2  C   UNL     1      63.184   8.413   3.808  1.00  0.00     0.103 A 
HETATM    3  O   UNL     1      64.098   7.391   3.795  1.00  0.00    -0.314 OA
HETATM    4  C   UNL     1      64.780   8.887   5.317  1.00  0.00     0.053 A 
HETATM    5  C   UNL     1      65.063   7.688   4.706  1.00  0.00     0.051 A 
HETATM    6  C   UNL     1      66.165   6.717   4.842  1.00  0.00     0.077 C 
ENDROOT
BRANCH   2   7
HETATM    7  C   UNL     1      62.110   8.308   2.820  1.00  0.00    -0.001 A 
HETATM    8  C   UNL     1      60.848   7.818   3.191  1.00  0.00     0.014 A 
HETATM    9  C   UNL     1      59.830   7.656   2.250  1.00  0.00     0.001 A 
HETATM   10  C   UNL     1      60.050   8.010   0.923  1.00  0.00     0.000 A 
HETATM   11  C   UNL     1      61.285   8.534   0.541  1.00  0.00     0.001 A 
HETATM   12  C   UNL     1      62.305   8.683   1.485  1.00  0.00     0.014 A 
ENDBRANCH   2   7
BRANCH   1  13
HETATM   13  C   UNL     1      62.826  10.554   5.103  1.00  0.00     0.212 C 
HETATM   14  O   UNL     1      61.990  11.125   4.421  1.00  0.00    -0.644 OA
HETATM   15  O   UNL     1      63.166  11.074   6.302  1.00  0.00    -0.644 OA
ENDBRANCH   1  13
TORSDOF 2
ENDMDL
MODEL 6
REMARK VINA RESULT:      -5.2      1.340      3.101
REMARK  2 active torsions:
REMARK  status: ('A' for Active; 'I' for Inactive)
REMARK    1  A    between atoms: C_1  and  C_5 
REMARK    2  A    between atoms: C_2  and  C_7 
ROOT
HETATM    1  C   UNL     1      61.858   6.868   5.028  1.00  0.00     0.077 A 
HETATM    2  C   UNL     1      62.602   7.961   4.610  1.00  0.00     0.103 A 
HETATM    3  O   UNL     1      63.806   7.975   5.265  1.00  0.00    -0.314 OA
HETATM    4  C   UNL     1      62.646   6.215   6.025  1.00  0.00     0.053 A 
HETATM    5  C   UNL     1      63.822   6.920   6.124  1.00  0.00     0.051 A 
HETATM    6  C   UNL     1      65.034   6.758   6.949  1.00  0.00     0.077 C 
ENDROOT
BRANCH   2   7
HETATM    7  C   UNL     1      62.369   9.083   3.701  1.00  0.00    -0.001 A 
HETATM    8  C   UNL     1      62.157  10.376   4.207  1.00  0.00     0.014 A 
HETATM    9  C   UNL     1      61.876  11.447   3.358  1.00  0.00     0.001 A 
HETATM   10  C   UNL     1      61.830  11.247   1.983  1.00  0.00     0.000 A 
HETATM   11  C   UNL     1      62.074   9.979   1.458  1.00  0.00     0.001 A 
HETATM   12  C   UNL     1      62.344   8.907   2.312  1.00  0.00     0.014 A 
ENDBRANCH   2   7
BRANCH   1  13
HETATM   13  C   UNL     1      60.553   6.482   4.545  1.00  0.00     0.212 C 
HETATM   14  O   UNL     1      59.511   6.473   5.181  1.00  0.00    -0.644 OA
HETATM   15  O   UNL     1      60.544   6.069   3.259  1.00  0.00    -0.644 OA
ENDBRANCH   1  13
TORSDOF 2
ENDMDL
MODEL 7
REMARK VINA RESULT:      -5.2      1.966      4.686
REMARK  2 active torsions:
REMARK  status: ('A' for Active; 'I' for Inactive)
REMARK    1  A    between atoms: C_1  and  C_5 
REMARK    2  A    between atoms: C_2  and  C_7 
ROOT
HETATM    1  C   UNL     1      62.852   9.542   4.432  1.00  0.00     0.077 A 
HETATM    2  C   UNL     1      63.563   8.354   4.499  1.00  0.00     0.103 A 
HETATM    3  O   UNL     1      63.073   7.472   3.571  1.00  0.00    -0.314 OA
HETATM    4  C   UNL     1      61.848   9.343   3.435  1.00  0.00     0.053 A 
HETATM    5  C   UNL     1      62.032   8.075   2.936  1.00  0.00     0.051 A 
HETATM    6  C   UNL     1      61.343   7.284   1.899  1.00  0.00     0.077 C 
ENDROOT
BRANCH   2   7
HETATM    7  C   UNL     1      64.640   7.841   5.346  1.00  0.00    -0.001 A 
HETATM    8  C   UNL     1      64.352   6.991   6.425  1.00  0.00     0.014 A 
HETATM    9  C   UNL     1      65.360   6.539   7.277  1.00  0.00     0.001 A 
HETATM   10  C   UNL     1      66.681   6.908   7.046  1.00  0.00     0.000 A 
HETATM   11  C   UNL     1      66.993   7.721   5.957  1.00  0.00     0.001 A 
HETATM   12  C   UNL     1      65.979   8.181   5.113  1.00  0.00     0.014 A 
ENDBRANCH   2   7
BRANCH   1  13
HETATM   13  C   UNL     1      63.089  10.731   5.217  1.00  0.00     0.212 C 
HETATM   14  O   UNL     1      63.965  10.894   6.051  1.00  0.00    -0.644 OA
HETATM   15  O   UNL     1      62.206  11.726   4.986  1.00  0.00    -0.644 OA
ENDBRANCH   1  13
TORSDOF 2
ENDMDL
MODEL 8
REMARK VINA RESULT:      -4.9      2.017      4.814
REMARK  2 active torsions:
REMARK  status: ('A' for Active; 'I' for Inactive)
REMARK    1  A    between atoms: C_1  and  C_5 
REMARK    2  A    between atoms: C_2  and  C_7 
ROOT
HETATM    1  C   UNL     1      62.276   7.546   4.717  1.00  0.00     0.077 A 
HETATM    2  C   UNL     1      63.473   7.741   4.045  1.00  0.00     0.103 A 
HETATM    3  O   UNL     1      63.228   8.323   2.828  1.00  0.00    -0.314 OA
HETATM    4  C   UNL     1      61.251   7.998   3.830  1.00  0.00     0.053 A 
HETATM    5  C   UNL     1      61.882   8.470   2.703  1.00  0.00     0.051 A 
HETATM    6  C   UNL     1      61.396   9.069   1.445  1.00  0.00     0.077 C 
ENDROOT
BRANCH   2   7
HETATM    7  C   UNL     1      64.874   7.424   4.318  1.00  0.00    -0.001 A 
HETATM    8  C   UNL     1      65.503   6.353   3.661  1.00  0.00     0.014 A 
HETATM    9  C   UNL     1      66.821   6.001   3.952  1.00  0.00     0.001 A 
HETATM   10  C   UNL     1      67.544   6.733   4.887  1.00  0.00     0.000 A 
HETATM   11  C   UNL     1      66.951   7.823   5.523  1.00  0.00     0.001 A 
HETATM   12  C   UNL     1      65.627   8.166   5.237  1.00  0.00     0.014 A 
ENDBRANCH   2   7
BRANCH   1  13
HETATM   13  C   UNL     1      62.114   6.996   6.041  1.00  0.00     0.212 C 
HETATM   14  O   UNL     1      61.571   5.942   6.335  1.00  0.00    -0.644 OA
HETATM   15  O   UNL     1      62.605   7.780   7.025  1.00  0.00    -0.644 OA
ENDBRANCH   1  13
TORSDOF 2
ENDMDL
MODEL 9
REMARK VINA RESULT:      -4.9      2.291      5.285
REMARK  2 active torsions:
REMARK  status: ('A' for Active; 'I' for Inactive)
REMARK    1  A    between atoms: C_1  and  C_5 
REMARK    2  A    between atoms: C_2  and  C_7 
ROOT
HETATM    1  C   UNL     1      63.564   8.050   3.935  1.00  0.00     0.077 A 
HETATM    2  C   UNL     1      64.419   8.328   4.989  1.00  0.00     0.103 A 
HETATM    3  O   UNL     1      64.090   9.539   5.542  1.00  0.00    -0.314 OA
HETATM    4  C   UNL     1      62.700   9.182   3.822  1.00  0.00     0.053 A 
HETATM    5  C   UNL     1      63.053  10.052   4.826  1.00  0.00     0.051 A 
HETATM    6  C   UNL     1      62.549  11.372   5.248  1.00  0.00     0.077 C 
ENDROOT
BRANCH   2   7
HETATM    7  C   UNL     1      65.581   7.664   5.580  1.00  0.00    -0.001 A 
HETATM    8  C   UNL     1      66.838   7.746   4.960  1.00  0.00     0.014 A 
HETATM    9  C   UNL     1      67.944   7.071   5.479  1.00  0.00     0.001 A 
HETATM   10  C   UNL     1      67.817   6.324   6.644  1.00  0.00     0.000 A 
HETATM   11  C   UNL     1      66.586   6.260   7.295  1.00  0.00     0.001 A 
HETATM   12  C   UNL     1      65.478   6.928   6.767  1.00  0.00     0.014 A 
ENDBRANCH   2   7
BRANCH   1  13
HETATM   13  C   UNL     1      63.559   6.855   3.124  1.00  0.00     0.212 C 
HETATM   14  O   UNL     1      63.862   5.727   3.481  1.00  0.00    -0.644 OA
HETATM   15  O   UNL     1      63.202   7.066   1.839  1.00  0.00    -0.644 OA
ENDBRANCH   1  13
TORSDOF 2
ENDMDL
