MODEL 1
REMARK VINA RESULT:      -5.8      0.000      0.000
REMARK  4 active torsions:
REMARK  status: ('A' for Active; 'I' for Inactive)
REMARK    1  A    between atoms: C_1  and  O_2 
REMARK    2  A    between atoms: O_2  and  C_4 
REMARK    3  A    between atoms: C_3  and  C_5 
REMARK    4  A    between atoms: C_5  and  O_6 
ROOT
HETATM    1  C   UNL     1      63.245   8.985   4.713  1.00  0.00     0.084 C 
HETATM    2  C   UNL     1      62.792  10.313   4.764  1.00  0.00    -0.001 C 
HETATM    3  C   UNL     1      63.134   8.263   3.510  1.00  0.00     0.038 C 
HETATM    4  C   UNL     1      62.100  10.830   3.655  1.00  0.00     0.012 C 
HETATM    5  C   UNL     1      61.892  10.058   2.512  1.00  0.00     0.001 C 
HETATM    6  C   UNL     1      62.429   8.783   2.430  1.00  0.00     0.003 C 
ENDROOT
BRANCH   1   7
HETATM    7  O   UNL     1      63.799   8.412   5.848  1.00  0.00    -0.310 OA
BRANCH   7   8
HETATM    8  C   UNL     1      64.948   7.661   5.674  1.00  0.00     0.076 A 
HETATM    9  C   UNL     1      66.110   8.329   5.286  1.00  0.00     0.037 A 
HETATM   10  C   UNL     1      67.255   7.597   4.958  1.00  0.00     0.003 A 
HETATM   11  C   UNL     1      67.239   6.202   5.020  1.00  0.00     0.000 A 
HETATM   12  C   UNL     1      66.099   5.537   5.467  1.00  0.00     0.003 A 
HETATM   13  C   UNL     1      64.968   6.267   5.831  1.00  0.00     0.037 A 
ENDBRANCH   7   8
ENDBRANCH   1   7
BRANCH   2  14
HETATM   14  C   UNL     1      62.996  11.211   5.958  1.00  0.00     0.205 C 
BRANCH  14  15
HETATM   15  O   UNL     1      64.387  11.319   6.256  1.00  0.00    -0.396 OA
HETATM   16  H   UNL     1      64.604  10.737   7.000  1.00  0.00     0.209 HD
ENDBRANCH  14  15
ENDBRANCH   2  14
TORSDOF 4
ENDMDL
MODEL 2
REMARK VINA RESULT:      -5.2      1.453      4.800
REMARK  4 active torsions:
REMARK  status: ('A' for Active; 'I' for Inactive)
REMARK    1  A    between atoms: C_1  and  O_2 
REMARK    2  A    between atoms: O_2  and  C_4 
REMARK    3  A    between atoms: C_3  and  C_5 
REMARK    4  A    between atoms: C_5  and  O_6 
ROOT
HETATM    1  C   UNL     1      63.266   7.745   5.836  1.00  0.00     0.084 C 
HETATM    2  C   UNL     1      64.533   7.149   5.735  1.00  0.00    -0.001 C 
HETATM    3  C   UNL     1      62.154   6.950   6.171  1.00  0.00     0.038 C 
HETATM    4  C   UNL     1      64.626   5.748   5.821  1.00  0.00     0.012 C 
HETATM    5  C   UNL     1      63.493   4.963   6.034  1.00  0.00     0.001 C 
HETATM    6  C   UNL     1      62.260   5.565   6.233  1.00  0.00     0.003 C 
ENDROOT
BRANCH   1   7
HETATM    7  O   UNL     1      63.135   9.107   5.609  1.00  0.00    -0.310 OA
BRANCH   7   8
HETATM    8  C   UNL     1      62.790   9.498   4.327  1.00  0.00     0.076 A 
HETATM    9  C   UNL     1      62.298  10.793   4.151  1.00  0.00     0.037 A 
HETATM   10  C   UNL     1      61.802  11.183   2.904  1.00  0.00     0.003 A 
HETATM   11  C   UNL     1      61.800  10.284   1.835  1.00  0.00     0.000 A 
HETATM   12  C   UNL     1      62.349   9.013   1.993  1.00  0.00     0.003 A 
HETATM   13  C   UNL     1      62.879   8.634   3.226  1.00  0.00     0.037 A 
ENDBRANCH   7   8
ENDBRANCH   1   7
BRANCH   2  14
HETATM   14  C   UNL     1      65.802   7.934   5.522  1.00  0.00     0.205 C 
BRANCH  14  15
HETATM   15  O   UNL     1      65.779   9.123   6.311  1.00  0.00    -0.396 OA
HETATM   16  H   UNL     1      64.927   9.571   6.196  1.00  0.00     0.209 HD
ENDBRANCH  14  15
ENDBRANCH   2  14
TORSDOF 4
ENDMDL
MODEL 3
REMARK VINA RESULT:      -5.2      1.397      5.144
REMARK  4 active torsions:
REMARK  status: ('A' for Active; 'I' for Inactive)
REMARK    1  A    between atoms: C_1  and  O_2 
REMARK    2  A    between atoms: O_2  and  C_4 
REMARK    3  A    between atoms: C_3  and  C_5 
REMARK    4  A    between atoms: C_5  and  O_6 
ROOT
HETATM    1  C   UNL     1      63.771   7.975   5.541  1.00  0.00     0.084 C 
HETATM    2  C   UNL     1      63.698   6.646   5.986  1.00  0.00    -0.001 C 
HETATM    3  C   UNL     1      65.032   8.554   5.301  1.00  0.00     0.038 C 
HETATM    4  C   UNL     1      64.890   5.983   6.326  1.00  0.00     0.012 C 
HETATM    5  C   UNL     1      66.127   6.614   6.196  1.00  0.00     0.001 C 
HETATM    6  C   UNL     1      66.200   7.892   5.662  1.00  0.00     0.003 C 
ENDROOT
BRANCH   1   7
HETATM    7  O   UNL     1      62.601   8.691   5.341  1.00  0.00    -0.310 OA
BRANCH   7   8
HETATM    8  C   UNL     1      62.447   9.310   4.112  1.00  0.00     0.076 A 
HETATM    9  C   UNL     1      62.170  10.678   4.103  1.00  0.00     0.037 A 
HETATM   10  C   UNL     1      61.863  11.314   2.896  1.00  0.00     0.003 A 
HETATM   11  C   UNL     1      61.835  10.587   1.705  1.00  0.00     0.000 A 
HETATM   12  C   UNL     1      62.173   9.235   1.705  1.00  0.00     0.003 A 
HETATM   13  C   UNL     1      62.516   8.606   2.901  1.00  0.00     0.037 A 
ENDBRANCH   7   8
ENDBRANCH   1   7
BRANCH   2  14
HETATM   14  C   UNL     1      62.399   5.894   6.134  1.00  0.00     0.205 C 
BRANCH  14  15
HETATM   15  O   UNL     1      61.500   6.631   6.961  1.00  0.00    -0.396 OA
HETATM   16  H   UNL     1      60.683   6.124   7.084  1.00  0.00     0.209 HD
ENDBRANCH  14  15
ENDBRANCH   2  14
TORSDOF 4
ENDMDL
MODEL 4
REMARK VINA RESULT:      -5.0      1.700      2.395
REMARK  4 active torsions:
REMARK  status: ('A' for Active; 'I' for Inactive)
REMARK    1  A    between atoms: C_1  and  O_2 
REMARK    2  A    between atoms: O_2  and  C_4 
REMARK    3  A    between atoms: C_3  and  C_5 
REMARK    4  A    between atoms: C_5  and  O_6 
ROOT
HETATM    1  C   UNL     1      62.580   8.153   3.627  1.00  0.00     0.084 C 
HETATM    2  C   UNL     1      62.220   9.404   3.105  1.00  0.00    -0.001 C 
HETATM    3  C   UNL     1      62.866   7.093   2.745  1.00  0.00     0.038 C 
HETATM    4  C   UNL     1      62.006   9.520   1.720  1.00  0.00     0.012 C 
HETATM    5  C   UNL     1      62.178   8.425   0.871  1.00  0.00     0.001 C 
HETATM    6  C   UNL     1      62.630   7.218   1.381  1.00  0.00     0.003 C 
ENDROOT
BRANCH   1   7
HETATM    7  O   UNL     1      62.653   7.984   5.001  1.00  0.00    -0.310 OA
BRANCH   7   8
HETATM    8  C   UNL     1      63.894   7.677   5.531  1.00  0.00     0.076 A 
HETATM    9  C   UNL     1      63.989   6.558   6.360  1.00  0.00     0.037 A 
HETATM   10  C   UNL     1      65.186   6.294   7.033  1.00  0.00     0.003 A 
HETATM   11  C   UNL     1      66.284   7.141   6.874  1.00  0.00     0.000 A 
HETATM   12  C   UNL     1      66.210   8.222   5.997  1.00  0.00     0.003 A 
HETATM   13  C   UNL     1      65.029   8.467   5.297  1.00  0.00     0.037 A 
ENDBRANCH   7   8
ENDBRANCH   1   7
BRANCH   2  14
HETATM   14  C   UNL     1      62.035  10.634   3.957  1.00  0.00     0.205 C 
BRANCH  14  15
HETATM   15  O   UNL     1      61.556  11.715   3.158  1.00  0.00    -0.396 OA
HETATM   16  H   UNL     1      60.587  11.707   3.151  1.00  0.00     0.209 HD
ENDBRANCH  14  15
ENDBRANCH   2  14
TORSDOF 4
ENDMDL
MODEL 5
REMARK VINA RESULT:      -5.0      1.710      3.079
REMARK  4 active torsions:
REMARK  status: ('A' for Active; 'I' for Inactive)
REMARK    1  A    between atoms: C_1  and  O_2 
REMARK    2  A    between atoms: O_2  and  C_4 
REMARK    3  A    between atoms: C_3  and  C_5 
REMARK    4  A    between atoms: C_5  and  O_6 
ROOT
HETATM    1  C   UNL     1      62.577   8.785   3.541  1.00  0.00     0.084 C 
HETATM    2  C   UNL     1      62.321   8.743   2.162  1.00  0.00    -0.001 C 
HETATM    3  C   UNL     1      62.325   9.973   4.254  1.00  0.00     0.038 C 
HETATM    4  C   UNL     1      61.966   9.936   1.507  1.00  0.00     0.012 C 
HETATM    5  C   UNL     1      61.837  11.133   2.211  1.00  0.00     0.001 C 
HETATM    6  C   UNL     1      61.993  11.147   3.588  1.00  0.00     0.003 C 
ENDROOT
BRANCH   1   7
HETATM    7  O   UNL     1      63.069   7.655   4.176  1.00  0.00    -0.310 OA
BRANCH   7   8
HETATM    8  C   UNL     1      64.440   7.584   4.358  1.00  0.00     0.076 A 
HETATM    9  C   UNL     1      65.151   6.659   3.592  1.00  0.00     0.037 A 
HETATM   10  C   UNL     1      66.510   6.449   3.844  1.00  0.00     0.003 A 
HETATM   11  C   UNL     1      67.156   7.164   4.854  1.00  0.00     0.000 A 
HETATM   12  C   UNL     1      66.462   8.132   5.576  1.00  0.00     0.003 A 
HETATM   13  C   UNL     1      65.116   8.370   5.302  1.00  0.00     0.037 A 
ENDBRANCH   7   8
ENDBRANCH   1   7
BRANCH   2  14
HETATM   14  C   UNL     1      62.423   7.483   1.339  1.00  0.00     0.205 C 
BRANCH  14  15
HETATM   15  O   UNL     1      61.730   6.419   1.989  1.00  0.00    -0.396 OA
HETATM   16  H   UNL     1      62.023   6.357   2.911  1.00  0.00     0.209 HD
ENDBRANCH  14  15
ENDBRANCH   2  14
TORSDOF 4
ENDMDL
MODEL 6
REMARK VINA RESULT:      -4.6      2.812      5.546
REMARK  4 active torsions:
REMARK  status: ('A' for Active; 'I' for Inactive)
REMARK    1  A    between atoms: C_1  and  O_2 
REMARK    2  A    between atoms: O_2  and  C_4 
REMARK    3  A    between atoms: C_3  and  C_5 
REMARK    4  A    between atoms: C_5  and  O_6 
ROOT
HETATM    1  C   UNL     1      62.025   8.832   3.478  1.00  0.00     0.084 C 
HETATM    2  C   UNL     1      62.663   8.839   4.728  1.00  0.00    -0.001 C 
HETATM    3  C   UNL     1      61.755  10.055   2.833  1.00  0.00     0.038 C 
HETATM    4  C   UNL     1      62.875  10.072   5.368  1.00  0.00     0.012 C 
HETATM    5  C   UNL     1      62.492  11.271   4.767  1.00  0.00     0.001 C 
HETATM    6  C   UNL     1      61.953  11.264   3.489  1.00  0.00     0.003 C 
ENDROOT
BRANCH   1   7
HETATM    7  O   UNL     1      61.676   7.621   2.899  1.00  0.00    -0.310 OA
BRANCH   7   8
HETATM    8  C   UNL     1      60.331   7.409   2.651  1.00  0.00     0.076 A 
HETATM    9  C   UNL     1      59.918   7.333   1.320  1.00  0.00     0.037 A 
HETATM   10  C   UNL     1      58.554   7.265   1.020  1.00  0.00     0.003 A 
HETATM   11  C   UNL     1      57.607   7.270   2.046  1.00  0.00     0.000 A 
HETATM   12  C   UNL     1      58.021   7.282   3.377  1.00  0.00     0.003 A 
HETATM   13  C   UNL     1      59.383   7.312   3.679  1.00  0.00     0.037 A 
ENDBRANCH   7   8
ENDBRANCH   1   7
BRANCH   2  14
HETATM   14  C   UNL     1      63.121   7.585   5.429  1.00  0.00     0.205 C 
BRANCH  14  15
HETATM   15  O   UNL     1      62.902   7.705   6.834  1.00  0.00    -0.396 OA
HETATM   16  H   UNL     1      62.263   8.413   7.003  1.00  0.00     0.209 HD
ENDBRANCH  14  15
ENDBRANCH   2  14
TORSDOF 4
ENDMDL
MODEL 7
REMARK VINA RESULT:      -4.5      3.011      4.590
REMARK  4 active torsions:
REMARK  status: ('A' for Active; 'I' for Inactive)
REMARK    1  A    between atoms: C_1  and  O_2 
REMARK    2  A    between atoms: O_2  and  C_4 
REMARK    3  A    between atoms: C_3  and  C_5 
REMARK    4  A    between atoms: C_5  and  O_6 
ROOT
HETATM    1  C   UNL     1      62.321   9.005   3.120  1.00  0.00     0.084 C 
HETATM    2  C   UNL     1      62.096   9.454   1.810  1.00  0.00    -0.001 C 
HETATM    3  C   UNL     1      62.173   9.905   4.193  1.00  0.00     0.038 C 
HETATM    4  C   UNL     1      61.881  10.827   1.596  1.00  0.00     0.012 C 
HETATM    5  C   UNL     1      61.857  11.726   2.662  1.00  0.00     0.001 C 
HETATM    6  C   UNL     1      61.980  11.262   3.963  1.00  0.00     0.003 C 
ENDROOT
BRANCH   1   7
HETATM    7  O   UNL     1      62.679   7.683   3.334  1.00  0.00    -0.310 OA
BRANCH   7   8
HETATM    8  C   UNL     1      61.936   6.974   4.263  1.00  0.00     0.076 A 
HETATM    9  C   UNL     1      60.599   6.711   3.962  1.00  0.00     0.037 A 
HETATM   10  C   UNL     1      59.772   6.128   4.928  1.00  0.00     0.003 A 
HETATM   11  C   UNL     1      60.281   5.808   6.188  1.00  0.00     0.000 A 
HETATM   12  C   UNL     1      61.631   6.012   6.467  1.00  0.00     0.003 A 
HETATM   13  C   UNL     1      62.466   6.559   5.493  1.00  0.00     0.037 A 
ENDBRANCH   7   8
ENDBRANCH   1   7
BRANCH   2  14
HETATM   14  C   UNL     1      62.090   8.538   0.611  1.00  0.00     0.205 C 
BRANCH  14  15
HETATM   15  O   UNL     1      60.984   7.641   0.689  1.00  0.00    -0.396 OA
HETATM   16  H   UNL     1      60.747   7.341  -0.202  1.00  0.00     0.209 HD
ENDBRANCH  14  15
ENDBRANCH   2  14
TORSDOF 4
ENDMDL
MODEL 8
REMARK VINA RESULT:      -4.4      2.794      5.469
REMARK  4 active torsions:
REMARK  status: ('A' for Active; 'I' for Inactive)
REMARK    1  A    between atoms: C_1  and  O_2 
REMARK    2  A    between atoms: O_2  and  C_4 
REMARK    3  A    between atoms: C_3  and  C_5 
REMARK    4  A    between atoms: C_5  and  O_6 
ROOT
HETATM    1  C   UNL     1      62.760   8.594   3.037  1.00  0.00     0.084 C 
HETATM    2  C   UNL     1      62.988   9.455   4.120  1.00  0.00    -0.001 C 
HETATM    3  C   UNL     1      63.462   7.375   2.963  1.00  0.00     0.038 C 
HETATM    4  C   UNL     1      64.024   9.146   5.019  1.00  0.00     0.012 C 
HETATM    5  C   UNL     1      64.793   7.993   4.863  1.00  0.00     0.001 C 
HETATM    6  C   UNL     1      64.497   7.095   3.848  1.00  0.00     0.003 C 
ENDROOT
BRANCH   1   7
HETATM    7  O   UNL     1      61.843   8.955   2.061  1.00  0.00    -0.310 OA
BRANCH   7   8
HETATM    8  C   UNL     1      60.633   8.282   2.057  1.00  0.00     0.076 A 
HETATM    9  C   UNL     1      59.997   8.094   0.829  1.00  0.00     0.037 A 
HETATM   10  C   UNL     1      58.709   7.552   0.791  1.00  0.00     0.003 A 
HETATM   11  C   UNL     1      58.061   7.195   1.975  1.00  0.00     0.000 A 
HETATM   12  C   UNL     1      58.720   7.324   3.196  1.00  0.00     0.003 A 
HETATM   13  C   UNL     1      60.019   7.831   3.234  1.00  0.00     0.037 A 
ENDBRANCH   7   8
ENDBRANCH   1   7
BRANCH   2  14
HETATM   14  C   UNL     1      62.186  10.709   4.363  1.00  0.00     0.205 C 
BRANCH  14  15
HETATM   15  O   UNL     1      62.125  11.488   3.169  1.00  0.00    -0.396 OA
HETATM   16  H   UNL     1      63.023  11.688   2.866  1.00  0.00     0.209 HD
ENDBRANCH  14  15
ENDBRANCH   2  14
TORSDOF 4
ENDMDL
MODEL 9
REMARK VINA RESULT:      -4.4      1.159      2.431
REMARK  4 active torsions:
REMARK  status: ('A' for Active; 'I' for Inactive)
REMARK    1  A    between atoms: C_1  and  O_2 
REMARK    2  A    between atoms: O_2  and  C_4 
REMARK    3  A    between atoms: C_3  and  C_5 
REMARK    4  A    between atoms: C_5  and  O_6 
ROOT
HETATM    1  C   UNL     1      62.919   8.756   5.279  1.00  0.00     0.084 C 
HETATM    2  C   UNL     1      62.272   8.196   4.167  1.00  0.00    -0.001 C 
HETATM    3  C   UNL     1      62.934  10.156   5.436  1.00  0.00     0.038 C 
HETATM    4  C   UNL     1      61.791   9.055   3.164  1.00  0.00     0.012 C 
HETATM    5  C   UNL     1      61.922  10.439   3.279  1.00  0.00     0.001 C 
HETATM    6  C   UNL     1      62.472  10.991   4.425  1.00  0.00     0.003 C 
ENDROOT
BRANCH   1   7
HETATM    7  O   UNL     1      63.527   7.922   6.204  1.00  0.00    -0.310 OA
BRANCH   7   8
HETATM    8  C   UNL     1      64.763   7.401   5.863  1.00  0.00     0.076 A 
HETATM    9  C   UNL     1      65.707   8.271   5.314  1.00  0.00     0.037 A 
HETATM   10  C   UNL     1      66.913   7.764   4.820  1.00  0.00     0.003 A 
HETATM   11  C   UNL     1      67.176   6.394   4.878  1.00  0.00     0.000 A 
HETATM   12  C   UNL     1      66.261   5.533   5.482  1.00  0.00     0.003 A 
HETATM   13  C   UNL     1      65.074   6.042   6.009  1.00  0.00     0.037 A 
ENDBRANCH   7   8
ENDBRANCH   1   7
BRANCH   2  14
HETATM   14  C   UNL     1      62.079   6.711   3.984  1.00  0.00     0.205 C 
BRANCH  14  15
HETATM   15  O   UNL     1      61.448   6.155   5.137  1.00  0.00    -0.396 OA
HETATM   16  H   UNL     1      61.213   6.866   5.752  1.00  0.00     0.209 HD
ENDBRANCH  14  15
ENDBRANCH   2  14
TORSDOF 4
ENDMDL
