MODEL 1
REMARK VINA RESULT:      -5.3      0.000      0.000
REMARK  3 active torsions:
REMARK  status: ('A' for Active; 'I' for Inactive)
REMARK    1  A    between atoms: C_1  and  N_2 
REMARK    2  A    between atoms: C_6  and  C_11 
REMARK    3  A    between atoms: N_8  and  C_11 
ROOT
HETATM    1  C   UNL     1      64.039   8.758   5.066  1.00  0.00     0.103 A 
HETATM    2  N   UNL     1      63.688   9.896   5.702  1.00  0.00    -0.352 N 
ATOM      3  HN  UNL     1      64.109  10.150   6.595  1.00  0.00     0.166 HD
HETATM    4  C   UNL     1      63.459   8.409   3.844  1.00  0.00     0.057 A 
HETATM    5  C   UNL     1      62.519   9.249   3.234  1.00  0.00    -0.028 A 
HETATM    6  C   UNL     1      62.760  10.688   5.118  1.00  0.00     0.090 A 
HETATM    7  C   UNL     1      62.156  10.413   3.904  1.00  0.00     0.026 A 
ENDROOT
BRANCH   1   8
HETATM    8  N   UNL     1      65.073   7.982   5.563  1.00  0.00    -0.367 N 
HETATM    9  C   UNL     1      64.738   6.918   6.502  1.00  0.00     0.124 C 
HETATM   10  C   UNL     1      65.916   6.789   7.473  1.00  0.00     0.020 C 
HETATM   11  C   UNL     1      67.245   6.588   6.740  1.00  0.00     0.003 C 
HETATM   12  C   UNL     1      67.453   7.624   5.631  1.00  0.00     0.020 C 
HETATM   13  C   UNL     1      66.230   7.711   4.716  1.00  0.00     0.124 C 
ENDBRANCH   1   8
BRANCH   5  14
HETATM   14  C   UNL     1      61.960   8.906   1.877  1.00  0.00     0.270 C 
BRANCH  14  15
HETATM   15  N   UNL     1      60.496   8.895   1.890  1.00  0.00    -0.075 N 
HETATM   16  C   UNL     1      59.962   8.191   0.734  1.00  0.00     0.267 C 
HETATM   17  H   UNL     1      60.157   9.857   1.879  1.00  0.00     0.277 HD
HETATM   18  H   UNL     1      60.185   8.412   2.733  1.00  0.00     0.277 HD
ENDBRANCH  14  15
ENDBRANCH   5  14
TORSDOF 3
ENDMDL
MODEL 2
REMARK VINA RESULT:      -5.0      1.756      6.182
REMARK  3 active torsions:
REMARK  status: ('A' for Active; 'I' for Inactive)
REMARK    1  A    between atoms: C_1  and  N_2 
REMARK    2  A    between atoms: C_6  and  C_11 
REMARK    3  A    between atoms: N_8  and  C_11 
ROOT
HETATM    1  C   UNL     1      64.044   7.966   3.954  1.00  0.00     0.103 A 
HETATM    2  N   UNL     1      64.279   6.766   3.383  1.00  0.00    -0.352 N 
ATOM      3  HN  UNL     1      63.722   6.442   2.593  1.00  0.00     0.166 HD
HETATM    4  C   UNL     1      64.806   8.408   5.039  1.00  0.00     0.057 A 
HETATM    5  C   UNL     1      65.854   7.627   5.541  1.00  0.00    -0.028 A 
HETATM    6  C   UNL     1      65.276   6.007   3.892  1.00  0.00     0.090 A 
HETATM    7  C   UNL     1      66.079   6.387   4.953  1.00  0.00     0.026 A 
ENDROOT
BRANCH   1   8
HETATM    8  N   UNL     1      63.120   8.830   3.389  1.00  0.00    -0.367 N 
HETATM    9  C   UNL     1      62.463   8.413   2.155  1.00  0.00     0.124 C 
HETATM   10  C   UNL     1      62.199   9.681   1.337  1.00  0.00     0.020 C 
HETATM   11  C   UNL     1      61.427  10.732   2.141  1.00  0.00     0.003 C 
HETATM   12  C   UNL     1      62.059  10.987   3.512  1.00  0.00     0.020 C 
HETATM   13  C   UNL     1      62.311   9.677   4.259  1.00  0.00     0.124 C 
ENDBRANCH   1   8
BRANCH   5  14
HETATM   14  C   UNL     1      66.723   8.147   6.658  1.00  0.00     0.270 C 
BRANCH  14  15
HETATM   15  N   UNL     1      67.458   7.063   7.311  1.00  0.00    -0.075 N 
HETATM   16  C   UNL     1      66.875   6.734   8.604  1.00  0.00     0.267 C 
HETATM   17  H   UNL     1      68.426   7.352   7.448  1.00  0.00     0.277 HD
HETATM   18  H   UNL     1      67.408   6.235   6.716  1.00  0.00     0.277 HD
ENDBRANCH  14  15
ENDBRANCH   5  14
TORSDOF 3
ENDMDL
MODEL 3
REMARK VINA RESULT:      -4.9      1.582      2.375
REMARK  3 active torsions:
REMARK  status: ('A' for Active; 'I' for Inactive)
REMARK    1  A    between atoms: C_1  and  N_2 
REMARK    2  A    between atoms: C_6  and  C_11 
REMARK    3  A    between atoms: N_8  and  C_11 
ROOT
HETATM    1  C   UNL     1      64.638   7.337   4.285  1.00  0.00     0.103 A 
HETATM    2  N   UNL     1      64.347   6.525   3.247  1.00  0.00    -0.352 N 
ATOM      3  HN  UNL     1      64.848   5.647   3.110  1.00  0.00     0.166 HD
HETATM    4  C   UNL     1      63.954   8.541   4.470  1.00  0.00     0.057 A 
HETATM    5  C   UNL     1      62.926   8.920   3.597  1.00  0.00    -0.028 A 
HETATM    6  C   UNL     1      63.371   6.912   2.394  1.00  0.00     0.090 A 
HETATM    7  C   UNL     1      62.644   8.082   2.524  1.00  0.00     0.026 A 
ENDROOT
BRANCH   1   8
HETATM    8  N   UNL     1      65.540   6.924   5.253  1.00  0.00    -0.367 N 
HETATM    9  C   UNL     1      65.005   6.369   6.491  1.00  0.00     0.124 C 
HETATM   10  C   UNL     1      65.978   6.753   7.611  1.00  0.00     0.020 C 
HETATM   11  C   UNL     1      67.414   6.325   7.295  1.00  0.00     0.003 C 
HETATM   12  C   UNL     1      67.854   6.772   5.897  1.00  0.00     0.020 C 
HETATM   13  C   UNL     1      66.826   6.373   4.838  1.00  0.00     0.124 C 
ENDBRANCH   1   8
BRANCH   5  14
HETATM   14  C   UNL     1      62.138  10.180   3.851  1.00  0.00     0.270 C 
BRANCH  14  15
HETATM   15  N   UNL     1      61.323  10.542   2.690  1.00  0.00    -0.075 N 
HETATM   16  C   UNL     1      61.762  11.801   2.108  1.00  0.00     0.267 C 
HETATM   17  H   UNL     1      60.349  10.633   2.983  1.00  0.00     0.277 HD
HETATM   18  H   UNL     1      61.422   9.810   1.986  1.00  0.00     0.277 HD
ENDBRANCH  14  15
ENDBRANCH   5  14
TORSDOF 3
ENDMDL
MODEL 4
REMARK VINA RESULT:      -4.9      2.095      5.550
REMARK  3 active torsions:
REMARK  status: ('A' for Active; 'I' for Inactive)
REMARK    1  A    between atoms: C_1  and  N_2 
REMARK    2  A    between atoms: C_6  and  C_11 
REMARK    3  A    between atoms: N_8  and  C_11 
ROOT
HETATM    1  C   UNL     1      65.096   8.121   4.985  1.00  0.00     0.103 A 
HETATM    2  N   UNL     1      65.604   8.612   6.135  1.00  0.00    -0.352 N 
ATOM      3  HN  UNL     1      65.199   9.437   6.579  1.00  0.00     0.166 HD
HETATM    4  C   UNL     1      65.652   6.993   4.377  1.00  0.00     0.057 A 
HETATM    5  C   UNL     1      66.734   6.326   4.965  1.00  0.00    -0.028 A 
HETATM    6  C   UNL     1      66.666   7.977   6.682  1.00  0.00     0.090 A 
HETATM    7  C   UNL     1      67.257   6.848   6.143  1.00  0.00     0.026 A 
ENDROOT
BRANCH   1   8
HETATM    8  N   UNL     1      63.934   8.662   4.458  1.00  0.00    -0.367 N 
HETATM    9  C   UNL     1      63.222   7.892   3.445  1.00  0.00     0.124 C 
HETATM   10  C   UNL     1      62.574   8.901   2.490  1.00  0.00     0.020 C 
HETATM   11  C   UNL     1      61.707   9.920   3.235  1.00  0.00     0.003 C 
HETATM   12  C   UNL     1      62.449  10.556   4.414  1.00  0.00     0.020 C 
HETATM   13  C   UNL     1      63.086   9.491   5.308  1.00  0.00     0.124 C 
ENDBRANCH   1   8
BRANCH   5  14
HETATM   14  C   UNL     1      67.276   5.062   4.346  1.00  0.00     0.270 C 
BRANCH  14  15
HETATM   15  N   UNL     1      67.336   5.166   2.887  1.00  0.00    -0.075 N 
HETATM   16  C   UNL     1      67.670   3.887   2.279  1.00  0.00     0.267 C 
HETATM   17  H   UNL     1      68.047   5.851   2.631  1.00  0.00     0.277 HD
HETATM   18  H   UNL     1      66.418   5.454   2.547  1.00  0.00     0.277 HD
ENDBRANCH  14  15
ENDBRANCH   5  14
TORSDOF 3
ENDMDL
MODEL 5
REMARK VINA RESULT:      -4.8      1.863      5.806
REMARK  3 active torsions:
REMARK  status: ('A' for Active; 'I' for Inactive)
REMARK    1  A    between atoms: C_1  and  N_2 
REMARK    2  A    between atoms: C_6  and  C_11 
REMARK    3  A    between atoms: N_8  and  C_11 
ROOT
HETATM    1  C   UNL     1      62.361   7.916   4.609  1.00  0.00     0.103 A 
HETATM    2  N   UNL     1      61.409   6.959   4.586  1.00  0.00    -0.352 N 
ATOM      3  HN  UNL     1      60.589   7.048   3.987  1.00  0.00     0.166 HD
HETATM    4  C   UNL     1      63.483   7.795   5.432  1.00  0.00     0.057 A 
HETATM    5  C   UNL     1      63.662   6.660   6.233  1.00  0.00    -0.028 A 
HETATM    6  C   UNL     1      61.578   5.879   5.383  1.00  0.00     0.090 A 
HETATM    7  C   UNL     1      62.669   5.686   6.211  1.00  0.00     0.026 A 
ENDROOT
BRANCH   1   8
HETATM    8  N   UNL     1      62.295   8.976   3.719  1.00  0.00    -0.367 N 
HETATM    9  C   UNL     1      62.660  10.300   4.207  1.00  0.00     0.124 C 
HETATM   10  C   UNL     1      61.790  11.311   3.453  1.00  0.00     0.020 C 
HETATM   11  C   UNL     1      61.902  11.144   1.934  1.00  0.00     0.003 C 
HETATM   12  C   UNL     1      61.700   9.690   1.498  1.00  0.00     0.020 C 
HETATM   13  C   UNL     1      62.583   8.740   2.308  1.00  0.00     0.124 C 
ENDBRANCH   1   8
BRANCH   5  14
HETATM   14  C   UNL     1      64.915   6.499   7.056  1.00  0.00     0.270 C 
BRANCH  14  15
HETATM   15  N   UNL     1      65.840   7.613   6.841  1.00  0.00    -0.075 N 
HETATM   16  C   UNL     1      67.139   7.140   6.385  1.00  0.00     0.267 C 
HETATM   17  H   UNL     1      65.961   8.119   7.719  1.00  0.00     0.277 HD
HETATM   18  H   UNL     1      65.450   8.223   6.123  1.00  0.00     0.277 HD
ENDBRANCH  14  15
ENDBRANCH   5  14
TORSDOF 3
ENDMDL
MODEL 6
REMARK VINA RESULT:      -4.6      1.385      5.994
REMARK  3 active torsions:
REMARK  status: ('A' for Active; 'I' for Inactive)
REMARK    1  A    between atoms: C_1  and  N_2 
REMARK    2  A    between atoms: C_6  and  C_11 
REMARK    3  A    between atoms: N_8  and  C_11 
ROOT
HETATM    1  C   UNL     1      61.868   8.838   3.211  1.00  0.00     0.103 A 
HETATM    2  N   UNL     1      61.503  10.093   3.547  1.00  0.00    -0.352 N 
ATOM      3  HN  UNL     1      60.688  10.535   3.124  1.00  0.00     0.166 HD
HETATM    4  C   UNL     1      62.987   8.234   3.790  1.00  0.00     0.057 A 
HETATM    5  C   UNL     1      63.741   8.908   4.759  1.00  0.00    -0.028 A 
HETATM    6  C   UNL     1      62.253  10.746   4.465  1.00  0.00     0.090 A 
HETATM    7  C   UNL     1      63.363  10.205   5.089  1.00  0.00     0.026 A 
ENDROOT
BRANCH   1   8
HETATM    8  N   UNL     1      61.060   8.087   2.373  1.00  0.00    -0.367 N 
HETATM    9  C   UNL     1      61.052   8.420   0.953  1.00  0.00     0.124 C 
HETATM   10  C   UNL     1      59.644   8.122   0.430  1.00  0.00     0.020 C 
HETATM   11  C   UNL     1      59.206   6.688   0.744  1.00  0.00     0.003 C 
HETATM   12  C   UNL     1      59.420   6.331   2.218  1.00  0.00     0.020 C 
HETATM   13  C   UNL     1      60.839   6.676   2.673  1.00  0.00     0.124 C 
ENDBRANCH   1   8
BRANCH   5  14
HETATM   14  C   UNL     1      64.897   8.219   5.439  1.00  0.00     0.270 C 
BRANCH  14  15
HETATM   15  N   UNL     1      64.471   7.552   6.670  1.00  0.00    -0.075 N 
HETATM   16  C   UNL     1      65.524   6.700   7.202  1.00  0.00     0.267 C 
HETATM   17  H   UNL     1      63.650   6.980   6.472  1.00  0.00     0.277 HD
HETATM   18  H   UNL     1      64.253   8.266   7.365  1.00  0.00     0.277 HD
ENDBRANCH  14  15
ENDBRANCH   5  14
TORSDOF 3
ENDMDL
MODEL 7
REMARK VINA RESULT:      -4.4      2.155      6.242
REMARK  3 active torsions:
REMARK  status: ('A' for Active; 'I' for Inactive)
REMARK    1  A    between atoms: C_1  and  N_2 
REMARK    2  A    between atoms: C_6  and  C_11 
REMARK    3  A    between atoms: N_8  and  C_11 
ROOT
HETATM    1  C   UNL     1      64.757   7.527   5.730  1.00  0.00     0.103 A 
HETATM    2  N   UNL     1      65.630   8.488   6.100  1.00  0.00    -0.352 N 
ATOM      3  HN  UNL     1      65.473   9.465   5.852  1.00  0.00     0.166 HD
HETATM    4  C   UNL     1      64.975   6.189   6.069  1.00  0.00     0.057 A 
HETATM    5  C   UNL     1      66.091   5.817   6.828  1.00  0.00    -0.028 A 
HETATM    6  C   UNL     1      66.719   8.116   6.811  1.00  0.00     0.090 A 
HETATM    7  C   UNL     1      66.990   6.814   7.193  1.00  0.00     0.026 A 
ENDROOT
BRANCH   1   8
HETATM    8  N   UNL     1      63.567   7.877   5.113  1.00  0.00    -0.367 N 
HETATM    9  C   UNL     1      62.353   7.187   5.530  1.00  0.00     0.124 C 
HETATM   10  C   UNL     1      61.449   7.084   4.297  1.00  0.00     0.020 C 
HETATM   11  C   UNL     1      61.208   8.451   3.648  1.00  0.00     0.003 C 
HETATM   12  C   UNL     1      62.514   9.214   3.410  1.00  0.00     0.020 C 
HETATM   13  C   UNL     1      63.371   9.256   4.676  1.00  0.00     0.124 C 
ENDBRANCH   1   8
BRANCH   5  14
HETATM   14  C   UNL     1      66.275   4.384   7.259  1.00  0.00     0.270 C 
BRANCH  14  15
HETATM   15  N   UNL     1      66.614   4.294   8.680  1.00  0.00    -0.075 N 
HETATM   16  C   UNL     1      67.853   3.558   8.882  1.00  0.00     0.267 C 
HETATM   17  H   UNL     1      65.859   3.814   9.172  1.00  0.00     0.277 HD
HETATM   18  H   UNL     1      66.738   5.239   9.043  1.00  0.00     0.277 HD
ENDBRANCH  14  15
ENDBRANCH   5  14
TORSDOF 3
ENDMDL
MODEL 8
REMARK VINA RESULT:      -4.2      3.435      5.410
REMARK  3 active torsions:
REMARK  status: ('A' for Active; 'I' for Inactive)
REMARK    1  A    between atoms: C_1  and  N_2 
REMARK    2  A    between atoms: C_6  and  C_11 
REMARK    3  A    between atoms: N_8  and  C_11 
ROOT
HETATM    1  C   UNL     1      61.519   7.576   4.406  1.00  0.00     0.103 A 
HETATM    2  N   UNL     1      62.385   7.276   5.397  1.00  0.00    -0.352 N 
ATOM      3  HN  UNL     1      63.286   7.748   5.468  1.00  0.00     0.166 HD
HETATM    4  C   UNL     1      60.286   6.926   4.307  1.00  0.00     0.057 A 
HETATM    5  C   UNL     1      59.906   5.967   5.255  1.00  0.00    -0.028 A 
HETATM    6  C   UNL     1      62.021   6.329   6.292  1.00  0.00     0.090 A 
HETATM    7  C   UNL     1      60.812   5.657   6.264  1.00  0.00     0.026 A 
ENDROOT
BRANCH   1   8
HETATM    8  N   UNL     1      61.795   8.624   3.543  1.00  0.00    -0.367 N 
HETATM    9  C   UNL     1      62.333   9.854   4.114  1.00  0.00     0.124 C 
HETATM   10  C   UNL     1      61.801  11.012   3.264  1.00  0.00     0.020 C 
HETATM   11  C   UNL     1      62.106  10.820   1.775  1.00  0.00     0.003 C 
HETATM   12  C   UNL     1      61.693   9.432   1.278  1.00  0.00     0.020 C 
HETATM   13  C   UNL     1      62.242   8.330   2.185  1.00  0.00     0.124 C 
ENDBRANCH   1   8
BRANCH   5  14
HETATM   14  C   UNL     1      58.541   5.331   5.188  1.00  0.00     0.270 C 
BRANCH  14  15
HETATM   15  N   UNL     1      57.492   6.337   5.012  1.00  0.00    -0.075 N 
HETATM   16  C   UNL     1      57.016   6.833   6.295  1.00  0.00     0.267 C 
HETATM   17  H   UNL     1      56.711   5.918   4.508  1.00  0.00     0.277 HD
HETATM   18  H   UNL     1      57.882   7.121   4.489  1.00  0.00     0.277 HD
ENDBRANCH  14  15
ENDBRANCH   5  14
TORSDOF 3
ENDMDL
MODEL 9
REMARK VINA RESULT:      -4.2      1.703      5.990
REMARK  3 active torsions:
REMARK  status: ('A' for Active; 'I' for Inactive)
REMARK    1  A    between atoms: C_1  and  N_2 
REMARK    2  A    between atoms: C_6  and  C_11 
REMARK    3  A    between atoms: N_8  and  C_11 
ROOT
HETATM    1  C   UNL     1      62.611   7.728   4.257  1.00  0.00     0.103 A 
HETATM    2  N   UNL     1      62.011   7.002   5.225  1.00  0.00    -0.352 N 
ATOM      3  HN  UNL     1      61.030   6.736   5.150  1.00  0.00     0.166 HD
HETATM    4  C   UNL     1      63.955   8.094   4.361  1.00  0.00     0.057 A 
HETATM    5  C   UNL     1      64.722   7.691   5.461  1.00  0.00    -0.028 A 
HETATM    6  C   UNL     1      62.753   6.639   6.296  1.00  0.00     0.090 A 
HETATM    7  C   UNL     1      64.091   6.954   6.458  1.00  0.00     0.026 A 
ENDROOT
BRANCH   1   8
HETATM    8  N   UNL     1      61.927   8.014   3.086  1.00  0.00    -0.367 N 
HETATM    9  C   UNL     1      60.528   7.614   2.999  1.00  0.00     0.124 C 
HETATM   10  C   UNL     1      60.253   7.259   1.534  1.00  0.00     0.020 C 
HETATM   11  C   UNL     1      60.647   8.395   0.584  1.00  0.00     0.003 C 
HETATM   12  C   UNL     1      62.066   8.906   0.855  1.00  0.00     0.020 C 
HETATM   13  C   UNL     1      62.270   9.218   2.337  1.00  0.00     0.124 C 
ENDBRANCH   1   8
BRANCH   5  14
HETATM   14  C   UNL     1      66.192   8.020   5.526  1.00  0.00     0.270 C 
BRANCH  14  15
HETATM   15  N   UNL     1      66.783   7.574   6.788  1.00  0.00    -0.075 N 
HETATM   16  C   UNL     1      67.700   6.463   6.579  1.00  0.00     0.267 C 
HETATM   17  H   UNL     1      66.038   7.275   7.418  1.00  0.00     0.277 HD
HETATM   18  H   UNL     1      67.307   8.351   7.192  1.00  0.00     0.277 HD
ENDBRANCH  14  15
ENDBRANCH   5  14
TORSDOF 3
ENDMDL
