MODEL 1
REMARK VINA RESULT:      -5.7      0.000      0.000
REMARK  4 active torsions:
REMARK  status: ('A' for Active; 'I' for Inactive)
REMARK    1  A    between atoms: C_1  and  O_4 
REMARK    2  A    between atoms: O_4  and  C_5 
REMARK    3  A    between atoms: C_7  and  C_13 
REMARK    4  A    between atoms: O_8  and  C_13 
ROOT
HETATM    1  C   UNL     1      63.531   8.270   4.016  1.00  0.00     0.078 A 
HETATM    2  C   UNL     1      63.694   9.226   5.025  1.00  0.00     0.046 A 
HETATM    3  C   UNL     1      62.951  10.412   5.015  1.00  0.00    -0.032 A 
HETATM    4  C   UNL     1      61.979   9.742   2.892  1.00  0.00     0.003 A 
HETATM    5  C   UNL     1      62.694   8.544   2.935  1.00  0.00     0.037 A 
HETATM    6  C   UNL     1      62.098  10.667   3.934  1.00  0.00     0.009 A 
ENDROOT
BRANCH   1   7
HETATM    7  O   UNL     1      64.204   7.066   3.995  1.00  0.00    -0.294 OA
BRANCH   7   8
HETATM    8  C   UNL     1      65.255   6.894   4.892  1.00  0.00     0.147 A 
HETATM    9  N   UNL     1      64.997   6.498   6.161  1.00  0.00    -0.347 N 
HETATM   10  C   UNL     1      66.048   6.416   7.001  1.00  0.00     0.090 A 
ATOM     11  HN  UNL     1      64.051   6.272   6.467  1.00  0.00     0.167 HD
HETATM   12  C   UNL     1      67.353   6.681   6.624  1.00  0.00     0.017 A 
HETATM   13  C   UNL     1      67.599   7.039   5.302  1.00  0.00     0.006 A 
HETATM   14  C   UNL     1      66.529   7.145   4.413  1.00  0.00     0.056 A 
ENDBRANCH   7   8
ENDBRANCH   1   7
BRANCH   3  15
HETATM   15  C   UNL     1      63.047  11.374   6.167  1.00  0.00     0.203 C 
BRANCH  15  16
HETATM   16  O   UNL     1      64.403  11.608   6.517  1.00  0.00    -0.396 OA
HETATM   17  H   UNL     1      64.727  10.874   7.062  1.00  0.00     0.209 HD
ENDBRANCH  15  16
ENDBRANCH   3  15
TORSDOF 4
ENDMDL
MODEL 2
REMARK VINA RESULT:      -5.7      1.678      2.046
REMARK  4 active torsions:
REMARK  status: ('A' for Active; 'I' for Inactive)
REMARK    1  A    between atoms: C_1  and  O_4 
REMARK    2  A    between atoms: O_4  and  C_5 
REMARK    3  A    between atoms: C_7  and  C_13 
REMARK    4  A    between atoms: O_8  and  C_13 
ROOT
HETATM    1  C   UNL     1      62.914   8.073   3.482  1.00  0.00     0.078 A 
HETATM    2  C   UNL     1      62.659   9.440   3.633  1.00  0.00     0.046 A 
HETATM    3  C   UNL     1      62.142  10.194   2.574  1.00  0.00    -0.032 A 
HETATM    4  C   UNL     1      62.271   8.226   1.157  1.00  0.00     0.003 A 
HETATM    5  C   UNL     1      62.747   7.474   2.233  1.00  0.00     0.037 A 
HETATM    6  C   UNL     1      61.959   9.578   1.330  1.00  0.00     0.009 A 
ENDROOT
BRANCH   1   7
HETATM    7  O   UNL     1      63.384   7.270   4.500  1.00  0.00    -0.294 OA
BRANCH   7   8
HETATM    8  C   UNL     1      64.727   7.385   4.850  1.00  0.00     0.147 A 
HETATM    9  N   UNL     1      65.073   8.058   5.972  1.00  0.00    -0.347 N 
HETATM   10  C   UNL     1      66.391   8.194   6.221  1.00  0.00     0.090 A 
ATOM     11  HN  UNL     1      64.369   8.445   6.601  1.00  0.00     0.167 HD
HETATM   12  C   UNL     1      67.382   7.660   5.417  1.00  0.00     0.017 A 
HETATM   13  C   UNL     1      67.000   6.930   4.294  1.00  0.00     0.006 A 
HETATM   14  C   UNL     1      65.643   6.784   4.004  1.00  0.00     0.056 A 
ENDBRANCH   7   8
ENDBRANCH   1   7
BRANCH   3  15
HETATM   15  C   UNL     1      61.759  11.633   2.786  1.00  0.00     0.203 C 
BRANCH  15  16
HETATM   16  O   UNL     1      62.073  12.049   4.107  1.00  0.00    -0.396 OA
HETATM   17  H   UNL     1      62.390  12.966   4.090  1.00  0.00     0.209 HD
ENDBRANCH  15  16
ENDBRANCH   3  15
TORSDOF 4
ENDMDL
MODEL 3
REMARK VINA RESULT:      -5.6      1.693      2.912
REMARK  4 active torsions:
REMARK  status: ('A' for Active; 'I' for Inactive)
REMARK    1  A    between atoms: C_1  and  O_4 
REMARK    2  A    between atoms: O_4  and  C_5 
REMARK    3  A    between atoms: C_7  and  C_13 
REMARK    4  A    between atoms: O_8  and  C_13 
ROOT
HETATM    1  C   UNL     1      63.062   8.890   4.750  1.00  0.00     0.078 A 
HETATM    2  C   UNL     1      62.573   8.621   3.468  1.00  0.00     0.046 A 
HETATM    3  C   UNL     1      62.042   9.645   2.674  1.00  0.00    -0.032 A 
HETATM    4  C   UNL     1      62.361  11.191   4.520  1.00  0.00     0.003 A 
HETATM    5  C   UNL     1      62.928  10.171   5.286  1.00  0.00     0.037 A 
HETATM    6  C   UNL     1      61.930  10.932   3.215  1.00  0.00     0.009 A 
ENDROOT
BRANCH   1   7
HETATM    7  O   UNL     1      63.635   7.932   5.561  1.00  0.00    -0.294 OA
BRANCH   7   8
HETATM    8  C   UNL     1      65.011   7.744   5.470  1.00  0.00     0.147 A 
HETATM    9  N   UNL     1      65.822   8.236   6.436  1.00  0.00    -0.347 N 
HETATM   10  C   UNL     1      67.150   8.082   6.257  1.00  0.00     0.090 A 
ATOM     11  HN  UNL     1      65.446   8.703   7.261  1.00  0.00     0.167 HD
HETATM   12  C   UNL     1      67.706   7.429   5.172  1.00  0.00     0.017 A 
HETATM   13  C   UNL     1      66.850   6.889   4.216  1.00  0.00     0.006 A 
HETATM   14  C   UNL     1      65.472   7.044   4.367  1.00  0.00     0.056 A 
ENDBRANCH   7   8
ENDBRANCH   1   7
BRANCH   3  15
HETATM   15  C   UNL     1      61.632   9.366   1.254  1.00  0.00     0.203 C 
BRANCH  15  16
HETATM   16  O   UNL     1      60.299   8.881   1.200  1.00  0.00    -0.396 OA
HETATM   17  H   UNL     1      60.188   8.167   1.848  1.00  0.00     0.209 HD
ENDBRANCH  15  16
ENDBRANCH   3  15
TORSDOF 4
ENDMDL
MODEL 4
REMARK VINA RESULT:      -5.5      1.437      2.092
REMARK  4 active torsions:
REMARK  status: ('A' for Active; 'I' for Inactive)
REMARK    1  A    between atoms: C_1  and  O_4 
REMARK    2  A    between atoms: O_4  and  C_5 
REMARK    3  A    between atoms: C_7  and  C_13 
REMARK    4  A    between atoms: O_8  and  C_13 
ROOT
HETATM    1  C   UNL     1      65.080   7.835   4.760  1.00  0.00     0.078 A 
HETATM    2  C   UNL     1      64.751   9.061   5.347  1.00  0.00     0.046 A 
HETATM    3  C   UNL     1      63.550   9.707   5.030  1.00  0.00    -0.032 A 
HETATM    4  C   UNL     1      63.073   7.955   3.419  1.00  0.00     0.003 A 
HETATM    5  C   UNL     1      64.252   7.297   3.774  1.00  0.00     0.037 A 
HETATM    6  C   UNL     1      62.717   9.148   4.053  1.00  0.00     0.009 A 
ENDROOT
BRANCH   1   7
HETATM    7  O   UNL     1      66.227   7.131   5.063  1.00  0.00    -0.294 OA
BRANCH   7   8
HETATM    8  C   UNL     1      66.349   6.613   6.350  1.00  0.00     0.147 A 
HETATM    9  N   UNL     1      67.053   7.295   7.284  1.00  0.00    -0.347 N 
HETATM   10  C   UNL     1      67.194   6.709   8.491  1.00  0.00     0.090 A 
ATOM     11  HN  UNL     1      67.459   8.209   7.084  1.00  0.00     0.167 HD
HETATM   12  C   UNL     1      66.636   5.487   8.819  1.00  0.00     0.017 A 
HETATM   13  C   UNL     1      65.875   4.828   7.857  1.00  0.00     0.006 A 
HETATM   14  C   UNL     1      65.723   5.403   6.595  1.00  0.00     0.056 A 
ENDBRANCH   7   8
ENDBRANCH   1   7
BRANCH   3  15
HETATM   15  C   UNL     1      63.152  10.963   5.758  1.00  0.00     0.203 C 
BRANCH  15  16
HETATM   16  O   UNL     1      64.266  11.528   6.433  1.00  0.00    -0.396 OA
HETATM   17  H   UNL     1      64.005  11.779   7.333  1.00  0.00     0.209 HD
ENDBRANCH  15  16
ENDBRANCH   3  15
TORSDOF 4
ENDMDL
MODEL 5
REMARK VINA RESULT:      -5.4      2.096      5.270
REMARK  4 active torsions:
REMARK  status: ('A' for Active; 'I' for Inactive)
REMARK    1  A    between atoms: C_1  and  O_4 
REMARK    2  A    between atoms: O_4  and  C_5 
REMARK    3  A    between atoms: C_7  and  C_13 
REMARK    4  A    between atoms: O_8  and  C_13 
ROOT
HETATM    1  C   UNL     1      64.761   7.284   5.606  1.00  0.00     0.078 A 
HETATM    2  C   UNL     1      65.115   6.710   6.831  1.00  0.00     0.046 A 
HETATM    3  C   UNL     1      66.460   6.557   7.189  1.00  0.00    -0.032 A 
HETATM    4  C   UNL     1      67.101   7.427   5.014  1.00  0.00     0.003 A 
HETATM    5  C   UNL     1      65.756   7.615   4.686  1.00  0.00     0.037 A 
HETATM    6  C   UNL     1      67.451   6.911   6.265  1.00  0.00     0.009 A 
ENDROOT
BRANCH   1   7
HETATM    7  O   UNL     1      63.456   7.500   5.217  1.00  0.00    -0.294 OA
BRANCH   7   8
HETATM    8  C   UNL     1      63.075   8.805   4.918  1.00  0.00     0.147 A 
HETATM    9  N   UNL     1      63.295   9.791   5.820  1.00  0.00    -0.347 N 
HETATM   10  C   UNL     1      62.842  11.022   5.503  1.00  0.00     0.090 A 
ATOM     11  HN  UNL     1      63.781   9.612   6.698  1.00  0.00     0.167 HD
HETATM   12  C   UNL     1      62.207  11.320   4.311  1.00  0.00     0.017 A 
HETATM   13  C   UNL     1      62.036  10.300   3.379  1.00  0.00     0.006 A 
HETATM   14  C   UNL     1      62.482   9.014   3.685  1.00  0.00     0.056 A 
ENDBRANCH   7   8
ENDBRANCH   1   7
BRANCH   3  15
HETATM   15  C   UNL     1      66.825   6.050   8.557  1.00  0.00     0.203 C 
BRANCH  15  16
HETATM   16  O   UNL     1      68.075   6.580   8.974  1.00  0.00    -0.396 OA
HETATM   17  H   UNL     1      68.785   6.191   8.439  1.00  0.00     0.209 HD
ENDBRANCH  15  16
ENDBRANCH   3  15
TORSDOF 4
ENDMDL
MODEL 6
REMARK VINA RESULT:      -5.0      2.391      3.751
REMARK  4 active torsions:
REMARK  status: ('A' for Active; 'I' for Inactive)
REMARK    1  A    between atoms: C_1  and  O_4 
REMARK    2  A    between atoms: O_4  and  C_5 
REMARK    3  A    between atoms: C_7  and  C_13 
REMARK    4  A    between atoms: O_8  and  C_13 
ROOT
HETATM    1  C   UNL     1      63.265   9.304   4.909  1.00  0.00     0.078 A 
HETATM    2  C   UNL     1      62.854   8.873   3.643  1.00  0.00     0.046 A 
HETATM    3  C   UNL     1      62.199   9.747   2.767  1.00  0.00    -0.032 A 
HETATM    4  C   UNL     1      62.238  11.453   4.495  1.00  0.00     0.003 A 
HETATM    5  C   UNL     1      62.929  10.586   5.344  1.00  0.00     0.037 A 
HETATM    6  C   UNL     1      61.885  11.038   3.208  1.00  0.00     0.009 A 
ENDROOT
BRANCH   1   7
HETATM    7  O   UNL     1      63.950   8.503   5.798  1.00  0.00    -0.294 OA
BRANCH   7   8
HETATM    8  C   UNL     1      63.529   7.183   5.940  1.00  0.00     0.147 A 
HETATM    9  N   UNL     1      64.383   6.172   5.654  1.00  0.00    -0.347 N 
HETATM   10  C   UNL     1      63.896   4.917   5.744  1.00  0.00     0.090 A 
ATOM     11  HN  UNL     1      65.349   6.350   5.382  1.00  0.00     0.167 HD
HETATM   12  C   UNL     1      62.603   4.624   6.140  1.00  0.00     0.017 A 
HETATM   13  C   UNL     1      61.759   5.679   6.477  1.00  0.00     0.006 A 
HETATM   14  C   UNL     1      62.231   6.988   6.379  1.00  0.00     0.056 A 
ENDBRANCH   7   8
ENDBRANCH   1   7
BRANCH   3  15
HETATM   15  C   UNL     1      61.872   9.308   1.366  1.00  0.00     0.203 C 
BRANCH  15  16
HETATM   16  O   UNL     1      60.488   9.016   1.239  1.00  0.00    -0.396 OA
HETATM   17  H   UNL     1      59.968   9.742   1.619  1.00  0.00     0.209 HD
ENDBRANCH  15  16
ENDBRANCH   3  15
TORSDOF 4
ENDMDL
MODEL 7
REMARK VINA RESULT:      -5.0      2.072      5.261
REMARK  4 active torsions:
REMARK  status: ('A' for Active; 'I' for Inactive)
REMARK    1  A    between atoms: C_1  and  O_4 
REMARK    2  A    between atoms: O_4  and  C_5 
REMARK    3  A    between atoms: C_7  and  C_13 
REMARK    4  A    between atoms: O_8  and  C_13 
ROOT
HETATM    1  C   UNL     1      63.761   8.207   5.477  1.00  0.00     0.078 A 
HETATM    2  C   UNL     1      65.111   8.492   5.246  1.00  0.00     0.046 A 
HETATM    3  C   UNL     1      66.111   7.598   5.649  1.00  0.00    -0.032 A 
HETATM    4  C   UNL     1      64.403   6.192   6.649  1.00  0.00     0.003 A 
HETATM    5  C   UNL     1      63.411   7.070   6.205  1.00  0.00     0.037 A 
HETATM    6  C   UNL     1      65.746   6.450   6.361  1.00  0.00     0.009 A 
ENDROOT
BRANCH   1   7
HETATM    7  O   UNL     1      62.731   9.027   5.068  1.00  0.00    -0.294 OA
BRANCH   7   8
HETATM    8  C   UNL     1      62.467   9.104   3.703  1.00  0.00     0.147 A 
HETATM    9  N   UNL     1      62.595   7.998   2.931  1.00  0.00    -0.347 N 
HETATM   10  C   UNL     1      62.393   8.151   1.606  1.00  0.00     0.090 A 
ATOM     11  HN  UNL     1      62.834   7.092   3.333  1.00  0.00     0.167 HD
HETATM   12  C   UNL     1      62.036   9.352   1.019  1.00  0.00     0.017 A 
HETATM   13  C   UNL     1      61.862  10.463   1.840  1.00  0.00     0.006 A 
HETATM   14  C   UNL     1      62.078  10.338   3.213  1.00  0.00     0.056 A 
ENDBRANCH   7   8
ENDBRANCH   1   7
BRANCH   3  15
HETATM   15  C   UNL     1      67.548   7.859   5.287  1.00  0.00     0.203 C 
BRANCH  15  16
HETATM   16  O   UNL     1      67.822   7.423   3.964  1.00  0.00    -0.396 OA
HETATM   17  H   UNL     1      68.418   8.056   3.532  1.00  0.00     0.209 HD
ENDBRANCH  15  16
ENDBRANCH   3  15
TORSDOF 4
ENDMDL
MODEL 8
REMARK VINA RESULT:      -5.0      2.753      3.395
REMARK  4 active torsions:
REMARK  status: ('A' for Active; 'I' for Inactive)
REMARK    1  A    between atoms: C_1  and  O_4 
REMARK    2  A    between atoms: O_4  and  C_5 
REMARK    3  A    between atoms: C_7  and  C_13 
REMARK    4  A    between atoms: O_8  and  C_13 
ROOT
HETATM    1  C   UNL     1      62.622   8.666   3.221  1.00  0.00     0.078 A 
HETATM    2  C   UNL     1      62.925   9.319   4.420  1.00  0.00     0.046 A 
HETATM    3  C   UNL     1      62.600  10.669   4.603  1.00  0.00    -0.032 A 
HETATM    4  C   UNL     1      61.792  10.747   2.314  1.00  0.00     0.003 A 
HETATM    5  C   UNL     1      62.082   9.391   2.158  1.00  0.00     0.037 A 
HETATM    6  C   UNL     1      62.039  11.380   3.536  1.00  0.00     0.009 A 
ENDROOT
BRANCH   1   7
HETATM    7  O   UNL     1      62.880   7.330   2.997  1.00  0.00    -0.294 OA
BRANCH   7   8
HETATM    8  C   UNL     1      62.344   6.408   3.892  1.00  0.00     0.147 A 
HETATM    9  N   UNL     1      63.171   5.674   4.675  1.00  0.00    -0.347 N 
HETATM   10  C   UNL     1      62.597   4.749   5.471  1.00  0.00     0.090 A 
ATOM     11  HN  UNL     1      64.181   5.814   4.663  1.00  0.00     0.167 HD
HETATM   12  C   UNL     1      61.230   4.544   5.546  1.00  0.00     0.017 A 
HETATM   13  C   UNL     1      60.398   5.344   4.768  1.00  0.00     0.006 A 
HETATM   14  C   UNL     1      60.965   6.301   3.924  1.00  0.00     0.056 A 
ENDBRANCH   7   8
ENDBRANCH   1   7
BRANCH   3  15
HETATM   15  C   UNL     1      62.821  11.325   5.938  1.00  0.00     0.203 C 
BRANCH  15  16
HETATM   16  O   UNL     1      64.207  11.445   6.218  1.00  0.00    -0.396 OA
HETATM   17  H   UNL     1      64.706  10.842   5.644  1.00  0.00     0.209 HD
ENDBRANCH  15  16
ENDBRANCH   3  15
TORSDOF 4
ENDMDL
MODEL 9
REMARK VINA RESULT:      -4.9      3.531      5.437
REMARK  4 active torsions:
REMARK  status: ('A' for Active; 'I' for Inactive)
REMARK    1  A    between atoms: C_1  and  O_4 
REMARK    2  A    between atoms: O_4  and  C_5 
REMARK    3  A    between atoms: C_7  and  C_13 
REMARK    4  A    between atoms: O_8  and  C_13 
ROOT
HETATM    1  C   UNL     1      61.900   8.559   3.655  1.00  0.00     0.078 A 
HETATM    2  C   UNL     1      63.124   8.037   4.085  1.00  0.00     0.046 A 
HETATM    3  C   UNL     1      64.000   8.808   4.858  1.00  0.00    -0.032 A 
HETATM    4  C   UNL     1      62.476  10.687   4.645  1.00  0.00     0.003 A 
HETATM    5  C   UNL     1      61.591   9.895   3.911  1.00  0.00     0.037 A 
HETATM    6  C   UNL     1      63.670  10.142   5.126  1.00  0.00     0.009 A 
ENDROOT
BRANCH   1   7
HETATM    7  O   UNL     1      60.979   7.835   2.928  1.00  0.00    -0.294 OA
BRANCH   7   8
HETATM    8  C   UNL     1      59.817   7.425   3.577  1.00  0.00     0.147 A 
HETATM    9  N   UNL     1      58.622   7.938   3.201  1.00  0.00    -0.347 N 
HETATM   10  C   UNL     1      57.541   7.555   3.912  1.00  0.00     0.090 A 
ATOM     11  HN  UNL     1      58.541   8.583   2.415  1.00  0.00     0.167 HD
HETATM   12  C   UNL     1      57.595   6.658   4.964  1.00  0.00     0.017 A 
HETATM   13  C   UNL     1      58.829   6.107   5.301  1.00  0.00     0.006 A 
HETATM   14  C   UNL     1      59.966   6.495   4.591  1.00  0.00     0.056 A 
ENDBRANCH   7   8
ENDBRANCH   1   7
BRANCH   3  15
HETATM   15  C   UNL     1      65.256   8.196   5.416  1.00  0.00     0.203 C 
BRANCH  15  16
HETATM   16  O   UNL     1      65.897   9.089   6.314  1.00  0.00    -0.396 OA
HETATM   17  H   UNL     1      65.583   8.920   7.217  1.00  0.00     0.209 HD
ENDBRANCH  15  16
ENDBRANCH   3  15
TORSDOF 4
ENDMDL
