MODEL 1
REMARK VINA RESULT:      -5.1      0.000      0.000
REMARK  3 active torsions:
REMARK  status: ('A' for Active; 'I' for Inactive)
REMARK    1  A    between atoms: C_8  and  C_11 
REMARK    2  A    between atoms: O_10  and  C_12 
REMARK    3  A    between atoms: C_11  and  C_12 
ROOT
HETATM    1  C   UNL     1      62.259  10.456   3.863  1.00  0.00     0.105 A 
HETATM    2  C   UNL     1      63.002   9.508   4.524  1.00  0.00     0.105 A 
HETATM    3  O   UNL     1      62.130  11.604   4.583  1.00  0.00    -0.323 OA
HETATM    4  O   UNL     1      63.438   9.937   5.739  1.00  0.00    -0.323 OA
HETATM    5  C   UNL     1      62.891  11.272   5.764  1.00  0.00     0.352 A 
HETATM    6  C   UNL     1      61.729  10.224   2.611  1.00  0.00     0.047 A 
HETATM    7  C   UNL     1      63.257   8.271   3.972  1.00  0.00     0.040 A 
HETATM    8  C   UNL     1      61.967   8.976   2.015  1.00  0.00    -0.053 A 
HETATM    9  C   UNL     1      62.732   8.008   2.704  1.00  0.00     0.010 A 
ENDROOT
BRANCH   8  10
HETATM   10  C   UNL     1      61.439   8.670   0.632  1.00  0.00     0.064 C 
BRANCH  10  11
HETATM   11  C   UNL     1      60.147   7.850   0.657  1.00  0.00     0.168 C 
BRANCH  11  12
HETATM   12  O   UNL     1      59.007   8.676   0.875  1.00  0.00    -0.401 OA
HETATM   13  H   UNL     1      58.955   9.344   0.175  1.00  0.00     0.209 HD
ENDBRANCH  11  12
ENDBRANCH  10  11
ENDBRANCH   8  10
TORSDOF 3
ENDMDL
MODEL 2
REMARK VINA RESULT:      -5.0      2.300      3.466
REMARK  3 active torsions:
REMARK  status: ('A' for Active; 'I' for Inactive)
REMARK    1  A    between atoms: C_8  and  C_11 
REMARK    2  A    between atoms: O_10  and  C_12 
REMARK    3  A    between atoms: C_11  and  C_12 
ROOT
HETATM    1  C   UNL     1      64.740   8.741   5.245  1.00  0.00     0.105 A 
HETATM    2  C   UNL     1      64.924   7.564   4.561  1.00  0.00     0.105 A 
HETATM    3  O   UNL     1      65.664   8.915   6.230  1.00  0.00    -0.323 OA
HETATM    4  O   UNL     1      65.986   6.850   5.024  1.00  0.00    -0.323 OA
HETATM    5  C   UNL     1      66.457   7.719   6.074  1.00  0.00     0.352 A 
HETATM    6  C   UNL     1      63.723   9.616   4.930  1.00  0.00     0.047 A 
HETATM    7  C   UNL     1      64.100   7.192   3.522  1.00  0.00     0.040 A 
HETATM    8  C   UNL     1      62.861   9.274   3.876  1.00  0.00    -0.053 A 
HETATM    9  C   UNL     1      63.059   8.060   3.179  1.00  0.00     0.010 A 
ENDROOT
BRANCH   8  10
HETATM   10  C   UNL     1      61.744  10.204   3.460  1.00  0.00     0.064 C 
BRANCH  10  11
HETATM   11  C   UNL     1      61.848  10.639   1.997  1.00  0.00     0.168 C 
BRANCH  11  12
HETATM   12  O   UNL     1      62.094  12.038   1.883  1.00  0.00    -0.401 OA
HETATM   13  H   UNL     1      61.418  12.439   1.315  1.00  0.00     0.209 HD
ENDBRANCH  11  12
ENDBRANCH  10  11
ENDBRANCH   8  10
TORSDOF 3
ENDMDL
MODEL 3
REMARK VINA RESULT:      -4.6      1.091      2.033
REMARK  3 active torsions:
REMARK  status: ('A' for Active; 'I' for Inactive)
REMARK    1  A    between atoms: C_8  and  C_11 
REMARK    2  A    between atoms: O_10  and  C_12 
REMARK    3  A    between atoms: C_11  and  C_12 
ROOT
HETATM    1  C   UNL     1      62.757   9.691   4.200  1.00  0.00     0.105 A 
HETATM    2  C   UNL     1      62.196  10.849   3.716  1.00  0.00     0.105 A 
HETATM    3  O   UNL     1      63.141   9.810   5.500  1.00  0.00    -0.323 OA
HETATM    4  O   UNL     1      62.151  11.838   4.648  1.00  0.00    -0.323 OA
HETATM    5  C   UNL     1      62.740  11.168   5.781  1.00  0.00     0.352 A 
HETATM    6  C   UNL     1      62.892   8.564   3.418  1.00  0.00     0.047 A 
HETATM    7  C   UNL     1      61.737  10.946   2.420  1.00  0.00     0.040 A 
HETATM    8  C   UNL     1      62.436   8.622   2.091  1.00  0.00    -0.053 A 
HETATM    9  C   UNL     1      61.860   9.818   1.604  1.00  0.00     0.010 A 
ENDROOT
BRANCH   8  10
HETATM   10  C   UNL     1      62.527   7.412   1.191  1.00  0.00     0.064 C 
BRANCH  10  11
HETATM   11  C   UNL     1      61.161   6.941   0.690  1.00  0.00     0.168 C 
BRANCH  11  12
HETATM   12  O   UNL     1      60.297   6.597   1.769  1.00  0.00    -0.401 OA
HETATM   13  H   UNL     1      60.505   7.150   2.537  1.00  0.00     0.209 HD
ENDBRANCH  11  12
ENDBRANCH  10  11
ENDBRANCH   8  10
TORSDOF 3
ENDMDL
MODEL 4
REMARK VINA RESULT:      -4.5      1.246      2.336
REMARK  3 active torsions:
REMARK  status: ('A' for Active; 'I' for Inactive)
REMARK    1  A    between atoms: C_8  and  C_11 
REMARK    2  A    between atoms: O_10  and  C_12 
REMARK    3  A    between atoms: C_11  and  C_12 
ROOT
HETATM    1  C   UNL     1      63.619   8.137   3.816  1.00  0.00     0.105 A 
HETATM    2  C   UNL     1      63.402   9.201   4.659  1.00  0.00     0.105 A 
HETATM    3  O   UNL     1      64.547   7.271   4.307  1.00  0.00    -0.323 OA
HETATM    4  O   UNL     1      64.161   9.138   5.786  1.00  0.00    -0.323 OA
HETATM    5  C   UNL     1      64.876   7.905   5.561  1.00  0.00     0.352 A 
HETATM    6  C   UNL     1      62.945   8.006   2.620  1.00  0.00     0.047 A 
HETATM    7  C   UNL     1      62.499  10.195   4.355  1.00  0.00     0.040 A 
HETATM    8  C   UNL     1      62.015   8.999   2.275  1.00  0.00    -0.053 A 
HETATM    9  C   UNL     1      61.800  10.089   3.149  1.00  0.00     0.010 A 
ENDROOT
BRANCH   8  10
HETATM   10  C   UNL     1      61.220   8.898   0.993  1.00  0.00     0.064 C 
BRANCH  10  11
HETATM   11  C   UNL     1      60.015   7.963   1.112  1.00  0.00     0.168 C 
BRANCH  11  12
HETATM   12  O   UNL     1      58.787   8.677   1.019  1.00  0.00    -0.401 OA
HETATM   13  H   UNL     1      58.842   9.485   1.552  1.00  0.00     0.209 HD
ENDBRANCH  11  12
ENDBRANCH  10  11
ENDBRANCH   8  10
TORSDOF 3
ENDMDL
MODEL 5
REMARK VINA RESULT:      -4.5      1.959      3.869
REMARK  3 active torsions:
REMARK  status: ('A' for Active; 'I' for Inactive)
REMARK    1  A    between atoms: C_8  and  C_11 
REMARK    2  A    between atoms: O_10  and  C_12 
REMARK    3  A    between atoms: C_11  and  C_12 
ROOT
HETATM    1  C   UNL     1      62.381  10.312   3.763  1.00  0.00     0.105 A 
HETATM    2  C   UNL     1      62.294   9.698   2.537  1.00  0.00     0.105 A 
HETATM    3  O   UNL     1      62.016  11.622   3.711  1.00  0.00    -0.323 OA
HETATM    4  O   UNL     1      61.859  10.540   1.560  1.00  0.00    -0.323 OA
HETATM    5  C   UNL     1      61.673  11.755   2.315  1.00  0.00     0.352 A 
HETATM    6  C   UNL     1      62.795   9.634   4.890  1.00  0.00     0.047 A 
HETATM    7  C   UNL     1      62.616   8.370   2.366  1.00  0.00     0.040 A 
HETATM    8  C   UNL     1      63.132   8.278   4.757  1.00  0.00    -0.053 A 
HETATM    9  C   UNL     1      63.038   7.656   3.491  1.00  0.00     0.010 A 
ENDROOT
BRANCH   8  10
HETATM   10  C   UNL     1      63.564   7.470   5.960  1.00  0.00     0.064 C 
BRANCH  10  11
HETATM   11  C   UNL     1      62.649   6.274   6.231  1.00  0.00     0.168 C 
BRANCH  11  12
HETATM   12  O   UNL     1      61.457   6.669   6.902  1.00  0.00    -0.401 OA
HETATM   13  H   UNL     1      61.596   7.529   7.327  1.00  0.00     0.209 HD
ENDBRANCH  11  12
ENDBRANCH  10  11
ENDBRANCH   8  10
TORSDOF 3
ENDMDL
MODEL 6
REMARK VINA RESULT:      -4.4      2.763      4.116
REMARK  3 active torsions:
REMARK  status: ('A' for Active; 'I' for Inactive)
REMARK    1  A    between atoms: C_8  and  C_11 
REMARK    2  A    between atoms: O_10  and  C_12 
REMARK    3  A    between atoms: C_11  and  C_12 
ROOT
HETATM    1  C   UNL     1      65.265   8.129   5.819  1.00  0.00     0.105 A 
HETATM    2  C   UNL     1      64.729   7.063   6.501  1.00  0.00     0.105 A 
HETATM    3  O   UNL     1      66.555   8.374   6.179  1.00  0.00    -0.323 OA
HETATM    4  O   UNL     1      65.611   6.501   7.371  1.00  0.00    -0.323 OA
HETATM    5  C   UNL     1      66.771   7.330   7.151  1.00  0.00     0.352 A 
HETATM    6  C   UNL     1      64.539   8.836   4.884  1.00  0.00     0.047 A 
HETATM    7  C   UNL     1      63.434   6.643   6.288  1.00  0.00     0.040 A 
HETATM    8  C   UNL     1      63.216   8.438   4.638  1.00  0.00    -0.053 A 
HETATM    9  C   UNL     1      62.674   7.341   5.345  1.00  0.00     0.010 A 
ENDROOT
BRANCH   8  10
HETATM   10  C   UNL     1      62.376   9.152   3.604  1.00  0.00     0.064 C 
BRANCH  10  11
HETATM   11  C   UNL     1      62.079  10.605   3.979  1.00  0.00     0.168 C 
BRANCH  11  12
HETATM   12  O   UNL     1      61.319  11.263   2.970  1.00  0.00    -0.401 OA
HETATM   13  H   UNL     1      61.524  12.210   2.978  1.00  0.00     0.209 HD
ENDBRANCH  11  12
ENDBRANCH  10  11
ENDBRANCH   8  10
TORSDOF 3
ENDMDL
MODEL 7
REMARK VINA RESULT:      -4.3      1.381      5.027
REMARK  3 active torsions:
REMARK  status: ('A' for Active; 'I' for Inactive)
REMARK    1  A    between atoms: C_8  and  C_11 
REMARK    2  A    between atoms: O_10  and  C_12 
REMARK    3  A    between atoms: C_11  and  C_12 
ROOT
HETATM    1  C   UNL     1      60.329   7.875   2.519  1.00  0.00     0.105 A 
HETATM    2  C   UNL     1      60.647   8.520   1.349  1.00  0.00     0.105 A 
HETATM    3  O   UNL     1      59.295   7.003   2.362  1.00  0.00    -0.323 OA
HETATM    4  O   UNL     1      59.860   8.135   0.308  1.00  0.00    -0.323 OA
HETATM    5  C   UNL     1      59.014   7.164   0.956  1.00  0.00     0.352 A 
HETATM    6  C   UNL     1      61.011   8.115   3.693  1.00  0.00     0.047 A 
HETATM    7  C   UNL     1      61.666   9.445   1.284  1.00  0.00     0.040 A 
HETATM    8  C   UNL     1      62.057   9.051   3.669  1.00  0.00    -0.053 A 
HETATM    9  C   UNL     1      62.376   9.710   2.459  1.00  0.00     0.010 A 
ENDROOT
BRANCH   8  10
HETATM   10  C   UNL     1      62.864   9.338   4.914  1.00  0.00     0.064 C 
BRANCH  10  11
HETATM   11  C   UNL     1      62.869  10.821   5.290  1.00  0.00     0.168 C 
BRANCH  11  12
HETATM   12  O   UNL     1      64.033  11.169   6.033  1.00  0.00    -0.401 OA
HETATM   13  H   UNL     1      64.201  10.491   6.705  1.00  0.00     0.209 HD
ENDBRANCH  11  12
ENDBRANCH  10  11
ENDBRANCH   8  10
TORSDOF 3
ENDMDL
MODEL 8
REMARK VINA RESULT:      -4.2      2.104      5.062
REMARK  3 active torsions:
REMARK  status: ('A' for Active; 'I' for Inactive)
REMARK    1  A    between atoms: C_8  and  C_11 
REMARK    2  A    between atoms: O_10  and  C_12 
REMARK    3  A    between atoms: C_11  and  C_12 
ROOT
HETATM    1  C   UNL     1      62.828   8.291   2.548  1.00  0.00     0.105 A 
HETATM    2  C   UNL     1      62.217   9.490   2.825  1.00  0.00     0.105 A 
HETATM    3  O   UNL     1      62.585   7.870   1.277  1.00  0.00    -0.323 OA
HETATM    4  O   UNL     1      61.517   9.978   1.766  1.00  0.00    -0.323 OA
HETATM    5  C   UNL     1      61.765   8.951   0.784  1.00  0.00     0.352 A 
HETATM    6  C   UNL     1      63.593   7.629   3.485  1.00  0.00     0.047 A 
HETATM    7  C   UNL     1      62.335  10.098   4.056  1.00  0.00     0.040 A 
HETATM    8  C   UNL     1      63.738   8.216   4.752  1.00  0.00    -0.053 A 
HETATM    9  C   UNL     1      63.105   9.450   5.026  1.00  0.00     0.010 A 
ENDROOT
BRANCH   8  10
HETATM   10  C   UNL     1      64.588   7.557   5.814  1.00  0.00     0.064 C 
BRANCH  10  11
HETATM   11  C   UNL     1      66.068   7.931   5.708  1.00  0.00     0.168 C 
BRANCH  11  12
HETATM   12  O   UNL     1      66.429   8.919   6.668  1.00  0.00    -0.401 OA
HETATM   13  H   UNL     1      66.519   9.779   6.228  1.00  0.00     0.209 HD
ENDBRANCH  11  12
ENDBRANCH  10  11
ENDBRANCH   8  10
TORSDOF 3
ENDMDL
MODEL 9
REMARK VINA RESULT:      -3.7     13.402     14.169
REMARK  3 active torsions:
REMARK  status: ('A' for Active; 'I' for Inactive)
REMARK    1  A    between atoms: C_8  and  C_11 
REMARK    2  A    between atoms: O_10  and  C_12 
REMARK    3  A    between atoms: C_11  and  C_12 
ROOT
HETATM    1  C   UNL     1      58.740  -0.269  12.238  1.00  0.00     0.105 A 
HETATM    2  C   UNL     1      59.745   0.533  12.722  1.00  0.00     0.105 A 
HETATM    3  O   UNL     1      59.213  -1.260  11.433  1.00  0.00    -0.323 OA
HETATM    4  O   UNL     1      60.976   0.148  12.288  1.00  0.00    -0.323 OA
HETATM    5  C   UNL     1      60.631  -0.997  11.482  1.00  0.00     0.352 A 
HETATM    6  C   UNL     1      57.417  -0.055  12.562  1.00  0.00     0.047 A 
HETATM    7  C   UNL     1      59.486   1.596  13.558  1.00  0.00     0.040 A 
HETATM    8  C   UNL     1      57.111   1.019  13.412  1.00  0.00    -0.053 A 
HETATM    9  C   UNL     1      58.154   1.838  13.904  1.00  0.00     0.010 A 
ENDROOT
BRANCH   8  10
HETATM   10  C   UNL     1      55.684   1.290  13.831  1.00  0.00     0.064 C 
BRANCH  10  11
HETATM   11  C   UNL     1      55.298   2.765  13.704  1.00  0.00     0.168 C 
BRANCH  11  12
HETATM   12  O   UNL     1      55.065   3.356  14.979  1.00  0.00    -0.401 OA
HETATM   13  H   UNL     1      54.497   4.135  14.874  1.00  0.00     0.209 HD
ENDBRANCH  11  12
ENDBRANCH  10  11
ENDBRANCH   8  10
TORSDOF 3
ENDMDL
