MODEL 1
REMARK VINA RESULT:      -4.8      0.000      0.000
REMARK  6 active torsions:
REMARK  status: ('A' for Active; 'I' for Inactive)
REMARK    1  A    between atoms: N_1  and  C_11 
REMARK    2  A    between atoms: C_2  and  O_9 
REMARK    3  A    between atoms: N_3  and  C_12 
REMARK    4  A    between atoms: C_4  and  C_12 
REMARK    5  A    between atoms: O_9  and  C_10 
REMARK    6  A    between atoms: C_10  and  C_11 
ROOT
HETATM    1  C   UNL     1      63.815   9.116   4.848  1.00  0.00     0.068 A 
HETATM    2  C   UNL     1      62.073   9.107   2.614  1.00  0.00    -0.033 A 
HETATM    3  C   UNL     1      62.888  10.145   4.671  1.00  0.00     0.037 A 
HETATM    4  C   UNL     1      63.836   8.066   3.929  1.00  0.00     0.037 A 
HETATM    5  C   UNL     1      62.029  10.137   3.566  1.00  0.00     0.011 A 
HETATM    6  C   UNL     1      62.972   8.053   2.827  1.00  0.00     0.011 A 
ENDROOT
BRANCH   1   7
HETATM    7  O   UNL     1      64.765   9.055   5.835  1.00  0.00    -0.350 OA
BRANCH   7   8
HETATM    8  C   UNL     1      65.837   8.114   5.672  1.00  0.00     0.203 C 
BRANCH   8   9
HETATM    9  C   UNL     1      66.850   8.289   6.822  1.00  0.00     0.260 C 
BRANCH   9  10
HETATM   10  N   UNL     1      67.338   7.033   7.438  1.00  0.00    -0.077 N 
HETATM   11  C   UNL     1      66.352   6.526   8.396  1.00  0.00     0.269 C 
HETATM   12  C   UNL     1      67.693   6.016   6.451  1.00  0.00     0.269 C 
HETATM   13  H   UNL     1      68.200   7.254   7.937  1.00  0.00     0.279 HD
ENDBRANCH   9  10
ENDBRANCH   8   9
ENDBRANCH   7   8
ENDBRANCH   1   7
BRANCH   2  14
HETATM   14  C   UNL     1      61.232   9.189   1.361  1.00  0.00     0.270 C 
BRANCH  14  15
HETATM   15  N   UNL     1      59.926   8.548   1.511  1.00  0.00    -0.075 N 
HETATM   16  C   UNL     1      59.612   7.751   0.331  1.00  0.00     0.267 C 
HETATM   17  H   UNL     1      59.212   9.265   1.632  1.00  0.00     0.277 HD
HETATM   18  H   UNL     1      59.952   7.936   2.326  1.00  0.00     0.277 HD
ENDBRANCH  14  15
ENDBRANCH   2  14
TORSDOF 6
ENDMDL
MODEL 2
REMARK VINA RESULT:      -4.7      1.348      1.882
REMARK  6 active torsions:
REMARK  status: ('A' for Active; 'I' for Inactive)
REMARK    1  A    between atoms: N_1  and  C_11 
REMARK    2  A    between atoms: C_2  and  O_9 
REMARK    3  A    between atoms: N_3  and  C_12 
REMARK    4  A    between atoms: C_4  and  C_12 
REMARK    5  A    between atoms: O_9  and  C_10 
REMARK    6  A    between atoms: C_10  and  C_11 
ROOT
HETATM    1  C   UNL     1      64.541   8.762   5.108  1.00  0.00     0.068 A 
HETATM    2  C   UNL     1      62.356   8.522   3.320  1.00  0.00    -0.033 A 
HETATM    3  C   UNL     1      64.470   7.687   4.219  1.00  0.00     0.037 A 
HETATM    4  C   UNL     1      63.540   9.734   5.068  1.00  0.00     0.037 A 
HETATM    5  C   UNL     1      63.390   7.572   3.337  1.00  0.00     0.011 A 
HETATM    6  C   UNL     1      62.462   9.624   4.180  1.00  0.00     0.011 A 
ENDROOT
BRANCH   1   7
HETATM    7  O   UNL     1      65.496   8.940   6.076  1.00  0.00    -0.350 OA
BRANCH   7   8
HETATM    8  C   UNL     1      66.595   8.018   6.106  1.00  0.00     0.203 C 
BRANCH   8   9
HETATM    9  C   UNL     1      66.587   7.256   7.447  1.00  0.00     0.260 C 
BRANCH   9  10
HETATM   10  N   UNL     1      67.793   6.442   7.725  1.00  0.00    -0.077 N 
HETATM   11  C   UNL     1      67.823   6.052   9.138  1.00  0.00     0.269 C 
HETATM   12  C   UNL     1      67.906   5.277   6.850  1.00  0.00     0.269 C 
HETATM   13  H   UNL     1      68.607   7.024   7.526  1.00  0.00     0.279 HD
ENDBRANCH   9  10
ENDBRANCH   8   9
ENDBRANCH   7   8
ENDBRANCH   1   7
BRANCH   2  14
HETATM   14  C   UNL     1      61.136   8.306   2.456  1.00  0.00     0.270 C 
BRANCH  14  15
HETATM   15  N   UNL     1      59.894   8.270   3.227  1.00  0.00    -0.075 N 
HETATM   16  C   UNL     1      59.746   6.981   3.894  1.00  0.00     0.267 C 
HETATM   17  H   UNL     1      59.104   8.415   2.599  1.00  0.00     0.277 HD
HETATM   18  H   UNL     1      59.923   9.005   3.933  1.00  0.00     0.277 HD
ENDBRANCH  14  15
ENDBRANCH   2  14
TORSDOF 6
ENDMDL
MODEL 3
REMARK VINA RESULT:      -4.4      1.046      1.831
REMARK  6 active torsions:
REMARK  status: ('A' for Active; 'I' for Inactive)
REMARK    1  A    between atoms: N_1  and  C_11 
REMARK    2  A    between atoms: C_2  and  O_9 
REMARK    3  A    between atoms: N_3  and  C_12 
REMARK    4  A    between atoms: C_4  and  C_12 
REMARK    5  A    between atoms: O_9  and  C_10 
REMARK    6  A    between atoms: C_10  and  C_11 
ROOT
HETATM    1  C   UNL     1      63.866   8.334   4.877  1.00  0.00     0.068 A 
HETATM    2  C   UNL     1      62.416   8.777   2.483  1.00  0.00    -0.033 A 
HETATM    3  C   UNL     1      63.955   7.427   3.819  1.00  0.00     0.037 A 
HETATM    4  C   UNL     1      63.085   9.479   4.716  1.00  0.00     0.037 A 
HETATM    5  C   UNL     1      63.238   7.649   2.638  1.00  0.00     0.011 A 
HETATM    6  C   UNL     1      62.373   9.707   3.532  1.00  0.00     0.011 A 
ENDROOT
BRANCH   1   7
HETATM    7  O   UNL     1      64.446   8.185   6.111  1.00  0.00    -0.350 OA
BRANCH   7   8
HETATM    8  C   UNL     1      65.025   6.911   6.427  1.00  0.00     0.203 C 
BRANCH   8   9
HETATM    9  C   UNL     1      66.467   7.116   6.933  1.00  0.00     0.260 C 
BRANCH   9  10
HETATM   10  N   UNL     1      67.537   6.767   5.968  1.00  0.00    -0.077 N 
HETATM   11  C   UNL     1      67.153   5.580   5.198  1.00  0.00     0.269 C 
HETATM   12  C   UNL     1      67.895   7.879   5.090  1.00  0.00     0.269 C 
HETATM   13  H   UNL     1      68.376   6.553   6.508  1.00  0.00     0.279 HD
ENDBRANCH   9  10
ENDBRANCH   8   9
ENDBRANCH   7   8
ENDBRANCH   1   7
BRANCH   2  14
HETATM   14  C   UNL     1      61.548   8.925   1.256  1.00  0.00     0.270 C 
BRANCH  14  15
HETATM   15  N   UNL     1      60.127   8.730   1.539  1.00  0.00    -0.075 N 
HETATM   16  C   UNL     1      59.516   7.883   0.521  1.00  0.00     0.267 C 
HETATM   17  H   UNL     1      59.659   9.636   1.547  1.00  0.00     0.277 HD
HETATM   18  H   UNL     1      60.031   8.277   2.447  1.00  0.00     0.277 HD
ENDBRANCH  14  15
ENDBRANCH   2  14
TORSDOF 6
ENDMDL
MODEL 4
REMARK VINA RESULT:      -4.3      1.719      2.360
REMARK  6 active torsions:
REMARK  status: ('A' for Active; 'I' for Inactive)
REMARK    1  A    between atoms: N_1  and  C_11 
REMARK    2  A    between atoms: C_2  and  O_9 
REMARK    3  A    between atoms: N_3  and  C_12 
REMARK    4  A    between atoms: C_4  and  C_12 
REMARK    5  A    between atoms: O_9  and  C_10 
REMARK    6  A    between atoms: C_10  and  C_11 
ROOT
HETATM    1  C   UNL     1      64.945   7.284   4.562  1.00  0.00     0.068 A 
HETATM    2  C   UNL     1      62.832   8.616   3.224  1.00  0.00    -0.033 A 
HETATM    3  C   UNL     1      64.440   8.488   5.059  1.00  0.00     0.037 A 
HETATM    4  C   UNL     1      64.362   6.733   3.420  1.00  0.00     0.037 A 
HETATM    5  C   UNL     1      63.396   9.142   4.396  1.00  0.00     0.011 A 
HETATM    6  C   UNL     1      63.312   7.382   2.760  1.00  0.00     0.011 A 
ENDROOT
BRANCH   1   7
HETATM    7  O   UNL     1      66.018   6.595   5.066  1.00  0.00    -0.350 OA
BRANCH   7   8
HETATM    8  C   UNL     1      67.023   7.344   5.766  1.00  0.00     0.203 C 
BRANCH   8   9
HETATM    9  C   UNL     1      67.761   6.414   6.750  1.00  0.00     0.260 C 
BRANCH   9  10
HETATM   10  N   UNL     1      66.899   5.484   7.517  1.00  0.00    -0.077 N 
HETATM   11  C   UNL     1      67.687   4.346   7.997  1.00  0.00     0.269 C 
HETATM   12  C   UNL     1      66.190   6.141   8.613  1.00  0.00     0.269 C 
HETATM   13  H   UNL     1      66.178   5.143   6.881  1.00  0.00     0.279 HD
ENDBRANCH   9  10
ENDBRANCH   8   9
ENDBRANCH   7   8
ENDBRANCH   1   7
BRANCH   2  14
HETATM   14  C   UNL     1      61.801   9.406   2.452  1.00  0.00     0.270 C 
BRANCH  14  15
HETATM   15  N   UNL     1      61.529  10.715   3.045  1.00  0.00    -0.075 N 
HETATM   16  C   UNL     1      61.775  11.774   2.074  1.00  0.00     0.267 C 
HETATM   17  H   UNL     1      62.137  10.851   3.852  1.00  0.00     0.277 HD
HETATM   18  H   UNL     1      60.551  10.750   3.331  1.00  0.00     0.277 HD
ENDBRANCH  14  15
ENDBRANCH   2  14
TORSDOF 6
ENDMDL
MODEL 5
REMARK VINA RESULT:      -4.2      1.950      2.887
REMARK  6 active torsions:
REMARK  status: ('A' for Active; 'I' for Inactive)
REMARK    1  A    between atoms: N_1  and  C_11 
REMARK    2  A    between atoms: C_2  and  O_9 
REMARK    3  A    between atoms: N_3  and  C_12 
REMARK    4  A    between atoms: C_4  and  C_12 
REMARK    5  A    between atoms: O_9  and  C_10 
REMARK    6  A    between atoms: C_10  and  C_11 
ROOT
HETATM    1  C   UNL     1      65.781   6.989   4.390  1.00  0.00     0.068 A 
HETATM    2  C   UNL     1      63.371   8.443   4.064  1.00  0.00    -0.033 A 
HETATM    3  C   UNL     1      64.848   6.604   3.424  1.00  0.00     0.037 A 
HETATM    4  C   UNL     1      65.521   8.124   5.159  1.00  0.00     0.037 A 
HETATM    5  C   UNL     1      63.660   7.325   3.266  1.00  0.00     0.011 A 
HETATM    6  C   UNL     1      64.336   8.851   4.996  1.00  0.00     0.011 A 
ENDROOT
BRANCH   1   7
HETATM    7  O   UNL     1      66.936   6.318   4.702  1.00  0.00    -0.350 OA
BRANCH   7   8
HETATM    8  C   UNL     1      67.617   6.688   5.909  1.00  0.00     0.203 C 
BRANCH   8   9
HETATM    9  C   UNL     1      67.775   5.445   6.809  1.00  0.00     0.260 C 
BRANCH   9  10
HETATM   10  N   UNL     1      66.745   5.285   7.862  1.00  0.00    -0.077 N 
HETATM   11  C   UNL     1      66.446   6.582   8.476  1.00  0.00     0.269 C 
HETATM   12  C   UNL     1      65.531   4.634   7.374  1.00  0.00     0.269 C 
HETATM   13  H   UNL     1      67.131   4.664   8.573  1.00  0.00     0.279 HD
ENDBRANCH   9  10
ENDBRANCH   8   9
ENDBRANCH   7   8
ENDBRANCH   1   7
BRANCH   2  14
HETATM   14  C   UNL     1      62.025   9.122   3.968  1.00  0.00     0.270 C 
BRANCH  14  15
HETATM   15  N   UNL     1      62.098  10.440   3.339  1.00  0.00    -0.075 N 
HETATM   16  C   UNL     1      61.866  10.334   1.903  1.00  0.00     0.267 C 
HETATM   17  H   UNL     1      63.023  10.839   3.501  1.00  0.00     0.277 HD
HETATM   18  H   UNL     1      61.381  11.039   3.746  1.00  0.00     0.277 HD
ENDBRANCH  14  15
ENDBRANCH   2  14
TORSDOF 6
ENDMDL
MODEL 6
REMARK VINA RESULT:      -3.9      1.604      7.196
REMARK  6 active torsions:
REMARK  status: ('A' for Active; 'I' for Inactive)
REMARK    1  A    between atoms: N_1  and  C_11 
REMARK    2  A    between atoms: C_2  and  O_9 
REMARK    3  A    between atoms: N_3  and  C_12 
REMARK    4  A    between atoms: C_4  and  C_12 
REMARK    5  A    between atoms: O_9  and  C_10 
REMARK    6  A    between atoms: C_10  and  C_11 
ROOT
HETATM    1  C   UNL     1      63.339   7.954   5.230  1.00  0.00     0.068 A 
HETATM    2  C   UNL     1      65.738   7.166   6.515  1.00  0.00    -0.033 A 
HETATM    3  C   UNL     1      63.327   6.936   6.187  1.00  0.00     0.037 A 
HETATM    4  C   UNL     1      64.545   8.600   4.953  1.00  0.00     0.037 A 
HETATM    5  C   UNL     1      64.514   6.550   6.820  1.00  0.00     0.011 A 
HETATM    6  C   UNL     1      65.732   8.220   5.591  1.00  0.00     0.011 A 
ENDROOT
BRANCH   1   7
HETATM    7  O   UNL     1      62.266   8.362   4.480  1.00  0.00    -0.350 OA
BRANCH   7   8
HETATM    8  C   UNL     1      61.954   7.609   3.299  1.00  0.00     0.203 C 
BRANCH   8   9
HETATM    9  C   UNL     1      60.524   7.957   2.834  1.00  0.00     0.260 C 
BRANCH   9  10
HETATM   10  N   UNL     1      60.435   8.756   1.589  1.00  0.00    -0.077 N 
HETATM   11  C   UNL     1      61.777   9.015   1.060  1.00  0.00     0.269 C 
HETATM   12  C   UNL     1      59.575   8.142   0.581  1.00  0.00     0.269 C 
HETATM   13  H   UNL     1      59.997   9.646   1.829  1.00  0.00     0.279 HD
ENDBRANCH   9  10
ENDBRANCH   8   9
ENDBRANCH   7   8
ENDBRANCH   1   7
BRANCH   2  14
HETATM   14  C   UNL     1      67.024   6.642   7.110  1.00  0.00     0.270 C 
BRANCH  14  15
HETATM   15  N   UNL     1      66.817   5.922   8.366  1.00  0.00    -0.075 N 
HETATM   16  C   UNL     1      68.055   5.872   9.134  1.00  0.00     0.267 C 
HETATM   17  H   UNL     1      66.510   4.972   8.162  1.00  0.00     0.277 HD
HETATM   18  H   UNL     1      66.109   6.411   8.912  1.00  0.00     0.277 HD
ENDBRANCH  14  15
ENDBRANCH   2  14
TORSDOF 6
ENDMDL
MODEL 7
REMARK VINA RESULT:      -3.9      2.229      2.887
REMARK  6 active torsions:
REMARK  status: ('A' for Active; 'I' for Inactive)
REMARK    1  A    between atoms: N_1  and  C_11 
REMARK    2  A    between atoms: C_2  and  O_9 
REMARK    3  A    between atoms: N_3  and  C_12 
REMARK    4  A    between atoms: C_4  and  C_12 
REMARK    5  A    between atoms: O_9  and  C_10 
REMARK    6  A    between atoms: C_10  and  C_11 
ROOT
HETATM    1  C   UNL     1      63.792   6.229   4.484  1.00  0.00     0.068 A 
HETATM    2  C   UNL     1      62.734   8.842   4.203  1.00  0.00    -0.033 A 
HETATM    3  C   UNL     1      63.330   6.928   5.601  1.00  0.00     0.037 A 
HETATM    4  C   UNL     1      63.684   6.826   3.227  1.00  0.00     0.037 A 
HETATM    5  C   UNL     1      62.807   8.218   5.459  1.00  0.00     0.011 A 
HETATM    6  C   UNL     1      63.154   8.114   3.081  1.00  0.00     0.011 A 
ENDROOT
BRANCH   1   7
HETATM    7  O   UNL     1      64.404   5.002   4.503  1.00  0.00    -0.350 OA
BRANCH   7   8
HETATM    8  C   UNL     1      65.248   4.694   5.622  1.00  0.00     0.203 C 
BRANCH   8   9
HETATM    9  C   UNL     1      66.677   5.201   5.339  1.00  0.00     0.260 C 
BRANCH   9  10
HETATM   10  N   UNL     1      67.117   6.356   6.155  1.00  0.00    -0.077 N 
HETATM   11  C   UNL     1      68.027   5.908   7.213  1.00  0.00     0.269 C 
HETATM   12  C   UNL     1      67.714   7.423   5.355  1.00  0.00     0.269 C 
HETATM   13  H   UNL     1      66.284   6.760   6.585  1.00  0.00     0.279 HD
ENDBRANCH   9  10
ENDBRANCH   8   9
ENDBRANCH   7   8
ENDBRANCH   1   7
BRANCH   2  14
HETATM   14  C   UNL     1      62.293  10.283   4.092  1.00  0.00     0.270 C 
BRANCH  14  15
HETATM   15  N   UNL     1      61.324  10.499   3.019  1.00  0.00    -0.075 N 
HETATM   16  C   UNL     1      61.801  11.526   2.101  1.00  0.00     0.267 C 
HETATM   17  H   UNL     1      60.436  10.797   3.423  1.00  0.00     0.277 HD
HETATM   18  H   UNL     1      61.202   9.627   2.505  1.00  0.00     0.277 HD
ENDBRANCH  14  15
ENDBRANCH   2  14
TORSDOF 6
ENDMDL
MODEL 8
REMARK VINA RESULT:      -3.9      2.030      6.907
REMARK  6 active torsions:
REMARK  status: ('A' for Active; 'I' for Inactive)
REMARK    1  A    between atoms: N_1  and  C_11 
REMARK    2  A    between atoms: C_2  and  O_9 
REMARK    3  A    between atoms: N_3  and  C_12 
REMARK    4  A    between atoms: C_4  and  C_12 
REMARK    5  A    between atoms: O_9  and  C_10 
REMARK    6  A    between atoms: C_10  and  C_11 
ROOT
HETATM    1  C   UNL     1      63.470   7.582   3.564  1.00  0.00     0.068 A 
HETATM    2  C   UNL     1      65.664   8.050   5.294  1.00  0.00    -0.033 A 
HETATM    3  C   UNL     1      63.480   8.696   4.407  1.00  0.00     0.037 A 
HETATM    4  C   UNL     1      64.576   6.731   3.562  1.00  0.00     0.037 A 
HETATM    5  C   UNL     1      64.566   8.924   5.259  1.00  0.00     0.011 A 
HETATM    6  C   UNL     1      65.667   6.963   4.409  1.00  0.00     0.011 A 
ENDROOT
BRANCH   1   7
HETATM    7  O   UNL     1      62.432   7.201   2.752  1.00  0.00    -0.350 OA
BRANCH   7   8
HETATM    8  C   UNL     1      61.288   8.064   2.683  1.00  0.00     0.203 C 
BRANCH   8   9
HETATM    9  C   UNL     1      60.123   7.431   3.471  1.00  0.00     0.260 C 
BRANCH   9  10
HETATM   10  N   UNL     1      58.772   7.935   3.128  1.00  0.00    -0.077 N 
HETATM   11  C   UNL     1      58.355   7.410   1.825  1.00  0.00     0.269 C 
HETATM   12  C   UNL     1      57.779   7.648   4.161  1.00  0.00     0.269 C 
HETATM   13  H   UNL     1      58.832   8.952   3.071  1.00  0.00     0.279 HD
ENDBRANCH   9  10
ENDBRANCH   8   9
ENDBRANCH   7   8
ENDBRANCH   1   7
BRANCH   2  14
HETATM   14  C   UNL     1      66.760   8.242   6.316  1.00  0.00     0.270 C 
BRANCH  14  15
HETATM   15  N   UNL     1      67.256   6.979   6.861  1.00  0.00    -0.075 N 
HETATM   16  C   UNL     1      66.599   6.677   8.127  1.00  0.00     0.267 C 
HETATM   17  H   UNL     1      68.261   7.051   7.014  1.00  0.00     0.277 HD
HETATM   18  H   UNL     1      67.053   6.232   6.198  1.00  0.00     0.277 HD
ENDBRANCH  14  15
ENDBRANCH   2  14
TORSDOF 6
ENDMDL
MODEL 9
REMARK VINA RESULT:      -3.9      1.975      2.035
REMARK  6 active torsions:
REMARK  status: ('A' for Active; 'I' for Inactive)
REMARK    1  A    between atoms: N_1  and  C_11 
REMARK    2  A    between atoms: C_2  and  O_9 
REMARK    3  A    between atoms: N_3  and  C_12 
REMARK    4  A    between atoms: C_4  and  C_12 
REMARK    5  A    between atoms: O_9  and  C_10 
REMARK    6  A    between atoms: C_10  and  C_11 
ROOT
HETATM    1  C   UNL     1      63.412   8.390   4.608  1.00  0.00     0.068 A 
HETATM    2  C   UNL     1      60.786   7.833   3.701  1.00  0.00    -0.033 A 
HETATM    3  C   UNL     1      62.779   9.247   3.705  1.00  0.00     0.037 A 
HETATM    4  C   UNL     1      62.710   7.281   5.085  1.00  0.00     0.037 A 
HETATM    5  C   UNL     1      61.482   8.969   3.259  1.00  0.00     0.011 A 
HETATM    6  C   UNL     1      61.409   7.006   4.646  1.00  0.00     0.011 A 
ENDROOT
BRANCH   1   7
HETATM    7  O   UNL     1      64.705   8.503   5.049  1.00  0.00    -0.350 OA
BRANCH   7   8
HETATM    8  C   UNL     1      65.183   7.517   5.976  1.00  0.00     0.203 C 
BRANCH   8   9
HETATM    9  C   UNL     1      66.525   7.985   6.574  1.00  0.00     0.260 C 
BRANCH   9  10
HETATM   10  N   UNL     1      67.639   7.012   6.483  1.00  0.00    -0.077 N 
HETATM   11  C   UNL     1      67.650   6.147   7.666  1.00  0.00     0.269 C 
HETATM   12  C   UNL     1      67.607   6.227   5.251  1.00  0.00     0.269 C 
HETATM   13  H   UNL     1      68.508   7.545   6.455  1.00  0.00     0.279 HD
ENDBRANCH   9  10
ENDBRANCH   8   9
ENDBRANCH   7   8
ENDBRANCH   1   7
BRANCH   2  14
HETATM   14  C   UNL     1      59.443   7.481   3.105  1.00  0.00     0.270 C 
BRANCH  14  15
HETATM   15  N   UNL     1      58.322   8.030   3.867  1.00  0.00    -0.075 N 
HETATM   16  C   UNL     1      57.209   7.090   3.885  1.00  0.00     0.267 C 
HETATM   17  H   UNL     1      58.018   8.903   3.435  1.00  0.00     0.277 HD
HETATM   18  H   UNL     1      58.627   8.200   4.825  1.00  0.00     0.277 HD
ENDBRANCH  14  15
ENDBRANCH   2  14
TORSDOF 6
ENDMDL
