MODEL 1
REMARK VINA RESULT:      -4.4      0.000      0.000
REMARK  3 active torsions:
REMARK  status: ('A' for Active; 'I' for Inactive)
REMARK    1  A    between atoms: C_1  and  N_3 
REMARK    2  A    between atoms: C_5  and  C_10 
REMARK    3  A    between atoms: C_10  and  O_11 
ROOT
HETATM    1  C   UNL     1      63.406   8.803   4.878  1.00  0.00     0.072 A 
HETATM    2  S   UNL     1      62.874   8.727   3.237  1.00  0.00    -0.075 SA
HETATM    3  C   UNL     1      63.093  10.050   5.398  1.00  0.00     0.038 A 
HETATM    4  C   UNL     1      62.215  10.303   3.267  1.00  0.00     0.008 A 
HETATM    5  C   UNL     1      62.406  10.902   4.490  1.00  0.00     0.019 A 
ENDROOT
BRANCH   1   6
HETATM    6  N   UNL     1      64.070   7.793   5.531  1.00  0.00    -0.371 N 
HETATM    7  C   UNL     1      65.503   7.898   5.869  1.00  0.00     0.149 C 
HETATM    8  C   UNL     1      65.831   6.955   7.041  1.00  0.00     0.187 C 
HETATM    9  O   UNL     1      65.454   5.597   6.761  1.00  0.00    -0.388 OA
HETATM   10  C   UNL     1      64.045   5.525   6.490  1.00  0.00     0.187 C 
HETATM   11  C   UNL     1      63.666   6.392   5.282  1.00  0.00     0.149 C 
ENDBRANCH   1   6
BRANCH   4  12
HETATM   12  C   UNL     1      61.535  10.866   2.067  1.00  0.00     0.210 C 
BRANCH  12  13
HETATM   13  O   UNL     1      62.106  12.143   1.816  1.00  0.00    -0.396 OA
HETATM   14  H   UNL     1      63.072  12.064   1.781  1.00  0.00     0.209 HD
ENDBRANCH  12  13
ENDBRANCH   4  12
TORSDOF 3
ENDMDL
MODEL 2
REMARK VINA RESULT:      -4.4      1.394      2.099
REMARK  3 active torsions:
REMARK  status: ('A' for Active; 'I' for Inactive)
REMARK    1  A    between atoms: C_1  and  N_3 
REMARK    2  A    between atoms: C_5  and  C_10 
REMARK    3  A    between atoms: C_10  and  O_11 
ROOT
HETATM    1  C   UNL     1      63.912   8.192   4.737  1.00  0.00     0.072 A 
HETATM    2  S   UNL     1      63.354   9.788   5.089  1.00  0.00    -0.075 SA
HETATM    3  C   UNL     1      63.405   7.796   3.509  1.00  0.00     0.038 A 
HETATM    4  C   UNL     1      62.504   9.929   3.614  1.00  0.00     0.008 A 
HETATM    5  C   UNL     1      62.613   8.784   2.862  1.00  0.00     0.019 A 
ENDROOT
BRANCH   1   6
HETATM    6  N   UNL     1      64.699   7.438   5.574  1.00  0.00    -0.371 N 
HETATM    7  C   UNL     1      64.114   6.486   6.538  1.00  0.00     0.149 C 
HETATM    8  C   UNL     1      65.156   5.413   6.905  1.00  0.00     0.187 C 
HETATM    9  O   UNL     1      66.370   5.994   7.409  1.00  0.00    -0.388 OA
HETATM   10  C   UNL     1      66.939   6.872   6.425  1.00  0.00     0.187 C 
HETATM   11  C   UNL     1      65.971   8.008   6.068  1.00  0.00     0.149 C 
ENDBRANCH   1   6
BRANCH   4  12
HETATM   12  C   UNL     1      61.769  11.182   3.276  1.00  0.00     0.210 C 
BRANCH  12  13
HETATM   13  O   UNL     1      62.090  12.142   4.273  1.00  0.00    -0.396 OA
HETATM   14  H   UNL     1      62.428  12.947   3.850  1.00  0.00     0.209 HD
ENDBRANCH  12  13
ENDBRANCH   4  12
TORSDOF 3
ENDMDL
MODEL 3
REMARK VINA RESULT:      -4.3      2.286      2.916
REMARK  3 active torsions:
REMARK  status: ('A' for Active; 'I' for Inactive)
REMARK    1  A    between atoms: C_1  and  N_3 
REMARK    2  A    between atoms: C_5  and  C_10 
REMARK    3  A    between atoms: C_10  and  O_11 
ROOT
HETATM    1  C   UNL     1      62.420   8.286   3.428  1.00  0.00     0.072 A 
HETATM    2  S   UNL     1      61.249   7.237   2.714  1.00  0.00    -0.075 SA
HETATM    3  C   UNL     1      62.445   9.481   2.725  1.00  0.00     0.038 A 
HETATM    4  C   UNL     1      60.781   8.386   1.539  1.00  0.00     0.008 A 
HETATM    5  C   UNL     1      61.507   9.547   1.658  1.00  0.00     0.019 A 
ENDROOT
BRANCH   1   6
HETATM    6  N   UNL     1      63.218   7.953   4.496  1.00  0.00    -0.371 N 
HETATM    7  C   UNL     1      62.695   7.192   5.647  1.00  0.00     0.149 C 
HETATM    8  C   UNL     1      63.855   6.485   6.373  1.00  0.00     0.187 C 
HETATM    9  O   UNL     1      64.880   7.408   6.773  1.00  0.00    -0.388 OA
HETATM   10  C   UNL     1      65.403   8.091   5.623  1.00  0.00     0.187 C 
HETATM   11  C   UNL     1      64.303   8.876   4.895  1.00  0.00     0.149 C 
ENDBRANCH   1   6
BRANCH   4  12
HETATM   12  C   UNL     1      59.706   8.073   0.555  1.00  0.00     0.210 C 
BRANCH  12  13
HETATM   13  O   UNL     1      58.473   8.484   1.129  1.00  0.00    -0.396 OA
HETATM   14  H   UNL     1      57.894   7.714   1.236  1.00  0.00     0.209 HD
ENDBRANCH  12  13
ENDBRANCH   4  12
TORSDOF 3
ENDMDL
MODEL 4
REMARK VINA RESULT:      -4.0      2.908      3.281
REMARK  3 active torsions:
REMARK  status: ('A' for Active; 'I' for Inactive)
REMARK    1  A    between atoms: C_1  and  N_3 
REMARK    2  A    between atoms: C_5  and  C_10 
REMARK    3  A    between atoms: C_10  and  O_11 
ROOT
HETATM    1  C   UNL     1      64.531   7.493   4.085  1.00  0.00     0.072 A 
HETATM    2  S   UNL     1      64.820   8.650   5.334  1.00  0.00    -0.075 SA
HETATM    3  C   UNL     1      63.369   7.835   3.411  1.00  0.00     0.038 A 
HETATM    4  C   UNL     1      63.447   9.584   4.931  1.00  0.00     0.008 A 
HETATM    5  C   UNL     1      62.756   9.029   3.881  1.00  0.00     0.019 A 
ENDROOT
BRANCH   1   6
HETATM    6  N   UNL     1      65.318   6.392   3.843  1.00  0.00    -0.371 N 
HETATM    7  C   UNL     1      66.782   6.432   4.021  1.00  0.00     0.149 C 
HETATM    8  C   UNL     1      67.317   5.006   4.246  1.00  0.00     0.187 C 
HETATM    9  O   UNL     1      66.940   4.117   3.183  1.00  0.00    -0.388 OA
HETATM   10  C   UNL     1      65.509   4.062   3.073  1.00  0.00     0.187 C 
HETATM   11  C   UNL     1      64.920   5.447   2.777  1.00  0.00     0.149 C 
ENDBRANCH   1   6
BRANCH   4  12
HETATM   12  C   UNL     1      63.128  10.830   5.684  1.00  0.00     0.210 C 
BRANCH  12  13
HETATM   13  O   UNL     1      64.339  11.298   6.261  1.00  0.00    -0.396 OA
HETATM   14  H   UNL     1      64.518  10.809   7.080  1.00  0.00     0.209 HD
ENDBRANCH  12  13
ENDBRANCH   4  12
TORSDOF 3
ENDMDL
MODEL 5
REMARK VINA RESULT:      -4.0      1.856      5.669
REMARK  3 active torsions:
REMARK  status: ('A' for Active; 'I' for Inactive)
REMARK    1  A    between atoms: C_1  and  N_3 
REMARK    2  A    between atoms: C_5  and  C_10 
REMARK    3  A    between atoms: C_10  and  O_11 
ROOT
HETATM    1  C   UNL     1      64.092   7.859   5.595  1.00  0.00     0.072 A 
HETATM    2  S   UNL     1      65.810   8.039   5.619  1.00  0.00    -0.075 SA
HETATM    3  C   UNL     1      63.753   6.675   6.232  1.00  0.00     0.038 A 
HETATM    4  C   UNL     1      66.055   6.593   6.495  1.00  0.00     0.008 A 
HETATM    5  C   UNL     1      64.864   5.958   6.755  1.00  0.00     0.019 A 
ENDROOT
BRANCH   1   6
HETATM    6  N   UNL     1      63.223   8.739   4.997  1.00  0.00    -0.371 N 
HETATM    7  C   UNL     1      62.967  10.079   5.561  1.00  0.00     0.149 C 
HETATM    8  C   UNL     1      62.453  11.018   4.454  1.00  0.00     0.187 C 
HETATM    9  O   UNL     1      61.288  10.491   3.800  1.00  0.00    -0.388 OA
HETATM   10  C   UNL     1      61.588   9.212   3.218  1.00  0.00     0.187 C 
HETATM   11  C   UNL     1      62.041   8.208   4.286  1.00  0.00     0.149 C 
ENDBRANCH   1   6
BRANCH   4  12
HETATM   12  C   UNL     1      67.428   6.162   6.884  1.00  0.00     0.210 C 
BRANCH  12  13
HETATM   13  O   UNL     1      67.778   6.876   8.062  1.00  0.00    -0.396 OA
HETATM   14  H   UNL     1      68.087   7.763   7.823  1.00  0.00     0.209 HD
ENDBRANCH  12  13
ENDBRANCH   4  12
TORSDOF 3
ENDMDL
MODEL 6
REMARK VINA RESULT:      -4.0      1.950      2.248
REMARK  3 active torsions:
REMARK  status: ('A' for Active; 'I' for Inactive)
REMARK    1  A    between atoms: C_1  and  N_3 
REMARK    2  A    between atoms: C_5  and  C_10 
REMARK    3  A    between atoms: C_10  and  O_11 
ROOT
HETATM    1  C   UNL     1      64.324   7.481   5.762  1.00  0.00     0.072 A 
HETATM    2  S   UNL     1      62.757   6.932   5.286  1.00  0.00    -0.075 SA
HETATM    3  C   UNL     1      64.567   8.716   5.180  1.00  0.00     0.038 A 
HETATM    4  C   UNL     1      62.427   8.338   4.373  1.00  0.00     0.008 A 
HETATM    5  C   UNL     1      63.487   9.212   4.399  1.00  0.00     0.019 A 
ENDROOT
BRANCH   1   6
HETATM    6  N   UNL     1      65.192   6.771   6.557  1.00  0.00    -0.371 N 
HETATM    7  C   UNL     1      66.430   7.376   7.085  1.00  0.00     0.149 C 
HETATM    8  C   UNL     1      66.885   6.613   8.343  1.00  0.00     0.187 C 
HETATM    9  O   UNL     1      67.052   5.209   8.088  1.00  0.00    -0.388 OA
HETATM   10  C   UNL     1      65.814   4.643   7.627  1.00  0.00     0.187 C 
HETATM   11  C   UNL     1      65.344   5.317   6.331  1.00  0.00     0.149 C 
ENDBRANCH   1   6
BRANCH   4  12
HETATM   12  C   UNL     1      61.120   8.501   3.674  1.00  0.00     0.210 C 
BRANCH  12  13
HETATM   13  O   UNL     1      60.860   9.895   3.585  1.00  0.00    -0.396 OA
HETATM   14  H   UNL     1      60.476  10.207   4.419  1.00  0.00     0.209 HD
ENDBRANCH  12  13
ENDBRANCH   4  12
TORSDOF 3
ENDMDL
MODEL 7
REMARK VINA RESULT:      -4.0      3.564      4.507
REMARK  3 active torsions:
REMARK  status: ('A' for Active; 'I' for Inactive)
REMARK    1  A    between atoms: C_1  and  N_3 
REMARK    2  A    between atoms: C_5  and  C_10 
REMARK    3  A    between atoms: C_10  and  O_11 
ROOT
HETATM    1  C   UNL     1      61.271   8.636   2.814  1.00  0.00     0.072 A 
HETATM    2  S   UNL     1      59.924   7.627   3.199  1.00  0.00    -0.075 SA
HETATM    3  C   UNL     1      61.290   8.865   1.447  1.00  0.00     0.038 A 
HETATM    4  C   UNL     1      59.382   7.554   1.580  1.00  0.00     0.008 A 
HETATM    5  C   UNL     1      60.212   8.262   0.743  1.00  0.00     0.019 A 
ENDROOT
BRANCH   1   6
HETATM    6  N   UNL     1      62.190   9.093   3.729  1.00  0.00    -0.371 N 
HETATM    7  C   UNL     1      62.268  10.519   4.103  1.00  0.00     0.149 C 
HETATM    8  C   UNL     1      62.930  10.656   5.487  1.00  0.00     0.187 C 
HETATM    9  O   UNL     1      64.222  10.029   5.529  1.00  0.00    -0.388 OA
HETATM   10  C   UNL     1      64.101   8.634   5.212  1.00  0.00     0.187 C 
HETATM   11  C   UNL     1      63.510   8.431   3.810  1.00  0.00     0.149 C 
ENDBRANCH   1   6
BRANCH   4  12
HETATM   12  C   UNL     1      58.151   6.795   1.223  1.00  0.00     0.210 C 
BRANCH  12  13
HETATM   13  O   UNL     1      58.095   5.656   2.072  1.00  0.00    -0.396 OA
HETATM   14  H   UNL     1      57.875   5.935   2.974  1.00  0.00     0.209 HD
ENDBRANCH  12  13
ENDBRANCH   4  12
TORSDOF 3
ENDMDL
MODEL 8
REMARK VINA RESULT:      -3.7      3.456      5.588
REMARK  3 active torsions:
REMARK  status: ('A' for Active; 'I' for Inactive)
REMARK    1  A    between atoms: C_1  and  N_3 
REMARK    2  A    between atoms: C_5  and  C_10 
REMARK    3  A    between atoms: C_10  and  O_11 
ROOT
HETATM    1  C   UNL     1      62.141   8.025   3.026  1.00  0.00     0.072 A 
HETATM    2  S   UNL     1      63.578   7.146   3.410  1.00  0.00    -0.075 SA
HETATM    3  C   UNL     1      62.112   9.192   3.773  1.00  0.00     0.038 A 
HETATM    4  C   UNL     1      64.138   8.333   4.504  1.00  0.00     0.008 A 
HETATM    5  C   UNL     1      63.250   9.378   4.605  1.00  0.00     0.019 A 
ENDROOT
BRANCH   1   6
HETATM    6  N   UNL     1      61.174   7.595   2.149  1.00  0.00    -0.371 N 
HETATM    7  C   UNL     1      61.085   6.184   1.724  1.00  0.00     0.149 C 
HETATM    8  C   UNL     1      59.655   5.876   1.244  1.00  0.00     0.187 C 
HETATM    9  O   UNL     1      59.234   6.769   0.200  1.00  0.00    -0.388 OA
HETATM   10  C   UNL     1      59.282   8.126   0.667  1.00  0.00     0.187 C 
HETATM   11  C   UNL     1      60.703   8.517   1.094  1.00  0.00     0.149 C 
ENDBRANCH   1   6
BRANCH   4  12
HETATM   12  C   UNL     1      65.441   8.165   5.207  1.00  0.00     0.210 C 
BRANCH  12  13
HETATM   13  O   UNL     1      65.586   9.263   6.098  1.00  0.00    -0.396 OA
HETATM   14  H   UNL     1      64.769   9.375   6.609  1.00  0.00     0.209 HD
ENDBRANCH  12  13
ENDBRANCH   4  12
TORSDOF 3
ENDMDL
MODEL 9
REMARK VINA RESULT:      -3.7      6.557      8.366
REMARK  3 active torsions:
REMARK  status: ('A' for Active; 'I' for Inactive)
REMARK    1  A    between atoms: C_1  and  N_3 
REMARK    2  A    between atoms: C_5  and  C_10 
REMARK    3  A    between atoms: C_10  and  O_11 
ROOT
HETATM    1  C   UNL     1      57.459   6.426   5.258  1.00  0.00     0.072 A 
HETATM    2  S   UNL     1      58.610   5.306   5.892  1.00  0.00    -0.075 SA
HETATM    3  C   UNL     1      56.822   7.065   6.310  1.00  0.00     0.038 A 
HETATM    4  C   UNL     1      58.273   5.718   7.516  1.00  0.00     0.008 A 
HETATM    5  C   UNL     1      57.289   6.674   7.595  1.00  0.00     0.019 A 
ENDROOT
BRANCH   1   6
HETATM    6  N   UNL     1      57.203   6.609   3.920  1.00  0.00    -0.371 N 
HETATM    7  C   UNL     1      58.028   7.507   3.089  1.00  0.00     0.149 C 
HETATM    8  C   UNL     1      57.909   7.100   1.609  1.00  0.00     0.187 C 
HETATM    9  O   UNL     1      56.543   7.077   1.165  1.00  0.00    -0.388 OA
HETATM   10  C   UNL     1      55.783   6.154   1.961  1.00  0.00     0.187 C 
HETATM   11  C   UNL     1      55.805   6.549   3.444  1.00  0.00     0.149 C 
ENDBRANCH   1   6
BRANCH   4  12
HETATM   12  C   UNL     1      59.011   5.066   8.635  1.00  0.00     0.210 C 
BRANCH  12  13
HETATM   13  O   UNL     1      58.666   5.756   9.828  1.00  0.00    -0.396 OA
HETATM   14  H   UNL     1      57.755   5.536  10.078  1.00  0.00     0.209 HD
ENDBRANCH  12  13
ENDBRANCH   4  12
TORSDOF 3
ENDMDL
