MODEL 1
REMARK VINA RESULT:      -5.9      0.000      0.000
REMARK  4 active torsions:
REMARK  status: ('A' for Active; 'I' for Inactive)
REMARK    1  A    between atoms: O_1  and  C_2 
REMARK    2  A    between atoms: O_1  and  C_4 
REMARK    3  A    between atoms: N_3  and  C_10 
REMARK    4  A    between atoms: C_5  and  C_10 
ROOT
HETATM    1  C   UNL     1      63.588   7.850   5.218  1.00  0.00     0.076 A 
HETATM    2  C   UNL     1      66.037   7.109   6.386  1.00  0.00    -0.033 A 
HETATM    3  C   UNL     1      64.781   8.409   4.760  1.00  0.00     0.038 A 
HETATM    4  C   UNL     1      63.609   6.987   6.314  1.00  0.00     0.038 A 
HETATM    5  C   UNL     1      64.826   6.620   6.897  1.00  0.00     0.011 A 
HETATM    6  C   UNL     1      65.999   8.011   5.310  1.00  0.00     0.011 A 
ENDROOT
BRANCH   1   7
HETATM    7  O   UNL     1      62.346   8.127   4.689  1.00  0.00    -0.311 OA
BRANCH   7   8
HETATM    8  C   UNL     1      62.186   9.192   3.831  1.00  0.00     0.076 A 
HETATM    9  C   UNL     1      62.118  10.531   4.229  1.00  0.00     0.037 A 
HETATM   10  C   UNL     1      61.916  11.535   3.281  1.00  0.00     0.003 A 
HETATM   11  C   UNL     1      61.845  11.212   1.927  1.00  0.00     0.000 A 
HETATM   12  C   UNL     1      61.983   9.886   1.520  1.00  0.00     0.003 A 
HETATM   13  C   UNL     1      62.152   8.878   2.470  1.00  0.00     0.037 A 
ENDBRANCH   7   8
ENDBRANCH   1   7
BRANCH   2  14
HETATM   14  C   UNL     1      67.359   6.641   6.951  1.00  0.00     0.270 C 
BRANCH  14  15
HETATM   15  N   UNL     1      67.545   7.073   8.336  1.00  0.00    -0.075 N 
HETATM   16  C   UNL     1      67.847   5.941   9.200  1.00  0.00     0.267 C 
HETATM   17  H   UNL     1      66.690   7.523   8.664  1.00  0.00     0.277 HD
HETATM   18  H   UNL     1      68.328   7.725   8.372  1.00  0.00     0.277 HD
ENDBRANCH  14  15
ENDBRANCH   2  14
TORSDOF 4
ENDMDL
MODEL 2
REMARK VINA RESULT:      -5.6      0.726      1.792
REMARK  4 active torsions:
REMARK  status: ('A' for Active; 'I' for Inactive)
REMARK    1  A    between atoms: O_1  and  C_2 
REMARK    2  A    between atoms: O_1  and  C_4 
REMARK    3  A    between atoms: N_3  and  C_10 
REMARK    4  A    between atoms: C_5  and  C_10 
ROOT
HETATM    1  C   UNL     1      63.746   8.103   5.577  1.00  0.00     0.076 A 
HETATM    2  C   UNL     1      66.053   6.566   6.053  1.00  0.00    -0.033 A 
HETATM    3  C   UNL     1      63.632   6.771   5.977  1.00  0.00     0.038 A 
HETATM    4  C   UNL     1      65.009   8.642   5.334  1.00  0.00     0.038 A 
HETATM    5  C   UNL     1      66.157   7.878   5.567  1.00  0.00     0.011 A 
HETATM    6  C   UNL     1      64.774   6.022   6.254  1.00  0.00     0.011 A 
ENDROOT
BRANCH   1   7
HETATM    7  O   UNL     1      62.676   8.942   5.351  1.00  0.00    -0.311 OA
BRANCH   7   8
HETATM    8  C   UNL     1      62.422   9.407   4.079  1.00  0.00     0.076 A 
HETATM    9  C   UNL     1      62.381   8.605   2.934  1.00  0.00     0.037 A 
HETATM   10  C   UNL     1      62.152   9.181   1.683  1.00  0.00     0.003 A 
HETATM   11  C   UNL     1      61.901  10.548   1.580  1.00  0.00     0.000 A 
HETATM   12  C   UNL     1      61.873  11.339   2.728  1.00  0.00     0.003 A 
HETATM   13  C   UNL     1      62.134  10.769   3.975  1.00  0.00     0.037 A 
ENDBRANCH   7   8
ENDBRANCH   1   7
BRANCH   2  14
HETATM   14  C   UNL     1      67.291   5.769   6.398  1.00  0.00     0.270 C 
BRANCH  14  15
HETATM   15  N   UNL     1      68.075   6.408   7.456  1.00  0.00    -0.075 N 
HETATM   16  C   UNL     1      67.388   6.325   8.736  1.00  0.00     0.267 C 
HETATM   17  H   UNL     1      68.219   7.389   7.218  1.00  0.00     0.277 HD
HETATM   18  H   UNL     1      68.969   5.925   7.536  1.00  0.00     0.277 HD
ENDBRANCH  14  15
ENDBRANCH   2  14
TORSDOF 4
ENDMDL
MODEL 3
REMARK VINA RESULT:      -5.3      2.947      6.737
REMARK  4 active torsions:
REMARK  status: ('A' for Active; 'I' for Inactive)
REMARK    1  A    between atoms: O_1  and  C_2 
REMARK    2  A    between atoms: O_1  and  C_4 
REMARK    3  A    between atoms: N_3  and  C_10 
REMARK    4  A    between atoms: C_5  and  C_10 
ROOT
HETATM    1  C   UNL     1      63.882   8.765   4.850  1.00  0.00     0.076 A 
HETATM    2  C   UNL     1      62.195   9.026   2.615  1.00  0.00    -0.033 A 
HETATM    3  C   UNL     1      63.840   7.761   3.882  1.00  0.00     0.038 A 
HETATM    4  C   UNL     1      63.022   9.858   4.746  1.00  0.00     0.038 A 
HETATM    5  C   UNL     1      62.180   9.987   3.637  1.00  0.00     0.011 A 
HETATM    6  C   UNL     1      63.035   7.909   2.754  1.00  0.00     0.011 A 
ENDROOT
BRANCH   1   7
HETATM    7  O   UNL     1      64.698   8.740   5.961  1.00  0.00    -0.311 OA
BRANCH   7   8
HETATM    8  C   UNL     1      65.704   7.804   6.056  1.00  0.00     0.076 A 
HETATM    9  C   UNL     1      66.926   7.880   5.380  1.00  0.00     0.037 A 
HETATM   10  C   UNL     1      67.866   6.857   5.515  1.00  0.00     0.003 A 
HETATM   11  C   UNL     1      67.615   5.788   6.374  1.00  0.00     0.000 A 
HETATM   12  C   UNL     1      66.427   5.744   7.103  1.00  0.00     0.003 A 
HETATM   13  C   UNL     1      65.473   6.750   6.943  1.00  0.00     0.037 A 
ENDBRANCH   7   8
ENDBRANCH   1   7
BRANCH   2  14
HETATM   14  C   UNL     1      61.358   9.209   1.369  1.00  0.00     0.270 C 
BRANCH  14  15
HETATM   15  N   UNL     1      60.016   8.649   1.525  1.00  0.00    -0.075 N 
HETATM   16  C   UNL     1      59.641   7.862   0.360  1.00  0.00     0.267 C 
HETATM   17  H   UNL     1      59.347   9.410   1.642  1.00  0.00     0.277 HD
HETATM   18  H   UNL     1      60.010   8.040   2.342  1.00  0.00     0.277 HD
ENDBRANCH  14  15
ENDBRANCH   2  14
TORSDOF 4
ENDMDL
MODEL 4
REMARK VINA RESULT:      -5.3      1.503      1.815
REMARK  4 active torsions:
REMARK  status: ('A' for Active; 'I' for Inactive)
REMARK    1  A    between atoms: O_1  and  C_2 
REMARK    2  A    between atoms: O_1  and  C_4 
REMARK    3  A    between atoms: N_3  and  C_10 
REMARK    4  A    between atoms: C_5  and  C_10 
ROOT
HETATM    1  C   UNL     1      63.825   8.014   5.517  1.00  0.00     0.076 A 
HETATM    2  C   UNL     1      66.197   6.542   5.857  1.00  0.00    -0.033 A 
HETATM    3  C   UNL     1      65.049   8.558   5.128  1.00  0.00     0.038 A 
HETATM    4  C   UNL     1      63.794   6.773   6.152  1.00  0.00     0.038 A 
HETATM    5  C   UNL     1      64.973   6.041   6.324  1.00  0.00     0.011 A 
HETATM    6  C   UNL     1      66.220   7.812   5.257  1.00  0.00     0.011 A 
ENDROOT
BRANCH   1   7
HETATM    7  O   UNL     1      62.609   8.645   5.362  1.00  0.00    -0.311 OA
BRANCH   7   8
HETATM    8  C   UNL     1      62.360   9.390   4.231  1.00  0.00     0.076 A 
HETATM    9  C   UNL     1      62.175  10.776   4.217  1.00  0.00     0.037 A 
HETATM   10  C   UNL     1      61.889  11.433   3.019  1.00  0.00     0.003 A 
HETATM   11  C   UNL     1      61.850  10.718   1.823  1.00  0.00     0.000 A 
HETATM   12  C   UNL     1      62.103   9.347   1.824  1.00  0.00     0.003 A 
HETATM   13  C   UNL     1      62.357   8.684   3.026  1.00  0.00     0.037 A 
ENDBRANCH   7   8
ENDBRANCH   1   7
BRANCH   2  14
HETATM   14  C   UNL     1      67.459   5.715   5.954  1.00  0.00     0.270 C 
BRANCH  14  15
HETATM   15  N   UNL     1      67.295   4.395   5.346  1.00  0.00    -0.075 N 
HETATM   16  C   UNL     1      67.305   4.485   3.893  1.00  0.00     0.267 C 
HETATM   17  H   UNL     1      66.407   3.995   5.648  1.00  0.00     0.277 HD
HETATM   18  H   UNL     1      68.071   3.802   5.639  1.00  0.00     0.277 HD
ENDBRANCH  14  15
ENDBRANCH   2  14
TORSDOF 4
ENDMDL
MODEL 5
REMARK VINA RESULT:      -5.1      2.228      3.037
REMARK  4 active torsions:
REMARK  status: ('A' for Active; 'I' for Inactive)
REMARK    1  A    between atoms: O_1  and  C_2 
REMARK    2  A    between atoms: O_1  and  C_4 
REMARK    3  A    between atoms: N_3  and  C_10 
REMARK    4  A    between atoms: C_5  and  C_10 
ROOT
HETATM    1  C   UNL     1      65.880   7.940   5.963  1.00  0.00     0.076 A 
HETATM    2  C   UNL     1      67.162   5.446   6.188  1.00  0.00    -0.033 A 
HETATM    3  C   UNL     1      67.044   7.680   5.237  1.00  0.00     0.038 A 
HETATM    4  C   UNL     1      65.405   6.987   6.864  1.00  0.00     0.038 A 
HETATM    5  C   UNL     1      66.043   5.748   6.979  1.00  0.00     0.011 A 
HETATM    6  C   UNL     1      67.655   6.430   5.316  1.00  0.00     0.011 A 
ENDROOT
BRANCH   1   7
HETATM    7  O   UNL     1      65.168   9.117   5.894  1.00  0.00    -0.311 OA
BRANCH   7   8
HETATM    8  C   UNL     1      64.108   9.231   5.021  1.00  0.00     0.076 A 
HETATM    9  C   UNL     1      63.787   8.293   4.035  1.00  0.00     0.037 A 
HETATM   10  C   UNL     1      62.713   8.520   3.174  1.00  0.00     0.003 A 
HETATM   11  C   UNL     1      61.917   9.654   3.336  1.00  0.00     0.000 A 
HETATM   12  C   UNL     1      62.192  10.556   4.362  1.00  0.00     0.003 A 
HETATM   13  C   UNL     1      63.286  10.345   5.203  1.00  0.00     0.037 A 
ENDBRANCH   7   8
ENDBRANCH   1   7
BRANCH   2  14
HETATM   14  C   UNL     1      67.797   4.075   6.239  1.00  0.00     0.270 C 
BRANCH  14  15
HETATM   15  N   UNL     1      67.662   3.363   4.968  1.00  0.00    -0.075 N 
HETATM   16  C   UNL     1      66.371   2.697   4.878  1.00  0.00     0.267 C 
HETATM   17  H   UNL     1      68.402   2.665   4.895  1.00  0.00     0.277 HD
HETATM   18  H   UNL     1      67.731   4.038   4.207  1.00  0.00     0.277 HD
ENDBRANCH  14  15
ENDBRANCH   2  14
TORSDOF 4
ENDMDL
MODEL 6
REMARK VINA RESULT:      -4.9      2.730      6.627
REMARK  4 active torsions:
REMARK  status: ('A' for Active; 'I' for Inactive)
REMARK    1  A    between atoms: O_1  and  C_2 
REMARK    2  A    between atoms: O_1  and  C_4 
REMARK    3  A    between atoms: N_3  and  C_10 
REMARK    4  A    between atoms: C_5  and  C_10 
ROOT
HETATM    1  C   UNL     1      63.683   7.754   5.649  1.00  0.00     0.076 A 
HETATM    2  C   UNL     1      62.776   8.774   3.190  1.00  0.00    -0.033 A 
HETATM    3  C   UNL     1      63.459   9.123   5.497  1.00  0.00     0.038 A 
HETATM    4  C   UNL     1      63.535   6.907   4.552  1.00  0.00     0.038 A 
HETATM    5  C   UNL     1      63.087   7.413   3.327  1.00  0.00     0.011 A 
HETATM    6  C   UNL     1      62.970   9.624   4.291  1.00  0.00     0.011 A 
ENDROOT
BRANCH   1   7
HETATM    7  O   UNL     1      64.096   7.160   6.822  1.00  0.00    -0.311 OA
BRANCH   7   8
HETATM    8  C   UNL     1      65.320   6.531   6.881  1.00  0.00     0.076 A 
HETATM    9  C   UNL     1      66.546   7.154   6.624  1.00  0.00     0.037 A 
HETATM   10  C   UNL     1      67.730   6.417   6.674  1.00  0.00     0.003 A 
HETATM   11  C   UNL     1      67.701   5.073   7.044  1.00  0.00     0.000 A 
HETATM   12  C   UNL     1      66.488   4.467   7.368  1.00  0.00     0.003 A 
HETATM   13  C   UNL     1      65.300   5.195   7.287  1.00  0.00     0.037 A 
ENDBRANCH   7   8
ENDBRANCH   1   7
BRANCH   2  14
HETATM   14  C   UNL     1      62.201   9.309   1.898  1.00  0.00     0.270 C 
BRANCH  14  15
HETATM   15  N   UNL     1      61.192  10.342   2.135  1.00  0.00    -0.075 N 
HETATM   16  C   UNL     1      61.741  11.669   1.904  1.00  0.00     0.267 C 
HETATM   17  H   UNL     1      60.869  10.278   3.101  1.00  0.00     0.277 HD
HETATM   18  H   UNL     1      60.417  10.195   1.489  1.00  0.00     0.277 HD
ENDBRANCH  14  15
ENDBRANCH   2  14
TORSDOF 4
ENDMDL
MODEL 7
REMARK VINA RESULT:      -4.8      2.113      3.326
REMARK  4 active torsions:
REMARK  status: ('A' for Active; 'I' for Inactive)
REMARK    1  A    between atoms: O_1  and  C_2 
REMARK    2  A    between atoms: O_1  and  C_4 
REMARK    3  A    between atoms: N_3  and  C_10 
REMARK    4  A    between atoms: C_5  and  C_10 
ROOT
HETATM    1  C   UNL     1      66.315   7.371   6.345  1.00  0.00     0.076 A 
HETATM    2  C   UNL     1      67.224   5.217   7.910  1.00  0.00    -0.033 A 
HETATM    3  C   UNL     1      65.498   6.832   7.340  1.00  0.00     0.038 A 
HETATM    4  C   UNL     1      67.550   6.781   6.076  1.00  0.00     0.038 A 
HETATM    5  C   UNL     1      68.002   5.709   6.851  1.00  0.00     0.011 A 
HETATM    6  C   UNL     1      65.964   5.793   8.143  1.00  0.00     0.011 A 
ENDROOT
BRANCH   1   7
HETATM    7  O   UNL     1      65.969   8.443   5.551  1.00  0.00    -0.311 OA
BRANCH   7   8
HETATM    8  C   UNL     1      64.772   8.437   4.869  1.00  0.00     0.076 A 
HETATM    9  C   UNL     1      63.755   9.381   5.042  1.00  0.00     0.037 A 
HETATM   10  C   UNL     1      62.562   9.264   4.328  1.00  0.00     0.003 A 
HETATM   11  C   UNL     1      62.405   8.242   3.393  1.00  0.00     0.000 A 
HETATM   12  C   UNL     1      63.444   7.340   3.168  1.00  0.00     0.003 A 
HETATM   13  C   UNL     1      64.625   7.437   3.905  1.00  0.00     0.037 A 
ENDBRANCH   7   8
ENDBRANCH   1   7
BRANCH   2  14
HETATM   14  C   UNL     1      67.748   4.122   8.811  1.00  0.00     0.270 C 
BRANCH  14  15
HETATM   15  N   UNL     1      68.074   2.908   8.063  1.00  0.00    -0.075 N 
HETATM   16  C   UNL     1      66.871   2.155   7.741  1.00  0.00     0.267 C 
HETATM   17  H   UNL     1      68.692   2.324   8.626  1.00  0.00     0.277 HD
HETATM   18  H   UNL     1      68.532   3.175   7.192  1.00  0.00     0.277 HD
ENDBRANCH  14  15
ENDBRANCH   2  14
TORSDOF 4
ENDMDL
MODEL 8
REMARK VINA RESULT:      -4.6      3.907      5.149
REMARK  4 active torsions:
REMARK  status: ('A' for Active; 'I' for Inactive)
REMARK    1  A    between atoms: O_1  and  C_2 
REMARK    2  A    between atoms: O_1  and  C_4 
REMARK    3  A    between atoms: N_3  and  C_10 
REMARK    4  A    between atoms: C_5  and  C_10 
ROOT
HETATM    1  C   UNL     1      61.343   6.768   4.774  1.00  0.00     0.076 A 
HETATM    2  C   UNL     1      59.316   5.851   6.495  1.00  0.00    -0.033 A 
HETATM    3  C   UNL     1      61.633   6.477   6.108  1.00  0.00     0.038 A 
HETATM    4  C   UNL     1      60.027   6.682   4.322  1.00  0.00     0.038 A 
HETATM    5  C   UNL     1      59.017   6.229   5.177  1.00  0.00     0.011 A 
HETATM    6  C   UNL     1      60.638   5.983   6.950  1.00  0.00     0.011 A 
ENDROOT
BRANCH   1   7
HETATM    7  O   UNL     1      62.274   7.192   3.851  1.00  0.00    -0.311 OA
BRANCH   7   8
HETATM    8  C   UNL     1      62.161   8.441   3.282  1.00  0.00     0.076 A 
HETATM    9  C   UNL     1      62.090   9.638   4.002  1.00  0.00     0.037 A 
HETATM   10  C   UNL     1      61.938  10.852   3.331  1.00  0.00     0.003 A 
HETATM   11  C   UNL     1      61.921  10.881   1.937  1.00  0.00     0.000 A 
HETATM   12  C   UNL     1      62.061   9.697   1.215  1.00  0.00     0.003 A 
HETATM   13  C   UNL     1      62.180   8.479   1.887  1.00  0.00     0.037 A 
ENDBRANCH   7   8
ENDBRANCH   1   7
BRANCH   2  14
HETATM   14  C   UNL     1      58.247   5.270   7.394  1.00  0.00     0.270 C 
BRANCH  14  15
HETATM   15  N   UNL     1      58.636   3.967   7.933  1.00  0.00    -0.075 N 
HETATM   16  C   UNL     1      58.699   4.002   9.386  1.00  0.00     0.267 C 
HETATM   17  H   UNL     1      59.553   3.714   7.566  1.00  0.00     0.277 HD
HETATM   18  H   UNL     1      57.937   3.279   7.655  1.00  0.00     0.277 HD
ENDBRANCH  14  15
ENDBRANCH   2  14
TORSDOF 4
ENDMDL
MODEL 9
REMARK VINA RESULT:      -4.5      3.034      6.548
REMARK  4 active torsions:
REMARK  status: ('A' for Active; 'I' for Inactive)
REMARK    1  A    between atoms: O_1  and  C_2 
REMARK    2  A    between atoms: O_1  and  C_4 
REMARK    3  A    between atoms: N_3  and  C_10 
REMARK    4  A    between atoms: C_5  and  C_10 
ROOT
HETATM    1  C   UNL     1      63.680   8.261   5.333  1.00  0.00     0.076 A 
HETATM    2  C   UNL     1      61.297   7.714   3.942  1.00  0.00    -0.033 A 
HETATM    3  C   UNL     1      63.399   8.921   4.136  1.00  0.00     0.038 A 
HETATM    4  C   UNL     1      62.813   7.269   5.791  1.00  0.00     0.038 A 
HETATM    5  C   UNL     1      61.630   6.994   5.099  1.00  0.00     0.011 A 
HETATM    6  C   UNL     1      62.199   8.681   3.468  1.00  0.00     0.011 A 
ENDROOT
BRANCH   1   7
HETATM    7  O   UNL     1      64.804   8.485   6.098  1.00  0.00    -0.311 OA
BRANCH   7   8
HETATM    8  C   UNL     1      65.817   7.552   6.124  1.00  0.00     0.076 A 
HETATM    9  C   UNL     1      66.517   7.109   4.997  1.00  0.00     0.037 A 
HETATM   10  C   UNL     1      67.503   6.129   5.125  1.00  0.00     0.003 A 
HETATM   11  C   UNL     1      67.837   5.637   6.386  1.00  0.00     0.000 A 
HETATM   12  C   UNL     1      67.190   6.127   7.519  1.00  0.00     0.003 A 
HETATM   13  C   UNL     1      66.181   7.083   7.388  1.00  0.00     0.037 A 
ENDBRANCH   7   8
ENDBRANCH   1   7
BRANCH   2  14
HETATM   14  C   UNL     1      59.975   7.488   3.244  1.00  0.00     0.270 C 
BRANCH  14  15
HETATM   15  N   UNL     1      58.992   6.860   4.126  1.00  0.00    -0.075 N 
HETATM   16  C   UNL     1      57.783   7.665   4.217  1.00  0.00     0.267 C 
HETATM   17  H   UNL     1      59.395   6.759   5.058  1.00  0.00     0.277 HD
HETATM   18  H   UNL     1      58.746   5.948   3.743  1.00  0.00     0.277 HD
ENDBRANCH  14  15
ENDBRANCH   2  14
TORSDOF 4
ENDMDL
