MODEL 1
REMARK VINA RESULT:      -3.6      0.000      0.000
REMARK  3 active torsions:
REMARK  status: ('A' for Active; 'I' for Inactive)
REMARK    1  A    between atoms: C_5  and  C_7 
REMARK    2  A    between atoms: C_7  and  C_10 
REMARK    3  A    between atoms: N_8  and  C_10 
ROOT
HETATM    1  N   UNL     1      60.964   8.957   3.527  1.00  0.00    -0.357 N 
ATOM      2  HN  UNL     1      60.631   8.786   4.476  1.00  0.00     0.166 HD
HETATM    3  C   UNL     1      60.696   8.195   2.487  1.00  0.00     0.046 A 
HETATM    4  S   UNL     1      61.412   8.692   1.007  1.00  0.00    -0.087 SA
HETATM    5  C   UNL     1      61.763  10.024   3.149  1.00  0.00     0.018 A 
HETATM    6  C   UNL     1      62.103  10.039   1.809  1.00  0.00     0.076 A 
HETATM    7  C   UNL     1      59.838   6.982   2.530  1.00  0.00     0.076 C 
ENDROOT
BRANCH   5   8
HETATM    8  C   UNL     1      62.153  11.038   4.179  1.00  0.00     0.084 C 
BRANCH   8   9
HETATM    9  C   UNL     1      62.937  10.417   5.340  1.00  0.00     0.235 C 
BRANCH   9  10
HETATM   10  N   UNL     1      63.618  11.438   6.141  1.00  0.00    -0.079 N 
HETATM   11  H   UNL     1      63.059  11.650   6.968  1.00  0.00     0.274 HD
HETATM   12  H   UNL     1      63.736  12.285   5.584  1.00  0.00     0.274 HD
HETATM   13  H   UNL     1      64.533  11.090   6.429  1.00  0.00     0.274 HD
ENDBRANCH   9  10
ENDBRANCH   8   9
ENDBRANCH   5   8
TORSDOF 3
ENDMDL
MODEL 2
REMARK VINA RESULT:      -3.5      3.118      4.519
REMARK  3 active torsions:
REMARK  status: ('A' for Active; 'I' for Inactive)
REMARK    1  A    between atoms: C_5  and  C_7 
REMARK    2  A    between atoms: C_7  and  C_10 
REMARK    3  A    between atoms: N_8  and  C_10 
ROOT
HETATM    1  N   UNL     1      64.711   9.120   5.737  1.00  0.00    -0.357 N 
ATOM      2  HN  UNL     1      64.811   9.864   6.428  1.00  0.00     0.166 HD
HETATM    3  C   UNL     1      65.509   8.078   5.634  1.00  0.00     0.046 A 
HETATM    4  S   UNL     1      65.137   6.989   4.359  1.00  0.00    -0.087 SA
HETATM    5  C   UNL     1      63.718   9.062   4.773  1.00  0.00     0.018 A 
HETATM    6  C   UNL     1      63.795   7.966   3.935  1.00  0.00     0.076 A 
HETATM    7  C   UNL     1      66.663   7.808   6.533  1.00  0.00     0.076 C 
ENDROOT
BRANCH   5   8
HETATM    8  C   UNL     1      62.677  10.138   4.740  1.00  0.00     0.084 C 
BRANCH   8   9
HETATM    9  C   UNL     1      61.738  10.004   3.537  1.00  0.00     0.235 C 
BRANCH   9  10
HETATM   10  N   UNL     1      61.630  11.262   2.793  1.00  0.00    -0.079 N 
HETATM   11  H   UNL     1      62.362  11.302   2.084  1.00  0.00     0.274 HD
HETATM   12  H   UNL     1      61.734  12.048   3.435  1.00  0.00     0.274 HD
HETATM   13  H   UNL     1      60.716  11.312   2.340  1.00  0.00     0.274 HD
ENDBRANCH   9  10
ENDBRANCH   8   9
ENDBRANCH   5   8
TORSDOF 3
ENDMDL
MODEL 3
REMARK VINA RESULT:      -3.4      2.063      2.879
REMARK  3 active torsions:
REMARK  status: ('A' for Active; 'I' for Inactive)
REMARK    1  A    between atoms: C_5  and  C_7 
REMARK    2  A    between atoms: C_7  and  C_10 
REMARK    3  A    between atoms: N_8  and  C_10 
ROOT
HETATM    1  N   UNL     1      62.230  10.271   3.749  1.00  0.00    -0.357 N 
ATOM      2  HN  UNL     1      62.209  10.944   4.514  1.00  0.00     0.166 HD
HETATM    3  C   UNL     1      61.977  10.556   2.489  1.00  0.00     0.046 A 
HETATM    4  S   UNL     1      62.048   9.226   1.404  1.00  0.00    -0.087 SA
HETATM    5  C   UNL     1      62.528   8.924   3.887  1.00  0.00     0.018 A 
HETATM    6  C   UNL     1      62.477   8.203   2.709  1.00  0.00     0.076 A 
HETATM    7  C   UNL     1      61.653  11.916   1.982  1.00  0.00     0.076 C 
ENDROOT
BRANCH   5   8
HETATM    8  C   UNL     1      62.886   8.397   5.241  1.00  0.00     0.084 C 
BRANCH   8   9
HETATM    9  C   UNL     1      64.269   7.737   5.263  1.00  0.00     0.235 C 
BRANCH   9  10
HETATM   10  N   UNL     1      65.253   8.566   5.964  1.00  0.00    -0.079 N 
HETATM   11  H   UNL     1      64.847   9.480   6.163  1.00  0.00     0.274 HD
HETATM   12  H   UNL     1      66.081   8.680   5.380  1.00  0.00     0.274 HD
HETATM   13  H   UNL     1      65.516   8.114   6.841  1.00  0.00     0.274 HD
ENDBRANCH   9  10
ENDBRANCH   8   9
ENDBRANCH   5   8
TORSDOF 3
ENDMDL
MODEL 4
REMARK VINA RESULT:      -3.4      3.422      4.518
REMARK  3 active torsions:
REMARK  status: ('A' for Active; 'I' for Inactive)
REMARK    1  A    between atoms: C_5  and  C_7 
REMARK    2  A    between atoms: C_7  and  C_10 
REMARK    3  A    between atoms: N_8  and  C_10 
ROOT
HETATM    1  N   UNL     1      64.376   9.219   5.579  1.00  0.00    -0.357 N 
ATOM      2  HN  UNL     1      64.844   9.627   6.389  1.00  0.00     0.166 HD
HETATM    3  C   UNL     1      63.345   9.753   4.959  1.00  0.00     0.046 A 
HETATM    4  S   UNL     1      62.726   8.841   3.641  1.00  0.00    -0.087 SA
HETATM    5  C   UNL     1      64.735   8.024   4.976  1.00  0.00     0.018 A 
HETATM    6  C   UNL     1      63.944   7.665   3.901  1.00  0.00     0.076 A 
HETATM    7  C   UNL     1      62.722  11.052   5.325  1.00  0.00     0.076 C 
ENDROOT
BRANCH   5   8
HETATM    8  C   UNL     1      65.916   7.271   5.506  1.00  0.00     0.084 C 
BRANCH   8   9
HETATM    9  C   UNL     1      66.802   8.137   6.407  1.00  0.00     0.235 C 
BRANCH   9  10
HETATM   10  N   UNL     1      67.062   7.489   7.695  1.00  0.00    -0.079 N 
HETATM   11  H   UNL     1      66.920   8.161   8.449  1.00  0.00     0.274 HD
HETATM   12  H   UNL     1      68.024   7.150   7.718  1.00  0.00     0.274 HD
HETATM   13  H   UNL     1      66.422   6.703   7.816  1.00  0.00     0.274 HD
ENDBRANCH   9  10
ENDBRANCH   8   9
ENDBRANCH   5   8
TORSDOF 3
ENDMDL
MODEL 5
REMARK VINA RESULT:      -3.4      6.000      7.079
REMARK  3 active torsions:
REMARK  status: ('A' for Active; 'I' for Inactive)
REMARK    1  A    between atoms: C_5  and  C_7 
REMARK    2  A    between atoms: C_7  and  C_10 
REMARK    3  A    between atoms: N_8  and  C_10 
ROOT
HETATM    1  N   UNL     1      65.654   7.641   6.889  1.00  0.00    -0.357 N 
ATOM      2  HN  UNL     1      64.911   7.892   7.541  1.00  0.00     0.166 HD
HETATM    3  C   UNL     1      65.631   7.883   5.595  1.00  0.00     0.046 A 
HETATM    4  S   UNL     1      66.999   7.323   4.718  1.00  0.00    -0.087 SA
HETATM    5  C   UNL     1      66.830   6.997   7.238  1.00  0.00     0.018 A 
HETATM    6  C   UNL     1      67.682   6.745   6.178  1.00  0.00     0.076 A 
HETATM    7  C   UNL     1      64.530   8.589   4.888  1.00  0.00     0.076 C 
ENDROOT
BRANCH   5   8
HETATM    8  C   UNL     1      67.075   6.665   8.677  1.00  0.00     0.084 C 
BRANCH   8   9
HETATM    9  C   UNL     1      67.656   5.259   8.860  1.00  0.00     0.235 C 
BRANCH   9  10
HETATM   10  N   UNL     1      66.644   4.222   8.641  1.00  0.00    -0.079 N 
HETATM   11  H   UNL     1      66.393   3.798   9.534  1.00  0.00     0.274 HD
HETATM   12  H   UNL     1      67.018   3.507   8.017  1.00  0.00     0.274 HD
HETATM   13  H   UNL     1      65.814   4.640   8.219  1.00  0.00     0.274 HD
ENDBRANCH   9  10
ENDBRANCH   8   9
ENDBRANCH   5   8
TORSDOF 3
ENDMDL
MODEL 6
REMARK VINA RESULT:      -3.3      2.405      4.303
REMARK  3 active torsions:
REMARK  status: ('A' for Active; 'I' for Inactive)
REMARK    1  A    between atoms: C_5  and  C_7 
REMARK    2  A    between atoms: C_7  and  C_10 
REMARK    3  A    between atoms: N_8  and  C_10 
ROOT
HETATM    1  N   UNL     1      63.088   8.601   3.323  1.00  0.00    -0.357 N 
ATOM      2  HN  UNL     1      63.353   7.752   2.824  1.00  0.00     0.166 HD
HETATM    3  C   UNL     1      63.574   8.969   4.490  1.00  0.00     0.046 A 
HETATM    4  S   UNL     1      62.931  10.429   5.127  1.00  0.00    -0.087 SA
HETATM    5  C   UNL     1      62.166   9.531   2.871  1.00  0.00     0.018 A 
HETATM    6  C   UNL     1      61.957  10.595   3.728  1.00  0.00     0.076 A 
HETATM    7  C   UNL     1      64.610   8.218   5.247  1.00  0.00     0.076 C 
ENDROOT
BRANCH   5   8
HETATM    8  C   UNL     1      61.520   9.320   1.536  1.00  0.00     0.084 C 
BRANCH   8   9
HETATM    9  C   UNL     1      60.530   8.152   1.546  1.00  0.00     0.235 C 
BRANCH   9  10
HETATM   10  N   UNL     1      59.260   8.513   0.910  1.00  0.00    -0.079 N 
HETATM   11  H   UNL     1      59.033   9.482   1.130  1.00  0.00     0.274 HD
HETATM   12  H   UNL     1      58.520   7.903   1.256  1.00  0.00     0.274 HD
HETATM   13  H   UNL     1      59.344   8.406  -0.102  1.00  0.00     0.274 HD
ENDBRANCH   9  10
ENDBRANCH   8   9
ENDBRANCH   5   8
TORSDOF 3
ENDMDL
MODEL 7
REMARK VINA RESULT:      -3.3      4.398      5.555
REMARK  3 active torsions:
REMARK  status: ('A' for Active; 'I' for Inactive)
REMARK    1  A    between atoms: C_5  and  C_7 
REMARK    2  A    between atoms: C_7  and  C_10 
REMARK    3  A    between atoms: N_8  and  C_10 
ROOT
HETATM    1  N   UNL     1      64.607   7.146   6.957  1.00  0.00    -0.357 N 
ATOM      2  HN  UNL     1      63.811   6.912   7.550  1.00  0.00     0.166 HD
HETATM    3  C   UNL     1      65.866   6.918   7.265  1.00  0.00     0.046 A 
HETATM    4  S   UNL     1      67.016   7.444   6.102  1.00  0.00    -0.087 SA
HETATM    5  C   UNL     1      64.518   7.750   5.713  1.00  0.00     0.018 A 
HETATM    6  C   UNL     1      65.735   7.986   5.102  1.00  0.00     0.076 A 
HETATM    7  C   UNL     1      66.321   6.253   8.515  1.00  0.00     0.076 C 
ENDROOT
BRANCH   5   8
HETATM    8  C   UNL     1      63.164   8.061   5.154  1.00  0.00     0.084 C 
BRANCH   8   9
HETATM    9  C   UNL     1      63.039   9.521   4.708  1.00  0.00     0.235 C 
BRANCH   9  10
HETATM   10  N   UNL     1      63.123  10.443   5.844  1.00  0.00    -0.079 N 
HETATM   11  H   UNL     1      62.200  10.546   6.267  1.00  0.00     0.274 HD
HETATM   12  H   UNL     1      63.453  11.352   5.522  1.00  0.00     0.274 HD
HETATM   13  H   UNL     1      63.774  10.071   6.537  1.00  0.00     0.274 HD
ENDBRANCH   9  10
ENDBRANCH   8   9
ENDBRANCH   5   8
TORSDOF 3
ENDMDL
MODEL 8
REMARK VINA RESULT:      -3.3      2.889      3.409
REMARK  3 active torsions:
REMARK  status: ('A' for Active; 'I' for Inactive)
REMARK    1  A    between atoms: C_5  and  C_7 
REMARK    2  A    between atoms: C_7  and  C_10 
REMARK    3  A    between atoms: N_8  and  C_10 
ROOT
HETATM    1  N   UNL     1      63.192   8.224   2.930  1.00  0.00    -0.357 N 
ATOM      2  HN  UNL     1      63.492   7.466   2.317  1.00  0.00     0.166 HD
HETATM    3  C   UNL     1      62.329   9.162   2.598  1.00  0.00     0.046 A 
HETATM    4  S   UNL     1      62.024  10.342   3.808  1.00  0.00    -0.087 SA
HETATM    5  C   UNL     1      63.633   8.414   4.230  1.00  0.00     0.018 A 
HETATM    6  C   UNL     1      63.097   9.522   4.860  1.00  0.00     0.076 A 
HETATM    7  C   UNL     1      61.635   9.242   1.285  1.00  0.00     0.076 C 
ENDROOT
BRANCH   5   8
HETATM    8  C   UNL     1      64.593   7.429   4.820  1.00  0.00     0.084 C 
BRANCH   8   9
HETATM    9  C   UNL     1      64.082   6.832   6.135  1.00  0.00     0.235 C 
BRANCH   9  10
HETATM   10  N   UNL     1      65.021   7.065   7.236  1.00  0.00    -0.079 N 
HETATM   11  H   UNL     1      65.730   6.331   7.238  1.00  0.00     0.274 HD
HETATM   12  H   UNL     1      64.516   7.053   8.122  1.00  0.00     0.274 HD
HETATM   13  H   UNL     1      65.472   7.972   7.113  1.00  0.00     0.274 HD
ENDBRANCH   9  10
ENDBRANCH   8   9
ENDBRANCH   5   8
TORSDOF 3
ENDMDL
MODEL 9
REMARK VINA RESULT:      -3.1      4.388      5.388
REMARK  3 active torsions:
REMARK  status: ('A' for Active; 'I' for Inactive)
REMARK    1  A    between atoms: C_5  and  C_7 
REMARK    2  A    between atoms: C_7  and  C_10 
REMARK    3  A    between atoms: N_8  and  C_10 
ROOT
HETATM    1  N   UNL     1      64.857   8.854   5.386  1.00  0.00    -0.357 N 
ATOM      2  HN  UNL     1      65.363   9.672   5.046  1.00  0.00     0.166 HD
HETATM    3  C   UNL     1      63.563   8.660   5.247  1.00  0.00     0.046 A 
HETATM    4  S   UNL     1      62.957   7.210   5.943  1.00  0.00    -0.087 SA
HETATM    5  C   UNL     1      65.435   7.789   6.058  1.00  0.00     0.018 A 
HETATM    6  C   UNL     1      64.545   6.800   6.436  1.00  0.00     0.076 A 
HETATM    7  C   UNL     1      62.641   9.592   4.544  1.00  0.00     0.076 C 
ENDROOT
BRANCH   5   8
HETATM    8  C   UNL     1      66.914   7.793   6.287  1.00  0.00     0.084 C 
BRANCH   8   9
HETATM    9  C   UNL     1      67.625   6.672   5.521  1.00  0.00     0.235 C 
BRANCH   9  10
HETATM   10  N   UNL     1      67.512   6.851   4.071  1.00  0.00    -0.079 N 
HETATM   11  H   UNL     1      67.649   7.835   3.839  1.00  0.00     0.274 HD
HETATM   12  H   UNL     1      66.587   6.553   3.762  1.00  0.00     0.274 HD
HETATM   13  H   UNL     1      68.225   6.290   3.603  1.00  0.00     0.274 HD
ENDBRANCH   9  10
ENDBRANCH   8   9
ENDBRANCH   5   8
TORSDOF 3
ENDMDL
