MODEL 1
REMARK VINA RESULT:      -4.7      0.000      0.000
REMARK  1 active torsions:
REMARK  status: ('A' for Active; 'I' for Inactive)
REMARK    1  A    between atoms: C_9  and  N_10 
ROOT
HETATM    1  N   UNL     1      64.069   8.429   5.916  1.00  0.00    -0.353 N 
ATOM      2  HN  UNL     1      64.327   8.659   6.876  1.00  0.00     0.166 HD
HETATM    3  S   UNL     1      63.788   7.156   3.694  1.00  0.00    -0.075 SA
HETATM    4  C   UNL     1      64.352   7.298   5.308  1.00  0.00     0.048 A 
HETATM    5  C   UNL     1      63.118   8.738   3.791  1.00  0.00     0.035 A 
HETATM    6  C   UNL     1      63.370   9.263   5.059  1.00  0.00     0.050 A 
HETATM    7  C   UNL     1      62.428   9.469   2.807  1.00  0.00     0.050 A 
HETATM    8  C   UNL     1      62.926  10.567   5.347  1.00  0.00     0.033 A 
HETATM    9  C   UNL     1      61.947  10.746   3.123  1.00  0.00     0.027 A 
HETATM   10  C   UNL     1      62.242  11.300   4.368  1.00  0.00     0.031 A 
HETATM   11  C   UNL     1      65.115   6.178   5.924  1.00  0.00     0.076 C 
ENDROOT
BRANCH   9  12
HETATM   12  N   UNL     1      61.386  11.542   2.117  1.00  0.00    -0.399 N 
HETATM   13  H   UNL     1      61.136  11.141   1.254  1.00  0.00     0.156 HD
HETATM   14  H   UNL     1      61.240  12.504   2.274  1.00  0.00     0.156 HD
ENDBRANCH   9  12
TORSDOF 1
ENDMDL
MODEL 2
REMARK VINA RESULT:      -4.3      1.802      4.077
REMARK  1 active torsions:
REMARK  status: ('A' for Active; 'I' for Inactive)
REMARK    1  A    between atoms: C_9  and  N_10 
ROOT
HETATM    1  N   UNL     1      60.869   9.409   2.304  1.00  0.00    -0.353 N 
ATOM      2  HN  UNL     1      60.198  10.174   2.232  1.00  0.00     0.166 HD
HETATM    3  S   UNL     1      62.130   7.209   1.853  1.00  0.00    -0.075 SA
HETATM    4  C   UNL     1      60.882   8.343   1.535  1.00  0.00     0.048 A 
HETATM    5  C   UNL     1      62.704   8.202   3.136  1.00  0.00     0.035 A 
HETATM    6  C   UNL     1      61.900   9.338   3.226  1.00  0.00     0.050 A 
HETATM    7  C   UNL     1      63.784   7.984   4.010  1.00  0.00     0.050 A 
HETATM    8  C   UNL     1      62.180  10.282   4.233  1.00  0.00     0.033 A 
HETATM    9  C   UNL     1      64.083   8.954   4.973  1.00  0.00     0.027 A 
HETATM   10  C   UNL     1      63.253  10.066   5.108  1.00  0.00     0.031 A 
HETATM   11  C   UNL     1      59.903   8.076   0.447  1.00  0.00     0.076 C 
ENDROOT
BRANCH   9  12
HETATM   12  N   UNL     1      65.061   8.689   5.941  1.00  0.00    -0.399 N 
HETATM   13  H   UNL     1      64.840   8.137   6.726  1.00  0.00     0.156 HD
HETATM   14  H   UNL     1      65.970   9.055   5.837  1.00  0.00     0.156 HD
ENDBRANCH   9  12
TORSDOF 1
ENDMDL
MODEL 3
REMARK VINA RESULT:      -4.0      3.077      6.608
REMARK  1 active torsions:
REMARK  status: ('A' for Active; 'I' for Inactive)
REMARK    1  A    between atoms: C_9  and  N_10 
ROOT
HETATM    1  N   UNL     1      65.682   8.054   6.602  1.00  0.00    -0.353 N 
ATOM      2  HN  UNL     1      65.902   9.016   6.859  1.00  0.00     0.166 HD
HETATM    3  S   UNL     1      64.698   6.009   5.383  1.00  0.00    -0.075 SA
HETATM    4  C   UNL     1      64.889   7.698   5.616  1.00  0.00     0.048 A 
HETATM    5  C   UNL     1      65.747   5.709   6.713  1.00  0.00     0.035 A 
HETATM    6  C   UNL     1      66.173   6.928   7.241  1.00  0.00     0.050 A 
HETATM    7  C   UNL     1      66.153   4.478   7.261  1.00  0.00     0.050 A 
HETATM    8  C   UNL     1      67.026   6.914   8.361  1.00  0.00     0.033 A 
HETATM    9  C   UNL     1      67.041   4.478   8.343  1.00  0.00     0.027 A 
HETATM   10  C   UNL     1      67.429   5.690   8.912  1.00  0.00     0.031 A 
HETATM   11  C   UNL     1      64.168   8.651   4.728  1.00  0.00     0.076 C 
ENDROOT
BRANCH   9  12
HETATM   12  N   UNL     1      67.343   3.273   8.990  1.00  0.00    -0.399 N 
HETATM   13  H   UNL     1      67.307   3.219   9.973  1.00  0.00     0.156 HD
HETATM   14  H   UNL     1      67.589   2.479   8.463  1.00  0.00     0.156 HD
ENDBRANCH   9  12
TORSDOF 1
ENDMDL
MODEL 4
REMARK VINA RESULT:      -4.0      1.625      2.357
REMARK  1 active torsions:
REMARK  status: ('A' for Active; 'I' for Inactive)
REMARK    1  A    between atoms: C_9  and  N_10 
ROOT
HETATM    1  N   UNL     1      63.274   6.627   3.267  1.00  0.00    -0.353 N 
ATOM      2  HN  UNL     1      63.440   5.832   2.650  1.00  0.00     0.166 HD
HETATM    3  S   UNL     1      63.111   8.096   5.377  1.00  0.00    -0.075 SA
HETATM    4  C   UNL     1      63.446   6.619   4.570  1.00  0.00     0.048 A 
HETATM    5  C   UNL     1      62.685   8.818   3.874  1.00  0.00     0.035 A 
HETATM    6  C   UNL     1      62.834   7.875   2.857  1.00  0.00     0.050 A 
HETATM    7  C   UNL     1      62.236  10.126   3.616  1.00  0.00     0.050 A 
HETATM    8  C   UNL     1      62.513   8.251   1.539  1.00  0.00     0.033 A 
HETATM    9  C   UNL     1      61.969  10.502   2.294  1.00  0.00     0.027 A 
HETATM   10  C   UNL     1      62.062   9.552   1.278  1.00  0.00     0.031 A 
HETATM   11  C   UNL     1      63.891   5.435   5.355  1.00  0.00     0.076 C 
ENDROOT
BRANCH   9  12
HETATM   12  N   UNL     1      61.388  11.750   2.034  1.00  0.00    -0.399 N 
HETATM   13  H   UNL     1      61.832  12.383   1.426  1.00  0.00     0.156 HD
HETATM   14  H   UNL     1      60.533  11.993   2.459  1.00  0.00     0.156 HD
ENDBRANCH   9  12
TORSDOF 1
ENDMDL
MODEL 5
REMARK VINA RESULT:      -4.0      2.307      2.943
REMARK  1 active torsions:
REMARK  status: ('A' for Active; 'I' for Inactive)
REMARK    1  A    between atoms: C_9  and  N_10 
ROOT
HETATM    1  N   UNL     1      63.027   7.053   2.084  1.00  0.00    -0.353 N 
ATOM      2  HN  UNL     1      62.432   6.955   1.262  1.00  0.00     0.166 HD
HETATM    3  S   UNL     1      64.820   6.600   3.878  1.00  0.00    -0.075 SA
HETATM    4  C   UNL     1      63.941   6.187   2.463  1.00  0.00     0.048 A 
HETATM    5  C   UNL     1      63.906   8.051   4.021  1.00  0.00     0.035 A 
HETATM    6  C   UNL     1      62.992   8.119   2.969  1.00  0.00     0.050 A 
HETATM    7  C   UNL     1      63.982   9.053   5.005  1.00  0.00     0.050 A 
HETATM    8  C   UNL     1      62.120   9.222   2.906  1.00  0.00     0.033 A 
HETATM    9  C   UNL     1      63.144  10.169   4.903  1.00  0.00     0.027 A 
HETATM   10  C   UNL     1      62.191  10.220   3.887  1.00  0.00     0.031 A 
HETATM   11  C   UNL     1      64.236   4.911   1.758  1.00  0.00     0.076 C 
ENDROOT
BRANCH   9  12
HETATM   12  N   UNL     1      63.106  11.104   5.946  1.00  0.00    -0.399 N 
HETATM   13  H   UNL     1      63.447  10.860   6.837  1.00  0.00     0.156 HD
HETATM   14  H   UNL     1      62.740  12.004   5.788  1.00  0.00     0.156 HD
ENDBRANCH   9  12
TORSDOF 1
ENDMDL
MODEL 6
REMARK VINA RESULT:      -3.9      2.272      4.587
REMARK  1 active torsions:
REMARK  status: ('A' for Active; 'I' for Inactive)
REMARK    1  A    between atoms: C_9  and  N_10 
ROOT
HETATM    1  N   UNL     1      62.693   7.462   2.109  1.00  0.00    -0.353 N 
ATOM      2  HN  UNL     1      62.704   6.696   1.435  1.00  0.00     0.166 HD
HETATM    3  S   UNL     1      62.036   9.622   3.349  1.00  0.00    -0.075 SA
HETATM    4  C   UNL     1      61.853   8.473   2.088  1.00  0.00     0.048 A 
HETATM    5  C   UNL     1      63.356   8.717   3.981  1.00  0.00     0.035 A 
HETATM    6  C   UNL     1      63.560   7.592   3.181  1.00  0.00     0.050 A 
HETATM    7  C   UNL     1      64.163   8.990   5.100  1.00  0.00     0.050 A 
HETATM    8  C   UNL     1      64.615   6.719   3.506  1.00  0.00     0.033 A 
HETATM    9  C   UNL     1      65.176   8.087   5.442  1.00  0.00     0.027 A 
HETATM   10  C   UNL     1      65.424   6.990   4.618  1.00  0.00     0.031 A 
HETATM   11  C   UNL     1      60.795   8.669   1.060  1.00  0.00     0.076 C 
ENDROOT
BRANCH   9  12
HETATM   12  N   UNL     1      66.078   8.414   6.463  1.00  0.00    -0.399 N 
HETATM   13  H   UNL     1      67.040   8.243   6.343  1.00  0.00     0.156 HD
HETATM   14  H   UNL     1      65.750   8.815   7.300  1.00  0.00     0.156 HD
ENDBRANCH   9  12
TORSDOF 1
ENDMDL
MODEL 7
REMARK VINA RESULT:      -3.8      1.819      2.123
REMARK  1 active torsions:
REMARK  status: ('A' for Active; 'I' for Inactive)
REMARK    1  A    between atoms: C_9  and  N_10 
ROOT
HETATM    1  N   UNL     1      64.679   8.045   6.146  1.00  0.00    -0.353 N 
ATOM      2  HN  UNL     1      65.384   8.745   6.376  1.00  0.00     0.166 HD
HETATM    3  S   UNL     1      63.355   5.836   6.069  1.00  0.00    -0.075 SA
HETATM    4  C   UNL     1      64.667   6.809   6.595  1.00  0.00     0.048 A 
HETATM    5  C   UNL     1      62.747   7.156   5.148  1.00  0.00     0.035 A 
HETATM    6  C   UNL     1      63.591   8.254   5.314  1.00  0.00     0.050 A 
HETATM    7  C   UNL     1      61.607   7.211   4.325  1.00  0.00     0.050 A 
HETATM    8  C   UNL     1      63.291   9.443   4.623  1.00  0.00     0.033 A 
HETATM    9  C   UNL     1      61.291   8.415   3.685  1.00  0.00     0.027 A 
HETATM   10  C   UNL     1      62.158   9.501   3.799  1.00  0.00     0.031 A 
HETATM   11  C   UNL     1      65.699   6.231   7.499  1.00  0.00     0.076 C 
ENDROOT
BRANCH   9  12
HETATM   12  N   UNL     1      60.246   8.449   2.752  1.00  0.00    -0.399 N 
HETATM   13  H   UNL     1      59.884   9.313   2.451  1.00  0.00     0.156 HD
HETATM   14  H   UNL     1      59.875   7.609   2.397  1.00  0.00     0.156 HD
ENDBRANCH   9  12
TORSDOF 1
ENDMDL
MODEL 8
REMARK VINA RESULT:      -3.7      1.964      2.767
REMARK  1 active torsions:
REMARK  status: ('A' for Active; 'I' for Inactive)
REMARK    1  A    between atoms: C_9  and  N_10 
ROOT
HETATM    1  N   UNL     1      65.491   6.208   3.961  1.00  0.00    -0.353 N 
ATOM      2  HN  UNL     1      65.644   5.381   3.385  1.00  0.00     0.166 HD
HETATM    3  S   UNL     1      65.770   8.012   5.778  1.00  0.00    -0.075 SA
HETATM    4  C   UNL     1      66.233   6.562   4.986  1.00  0.00     0.048 A 
HETATM    5  C   UNL     1      64.456   8.190   4.682  1.00  0.00     0.035 A 
HETATM    6  C   UNL     1      64.469   7.126   3.780  1.00  0.00     0.050 A 
HETATM    7  C   UNL     1      63.474   9.196   4.631  1.00  0.00     0.050 A 
HETATM    8  C   UNL     1      63.458   7.061   2.803  1.00  0.00     0.033 A 
HETATM    9  C   UNL     1      62.505   9.147   3.623  1.00  0.00     0.027 A 
HETATM   10  C   UNL     1      62.475   8.059   2.752  1.00  0.00     0.031 A 
HETATM   11  C   UNL     1      67.408   5.794   5.481  1.00  0.00     0.076 C 
ENDROOT
BRANCH   9  12
HETATM   12  N   UNL     1      61.439  10.057   3.643  1.00  0.00    -0.399 N 
HETATM   13  H   UNL     1      61.575  10.981   3.334  1.00  0.00     0.156 HD
HETATM   14  H   UNL     1      60.554   9.771   3.966  1.00  0.00     0.156 HD
ENDBRANCH   9  12
TORSDOF 1
ENDMDL
MODEL 9
REMARK VINA RESULT:      -3.7      2.561      3.810
REMARK  1 active torsions:
REMARK  status: ('A' for Active; 'I' for Inactive)
REMARK    1  A    between atoms: C_9  and  N_10 
ROOT
HETATM    1  N   UNL     1      61.789   6.916   2.510  1.00  0.00    -0.353 N 
ATOM      2  HN  UNL     1      61.852   5.911   2.671  1.00  0.00     0.166 HD
HETATM    3  S   UNL     1      61.325   9.194   1.400  1.00  0.00    -0.075 SA
HETATM    4  C   UNL     1      61.342   7.478   1.410  1.00  0.00     0.048 A 
HETATM    5  C   UNL     1      61.983   9.208   2.990  1.00  0.00     0.035 A 
HETATM    6  C   UNL     1      62.165   7.893   3.419  1.00  0.00     0.050 A 
HETATM    7  C   UNL     1      62.327  10.307   3.797  1.00  0.00     0.050 A 
HETATM    8  C   UNL     1      62.720   7.672   4.693  1.00  0.00     0.033 A 
HETATM    9  C   UNL     1      62.830  10.074   5.082  1.00  0.00     0.027 A 
HETATM   10  C   UNL     1      63.068   8.765   5.499  1.00  0.00     0.031 A 
HETATM   11  C   UNL     1      60.872   6.730   0.212  1.00  0.00     0.076 C 
ENDROOT
BRANCH   9  12
HETATM   12  N   UNL     1      63.310  11.148   5.843  1.00  0.00    -0.399 N 
HETATM   13  H   UNL     1      64.264  11.193   6.083  1.00  0.00     0.156 HD
HETATM   14  H   UNL     1      62.694  11.858   6.136  1.00  0.00     0.156 HD
ENDBRANCH   9  12
TORSDOF 1
ENDMDL
