MODEL 1
REMARK VINA RESULT:      -3.9      0.000      0.000
REMARK  3 active torsions:
REMARK  status: ('A' for Active; 'I' for Inactive)
REMARK    1  A    between atoms: C_5  and  C_7 
REMARK    2  A    between atoms: C_7  and  C_10 
REMARK    3  A    between atoms: O_8  and  C_10 
ROOT
HETATM    1  N   UNL     1      65.018   8.780   5.581  1.00  0.00    -0.357 N 
ATOM      2  HN  UNL     1      65.662   9.540   5.358  1.00  0.00     0.166 HD
HETATM    3  C   UNL     1      65.374   7.604   6.056  1.00  0.00     0.046 A 
HETATM    4  S   UNL     1      64.091   6.495   6.322  1.00  0.00    -0.087 SA
HETATM    5  C   UNL     1      63.642   8.834   5.427  1.00  0.00     0.018 A 
HETATM    6  C   UNL     1      62.977   7.676   5.781  1.00  0.00     0.076 A 
HETATM    7  C   UNL     1      66.775   7.202   6.358  1.00  0.00     0.076 C 
ENDROOT
BRANCH   5   8
HETATM    8  C   UNL     1      63.014  10.093   4.916  1.00  0.00     0.083 C 
BRANCH   8   9
HETATM    9  C   UNL     1      63.070  11.243   5.918  1.00  0.00     0.170 C 
BRANCH   9  10
HETATM   10  O   UNL     1      64.394  11.441   6.411  1.00  0.00    -0.400 OA
HETATM   11  H   UNL     1      64.801  12.192   5.952  1.00  0.00     0.209 HD
ENDBRANCH   9  10
ENDBRANCH   8   9
ENDBRANCH   5   8
TORSDOF 3
ENDMDL
MODEL 2
REMARK VINA RESULT:      -3.7      3.084      3.812
REMARK  3 active torsions:
REMARK  status: ('A' for Active; 'I' for Inactive)
REMARK    1  A    between atoms: C_5  and  C_7 
REMARK    2  A    between atoms: C_7  and  C_10 
REMARK    3  A    between atoms: O_8  and  C_10 
ROOT
HETATM    1  N   UNL     1      63.115   8.177   3.322  1.00  0.00    -0.357 N 
ATOM      2  HN  UNL     1      63.678   7.439   3.746  1.00  0.00     0.166 HD
HETATM    3  C   UNL     1      62.591   8.127   2.115  1.00  0.00     0.046 A 
HETATM    4  S   UNL     1      61.705   9.518   1.636  1.00  0.00    -0.087 SA
HETATM    5  C   UNL     1      62.791   9.378   3.932  1.00  0.00     0.018 A 
HETATM    6  C   UNL     1      62.029  10.231   3.157  1.00  0.00     0.076 A 
HETATM    7  C   UNL     1      62.724   6.976   1.181  1.00  0.00     0.076 C 
ENDROOT
BRANCH   5   8
HETATM    8  C   UNL     1      63.269   9.640   5.326  1.00  0.00     0.083 C 
BRANCH   8   9
HETATM    9  C   UNL     1      63.150  11.105   5.737  1.00  0.00     0.170 C 
BRANCH   9  10
HETATM   10  O   UNL     1      64.313  11.546   6.435  1.00  0.00    -0.400 OA
HETATM   11  H   UNL     1      64.354  11.114   7.303  1.00  0.00     0.209 HD
ENDBRANCH   9  10
ENDBRANCH   8   9
ENDBRANCH   5   8
TORSDOF 3
ENDMDL
MODEL 3
REMARK VINA RESULT:      -3.6      3.197      4.530
REMARK  3 active torsions:
REMARK  status: ('A' for Active; 'I' for Inactive)
REMARK    1  A    between atoms: C_5  and  C_7 
REMARK    2  A    between atoms: C_7  and  C_10 
REMARK    3  A    between atoms: O_8  and  C_10 
ROOT
HETATM    1  N   UNL     1      62.426  10.022   3.565  1.00  0.00    -0.357 N 
ATOM      2  HN  UNL     1      62.469  10.622   4.389  1.00  0.00     0.166 HD
HETATM    3  C   UNL     1      62.056  10.416   2.364  1.00  0.00     0.046 A 
HETATM    4  S   UNL     1      62.048   9.195   1.156  1.00  0.00    -0.087 SA
HETATM    5  C   UNL     1      62.746   8.674   3.546  1.00  0.00     0.018 A 
HETATM    6  C   UNL     1      62.596   8.064   2.316  1.00  0.00     0.076 A 
HETATM    7  C   UNL     1      61.656  11.806   2.014  1.00  0.00     0.076 C 
ENDROOT
BRANCH   5   8
HETATM    8  C   UNL     1      63.214   8.018   4.808  1.00  0.00     0.083 C 
BRANCH   8   9
HETATM    9  C   UNL     1      64.633   8.418   5.203  1.00  0.00     0.170 C 
BRANCH   9  10
HETATM   10  O   UNL     1      64.675   9.745   5.723  1.00  0.00    -0.400 OA
HETATM   11  H   UNL     1      65.042   9.730   6.621  1.00  0.00     0.209 HD
ENDBRANCH   9  10
ENDBRANCH   8   9
ENDBRANCH   5   8
TORSDOF 3
ENDMDL
MODEL 4
REMARK VINA RESULT:      -3.5      1.993      3.629
REMARK  3 active torsions:
REMARK  status: ('A' for Active; 'I' for Inactive)
REMARK    1  A    between atoms: C_5  and  C_7 
REMARK    2  A    between atoms: C_7  and  C_10 
REMARK    3  A    between atoms: O_8  and  C_10 
ROOT
HETATM    1  N   UNL     1      64.470   9.271   5.541  1.00  0.00    -0.357 N 
ATOM      2  HN  UNL     1      65.004   9.689   6.303  1.00  0.00     0.166 HD
HETATM    3  C   UNL     1      63.374   9.780   5.018  1.00  0.00     0.046 A 
HETATM    4  S   UNL     1      62.658   8.859   3.757  1.00  0.00    -0.087 SA
HETATM    5  C   UNL     1      64.793   8.083   4.904  1.00  0.00     0.018 A 
HETATM    6  C   UNL     1      63.913   7.706   3.907  1.00  0.00     0.076 A 
HETATM    7  C   UNL     1      62.745  11.059   5.449  1.00  0.00     0.076 C 
ENDROOT
BRANCH   5   8
HETATM    8  C   UNL     1      66.022   7.340   5.327  1.00  0.00     0.083 C 
BRANCH   8   9
HETATM    9  C   UNL     1      66.384   7.560   6.793  1.00  0.00     0.170 C 
BRANCH   9  10
HETATM   10  O   UNL     1      66.919   8.865   7.006  1.00  0.00    -0.400 OA
HETATM   11  H   UNL     1      66.370   9.519   6.546  1.00  0.00     0.209 HD
ENDBRANCH   9  10
ENDBRANCH   8   9
ENDBRANCH   5   8
TORSDOF 3
ENDMDL
MODEL 5
REMARK VINA RESULT:      -3.5      2.908      3.912
REMARK  3 active torsions:
REMARK  status: ('A' for Active; 'I' for Inactive)
REMARK    1  A    between atoms: C_5  and  C_7 
REMARK    2  A    between atoms: C_7  and  C_10 
REMARK    3  A    between atoms: O_8  and  C_10 
ROOT
HETATM    1  N   UNL     1      61.017   9.512   3.564  1.00  0.00    -0.357 N 
ATOM      2  HN  UNL     1      60.192  10.110   3.617  1.00  0.00     0.166 HD
HETATM    3  C   UNL     1      61.043   8.305   3.039  1.00  0.00     0.046 A 
HETATM    4  S   UNL     1      62.560   7.504   3.101  1.00  0.00    -0.087 SA
HETATM    5  C   UNL     1      62.275   9.853   4.036  1.00  0.00     0.018 A 
HETATM    6  C   UNL     1      63.237   8.875   3.868  1.00  0.00     0.076 A 
HETATM    7  C   UNL     1      59.870   7.625   2.423  1.00  0.00     0.076 C 
ENDROOT
BRANCH   5   8
HETATM    8  C   UNL     1      62.481  11.198   4.659  1.00  0.00     0.083 C 
BRANCH   8   9
HETATM    9  C   UNL     1      62.954  11.124   6.108  1.00  0.00     0.170 C 
BRANCH   9  10
HETATM   10  O   UNL     1      64.324  11.503   6.228  1.00  0.00    -0.400 OA
HETATM   11  H   UNL     1      64.850  10.734   6.499  1.00  0.00     0.209 HD
ENDBRANCH   9  10
ENDBRANCH   8   9
ENDBRANCH   5   8
TORSDOF 3
ENDMDL
MODEL 6
REMARK VINA RESULT:      -3.5      2.241      2.823
REMARK  3 active torsions:
REMARK  status: ('A' for Active; 'I' for Inactive)
REMARK    1  A    between atoms: C_5  and  C_7 
REMARK    2  A    between atoms: C_7  and  C_10 
REMARK    3  A    between atoms: O_8  and  C_10 
ROOT
HETATM    1  N   UNL     1      65.501   7.599   6.947  1.00  0.00    -0.357 N 
ATOM      2  HN  UNL     1      64.795   7.768   7.664  1.00  0.00     0.166 HD
HETATM    3  C   UNL     1      66.667   7.023   7.156  1.00  0.00     0.046 A 
HETATM    4  S   UNL     1      67.681   6.883   5.777  1.00  0.00    -0.087 SA
HETATM    5  C   UNL     1      65.373   7.942   5.610  1.00  0.00     0.018 A 
HETATM    6  C   UNL     1      66.468   7.628   4.828  1.00  0.00     0.076 A 
HETATM    7  C   UNL     1      67.135   6.513   8.474  1.00  0.00     0.076 C 
ENDROOT
BRANCH   5   8
HETATM    8  C   UNL     1      64.110   8.595   5.142  1.00  0.00     0.083 C 
BRANCH   8   9
HETATM    9  C   UNL     1      62.850   7.879   5.621  1.00  0.00     0.170 C 
BRANCH   9  10
HETATM   10  O   UNL     1      62.633   8.082   7.016  1.00  0.00    -0.400 OA
HETATM   11  H   UNL     1      63.462   7.930   7.497  1.00  0.00     0.209 HD
ENDBRANCH   9  10
ENDBRANCH   8   9
ENDBRANCH   5   8
TORSDOF 3
ENDMDL
MODEL 7
REMARK VINA RESULT:      -3.5      2.087      2.889
REMARK  3 active torsions:
REMARK  status: ('A' for Active; 'I' for Inactive)
REMARK    1  A    between atoms: C_5  and  C_7 
REMARK    2  A    between atoms: C_7  and  C_10 
REMARK    3  A    between atoms: O_8  and  C_10 
ROOT
HETATM    1  N   UNL     1      65.346   7.064   7.312  1.00  0.00    -0.357 N 
ATOM      2  HN  UNL     1      64.556   7.430   7.844  1.00  0.00     0.166 HD
HETATM    3  C   UNL     1      66.469   6.620   7.836  1.00  0.00     0.046 A 
HETATM    4  S   UNL     1      67.649   6.081   6.711  1.00  0.00    -0.087 SA
HETATM    5  C   UNL     1      65.393   6.963   5.930  1.00  0.00     0.018 A 
HETATM    6  C   UNL     1      66.575   6.450   5.431  1.00  0.00     0.076 A 
HETATM    7  C   UNL     1      66.759   6.568   9.295  1.00  0.00     0.076 C 
ENDROOT
BRANCH   5   8
HETATM    8  C   UNL     1      64.207   7.396   5.126  1.00  0.00     0.083 C 
BRANCH   8   9
HETATM    9  C   UNL     1      64.103   8.911   4.975  1.00  0.00     0.170 C 
BRANCH   9  10
HETATM   10  O   UNL     1      65.023   9.584   5.832  1.00  0.00    -0.400 OA
HETATM   11  H   UNL     1      65.026   9.156   6.703  1.00  0.00     0.209 HD
ENDBRANCH   9  10
ENDBRANCH   8   9
ENDBRANCH   5   8
TORSDOF 3
ENDMDL
MODEL 8
REMARK VINA RESULT:      -3.4      3.118      3.405
REMARK  3 active torsions:
REMARK  status: ('A' for Active; 'I' for Inactive)
REMARK    1  A    between atoms: C_5  and  C_7 
REMARK    2  A    between atoms: C_7  and  C_10 
REMARK    3  A    between atoms: O_8  and  C_10 
ROOT
HETATM    1  N   UNL     1      63.119   8.997   3.548  1.00  0.00    -0.357 N 
ATOM      2  HN  UNL     1      63.022   9.906   4.001  1.00  0.00     0.166 HD
HETATM    3  C   UNL     1      63.822   7.989   4.021  1.00  0.00     0.046 A 
HETATM    4  S   UNL     1      63.836   6.575   3.046  1.00  0.00    -0.087 SA
HETATM    5  C   UNL     1      62.528   8.642   2.346  1.00  0.00     0.018 A 
HETATM    6  C   UNL     1      62.814   7.359   1.921  1.00  0.00     0.076 A 
HETATM    7  C   UNL     1      64.579   8.012   5.303  1.00  0.00     0.076 C 
ENDROOT
BRANCH   5   8
HETATM    8  C   UNL     1      61.661   9.636   1.638  1.00  0.00     0.083 C 
BRANCH   8   9
HETATM    9  C   UNL     1      61.879  11.070   2.112  1.00  0.00     0.170 C 
BRANCH   9  10
HETATM   10  O   UNL     1      61.384  11.262   3.436  1.00  0.00    -0.400 OA
HETATM   11  H   UNL     1      61.816  12.033   3.834  1.00  0.00     0.209 HD
ENDBRANCH   9  10
ENDBRANCH   8   9
ENDBRANCH   5   8
TORSDOF 3
ENDMDL
MODEL 9
REMARK VINA RESULT:      -3.3      3.296      4.478
REMARK  3 active torsions:
REMARK  status: ('A' for Active; 'I' for Inactive)
REMARK    1  A    between atoms: C_5  and  C_7 
REMARK    2  A    between atoms: C_7  and  C_10 
REMARK    3  A    between atoms: O_8  and  C_10 
ROOT
HETATM    1  N   UNL     1      63.008   8.493   2.892  1.00  0.00    -0.357 N 
ATOM      2  HN  UNL     1      63.431   7.588   2.685  1.00  0.00     0.166 HD
HETATM    3  C   UNL     1      62.311   9.214   2.039  1.00  0.00     0.046 A 
HETATM    4  S   UNL     1      61.729  10.714   2.640  1.00  0.00    -0.087 SA
HETATM    5  C   UNL     1      63.082   9.142   4.114  1.00  0.00     0.018 A 
HETATM    6  C   UNL     1      62.443  10.367   4.156  1.00  0.00     0.076 A 
HETATM    7  C   UNL     1      62.017   8.815   0.635  1.00  0.00     0.076 C 
ENDROOT
BRANCH   5   8
HETATM    8  C   UNL     1      63.815   8.489   5.244  1.00  0.00     0.083 C 
BRANCH   8   9
HETATM    9  C   UNL     1      62.969   7.466   5.998  1.00  0.00     0.170 C 
BRANCH   9  10
HETATM   10  O   UNL     1      62.460   8.007   7.215  1.00  0.00    -0.400 OA
HETATM   11  H   UNL     1      61.500   8.122   7.141  1.00  0.00     0.209 HD
ENDBRANCH   9  10
ENDBRANCH   8   9
ENDBRANCH   5   8
TORSDOF 3
ENDMDL
