MODEL 1
REMARK VINA RESULT:      -4.8      0.000      0.000
REMARK  2 active torsions:
REMARK  status: ('A' for Active; 'I' for Inactive)
REMARK    1  A    between atoms: C_1  and  C_5 
REMARK    2  A    between atoms: C_11  and  N_12 
ROOT
HETATM    1  N   UNL     1      61.568  10.500   3.397  1.00  0.00    -0.363 N 
ATOM      2  HN  UNL     1      60.943  10.946   2.725  1.00  0.00     0.165 HD
HETATM    3  C   UNL     1      61.809   9.167   3.361  1.00  0.00     0.049 A 
HETATM    4  C   UNL     1      62.696   8.552   4.239  1.00  0.00     0.033 A 
HETATM    5  C   UNL     1      62.194  11.214   4.366  1.00  0.00     0.117 A 
HETATM    6  C   UNL     1      63.029  10.675   5.342  1.00  0.00     0.041 A 
HETATM    7  C   UNL     1      63.322   9.321   5.222  1.00  0.00     0.033 A 
ENDROOT
BRANCH   3   8
HETATM    8  C   UNL     1      61.075   8.444   2.311  1.00  0.00     0.031 A 
HETATM    9  S   UNL     1      59.955   7.198   2.705  1.00  0.00    -0.100 SA
HETATM   10  C   UNL     1      59.555   6.929   1.068  1.00  0.00     0.050 A 
HETATM   11  C   UNL     1      60.247   7.768   0.224  1.00  0.00     0.008 A 
HETATM   12  C   UNL     1      61.114   8.644   0.941  1.00  0.00     0.021 A 
ENDBRANCH   3   8
BRANCH   6  13
HETATM   13  N   UNL     1      63.732  11.476   6.249  1.00  0.00    -0.398 N 
HETATM   14  H   UNL     1      64.020  11.103   7.114  1.00  0.00     0.156 HD
HETATM   15  H   UNL     1      63.939  12.411   6.022  1.00  0.00     0.156 HD
ENDBRANCH   6  13
TORSDOF 2
ENDMDL
MODEL 2
REMARK VINA RESULT:      -4.6      3.743      4.897
REMARK  2 active torsions:
REMARK  status: ('A' for Active; 'I' for Inactive)
REMARK    1  A    between atoms: C_1  and  C_5 
REMARK    2  A    between atoms: C_11  and  N_12 
ROOT
HETATM    1  N   UNL     1      64.731   7.477   6.602  1.00  0.00    -0.363 N 
ATOM      2  HN  UNL     1      63.775   7.507   6.958  1.00  0.00     0.165 HD
HETATM    3  C   UNL     1      65.054   8.007   5.398  1.00  0.00     0.049 A 
HETATM    4  C   UNL     1      66.362   8.018   4.921  1.00  0.00     0.033 A 
HETATM    5  C   UNL     1      65.735   6.906   7.314  1.00  0.00     0.117 A 
HETATM    6  C   UNL     1      67.054   6.790   6.883  1.00  0.00     0.041 A 
HETATM    7  C   UNL     1      67.368   7.421   5.683  1.00  0.00     0.033 A 
ENDROOT
BRANCH   3   8
HETATM    8  C   UNL     1      63.918   8.580   4.661  1.00  0.00     0.031 A 
HETATM    9  S   UNL     1      63.128  10.008   5.209  1.00  0.00    -0.100 SA
HETATM   10  C   UNL     1      62.046  10.012   3.889  1.00  0.00     0.050 A 
HETATM   11  C   UNL     1      62.270   8.957   3.035  1.00  0.00     0.008 A 
HETATM   12  C   UNL     1      63.352   8.139   3.475  1.00  0.00     0.021 A 
ENDBRANCH   3   8
BRANCH   6  13
HETATM   13  N   UNL     1      68.068   6.287   7.706  1.00  0.00    -0.398 N 
HETATM   14  H   UNL     1      68.410   6.830   8.453  1.00  0.00     0.156 HD
HETATM   15  H   UNL     1      68.439   5.391   7.539  1.00  0.00     0.156 HD
ENDBRANCH   6  13
TORSDOF 2
ENDMDL
MODEL 3
REMARK VINA RESULT:      -4.5      3.454      5.574
REMARK  2 active torsions:
REMARK  status: ('A' for Active; 'I' for Inactive)
REMARK    1  A    between atoms: C_1  and  C_5 
REMARK    2  A    between atoms: C_11  and  N_12 
ROOT
HETATM    1  N   UNL     1      64.116   9.388   5.524  1.00  0.00    -0.363 N 
ATOM      2  HN  UNL     1      64.574   9.722   6.373  1.00  0.00     0.165 HD
HETATM    3  C   UNL     1      64.551   8.283   4.874  1.00  0.00     0.049 A 
HETATM    4  C   UNL     1      63.907   7.788   3.744  1.00  0.00     0.033 A 
HETATM    5  C   UNL     1      63.044  10.032   4.998  1.00  0.00     0.117 A 
HETATM    6  C   UNL     1      62.388   9.665   3.825  1.00  0.00     0.041 A 
HETATM    7  C   UNL     1      62.806   8.478   3.232  1.00  0.00     0.033 A 
ENDROOT
BRANCH   3   8
HETATM    8  C   UNL     1      65.736   7.651   5.473  1.00  0.00     0.031 A 
HETATM    9  S   UNL     1      65.628   6.775   6.950  1.00  0.00    -0.100 SA
HETATM   10  C   UNL     1      67.287   6.377   6.929  1.00  0.00     0.050 A 
HETATM   11  C   UNL     1      67.926   6.888   5.823  1.00  0.00     0.008 A 
HETATM   12  C   UNL     1      67.032   7.613   4.982  1.00  0.00     0.021 A 
ENDBRANCH   3   8
BRANCH   6  13
HETATM   13  N   UNL     1      61.221  10.303   3.389  1.00  0.00    -0.398 N 
HETATM   14  H   UNL     1      60.484  10.465   4.021  1.00  0.00     0.156 HD
HETATM   15  H   UNL     1      61.138  10.590   2.451  1.00  0.00     0.156 HD
ENDBRANCH   6  13
TORSDOF 2
ENDMDL
MODEL 4
REMARK VINA RESULT:      -4.4      3.005      5.114
REMARK  2 active torsions:
REMARK  status: ('A' for Active; 'I' for Inactive)
REMARK    1  A    between atoms: C_1  and  C_5 
REMARK    2  A    between atoms: C_11  and  N_12 
ROOT
HETATM    1  N   UNL     1      63.314   8.297   3.505  1.00  0.00    -0.363 N 
ATOM      2  HN  UNL     1      63.677   7.406   3.167  1.00  0.00     0.165 HD
HETATM    3  C   UNL     1      63.567   8.733   4.762  1.00  0.00     0.049 A 
HETATM    4  C   UNL     1      63.119   9.969   5.221  1.00  0.00     0.033 A 
HETATM    5  C   UNL     1      62.555   9.098   2.715  1.00  0.00     0.117 A 
HETATM    6  C   UNL     1      61.990  10.308   3.112  1.00  0.00     0.041 A 
HETATM    7  C   UNL     1      62.341  10.765   4.378  1.00  0.00     0.033 A 
ENDROOT
BRANCH   3   8
HETATM    8  C   UNL     1      64.363   7.806   5.580  1.00  0.00     0.031 A 
HETATM    9  S   UNL     1      66.052   8.046   5.810  1.00  0.00    -0.100 SA
HETATM   10  C   UNL     1      66.191   6.675   6.816  1.00  0.00     0.050 A 
HETATM   11  C   UNL     1      64.984   6.037   6.989  1.00  0.00     0.008 A 
HETATM   12  C   UNL     1      63.932   6.693   6.284  1.00  0.00     0.021 A 
ENDBRANCH   3   8
BRANCH   6  13
HETATM   13  N   UNL     1      61.307  11.142   2.220  1.00  0.00    -0.398 N 
HETATM   14  H   UNL     1      61.693  11.338   1.336  1.00  0.00     0.156 HD
HETATM   15  H   UNL     1      60.440  11.533   2.477  1.00  0.00     0.156 HD
ENDBRANCH   6  13
TORSDOF 2
ENDMDL
MODEL 5
REMARK VINA RESULT:      -4.0      3.333      4.375
REMARK  2 active torsions:
REMARK  status: ('A' for Active; 'I' for Inactive)
REMARK    1  A    between atoms: C_1  and  C_5 
REMARK    2  A    between atoms: C_11  and  N_12 
ROOT
HETATM    1  N   UNL     1      64.204   6.797   6.567  1.00  0.00    -0.363 N 
ATOM      2  HN  UNL     1      63.305   6.335   6.708  1.00  0.00     0.165 HD
HETATM    3  C   UNL     1      64.380   7.717   5.588  1.00  0.00     0.049 A 
HETATM    4  C   UNL     1      65.586   8.390   5.415  1.00  0.00     0.033 A 
HETATM    5  C   UNL     1      65.275   6.516   7.351  1.00  0.00     0.117 A 
HETATM    6  C   UNL     1      66.543   7.072   7.199  1.00  0.00     0.041 A 
HETATM    7  C   UNL     1      66.666   8.074   6.243  1.00  0.00     0.033 A 
ENDROOT
BRANCH   3   8
HETATM    8  C   UNL     1      63.194   7.950   4.751  1.00  0.00     0.031 A 
HETATM    9  S   UNL     1      61.790   6.967   4.902  1.00  0.00    -0.100 SA
HETATM   10  C   UNL     1      60.947   7.848   3.707  1.00  0.00     0.050 A 
HETATM   11  C   UNL     1      61.704   8.878   3.196  1.00  0.00     0.008 A 
HETATM   12  C   UNL     1      62.992   8.941   3.803  1.00  0.00     0.021 A 
ENDBRANCH   3   8
BRANCH   6  13
HETATM   13  N   UNL     1      67.580   6.826   8.106  1.00  0.00    -0.398 N 
HETATM   14  H   UNL     1      67.730   5.914   8.446  1.00  0.00     0.156 HD
HETATM   15  H   UNL     1      68.161   7.564   8.402  1.00  0.00     0.156 HD
ENDBRANCH   6  13
TORSDOF 2
ENDMDL
MODEL 6
REMARK VINA RESULT:      -4.0      3.096      3.953
REMARK  2 active torsions:
REMARK  status: ('A' for Active; 'I' for Inactive)
REMARK    1  A    between atoms: C_1  and  C_5 
REMARK    2  A    between atoms: C_11  and  N_12 
ROOT
HETATM    1  N   UNL     1      62.812   7.105   4.884  1.00  0.00    -0.363 N 
ATOM      2  HN  UNL     1      61.880   6.939   4.503  1.00  0.00     0.165 HD
HETATM    3  C   UNL     1      63.507   8.230   4.588  1.00  0.00     0.049 A 
HETATM    4  C   UNL     1      64.758   8.493   5.138  1.00  0.00     0.033 A 
HETATM    5  C   UNL     1      63.411   6.209   5.708  1.00  0.00     0.117 A 
HETATM    6  C   UNL     1      64.693   6.342   6.236  1.00  0.00     0.041 A 
HETATM    7  C   UNL     1      65.341   7.546   5.983  1.00  0.00     0.033 A 
ENDROOT
BRANCH   3   8
HETATM    8  C   UNL     1      62.820   9.144   3.663  1.00  0.00     0.031 A 
HETATM    9  S   UNL     1      62.321  10.712   4.167  1.00  0.00    -0.100 SA
HETATM   10  C   UNL     1      61.694  11.096   2.627  1.00  0.00     0.050 A 
HETATM   11  C   UNL     1      61.858  10.063   1.732  1.00  0.00     0.008 A 
HETATM   12  C   UNL     1      62.513   8.945   2.327  1.00  0.00     0.021 A 
ENDBRANCH   3   8
BRANCH   6  13
HETATM   13  N   UNL     1      65.216   5.437   7.167  1.00  0.00    -0.398 N 
HETATM   14  H   UNL     1      65.080   5.589   8.130  1.00  0.00     0.156 HD
HETATM   15  H   UNL     1      65.718   4.649   6.858  1.00  0.00     0.156 HD
ENDBRANCH   6  13
TORSDOF 2
ENDMDL
MODEL 7
REMARK VINA RESULT:      -3.8      1.586      2.014
REMARK  2 active torsions:
REMARK  status: ('A' for Active; 'I' for Inactive)
REMARK    1  A    between atoms: C_1  and  C_5 
REMARK    2  A    between atoms: C_11  and  N_12 
ROOT
HETATM    1  N   UNL     1      62.870   7.283   3.477  1.00  0.00    -0.363 N 
ATOM      2  HN  UNL     1      62.729   6.402   2.980  1.00  0.00     0.165 HD
HETATM    3  C   UNL     1      62.024   8.328   3.316  1.00  0.00     0.049 A 
HETATM    4  C   UNL     1      62.175   9.518   4.022  1.00  0.00     0.033 A 
HETATM    5  C   UNL     1      63.913   7.458   4.326  1.00  0.00     0.117 A 
HETATM    6  C   UNL     1      64.198   8.639   5.009  1.00  0.00     0.041 A 
HETATM    7  C   UNL     1      63.261   9.660   4.888  1.00  0.00     0.033 A 
ENDROOT
BRANCH   3   8
HETATM    8  C   UNL     1      60.935   8.088   2.357  1.00  0.00     0.031 A 
HETATM    9  S   UNL     1      59.525   7.211   2.811  1.00  0.00    -0.100 SA
HETATM   10  C   UNL     1      58.815   7.398   1.270  1.00  0.00     0.050 A 
HETATM   11  C   UNL     1      59.620   8.117   0.415  1.00  0.00     0.008 A 
HETATM   12  C   UNL     1      60.834   8.520   1.044  1.00  0.00     0.021 A 
ENDBRANCH   3   8
BRANCH   6  13
HETATM   13  N   UNL     1      65.225   8.726   5.955  1.00  0.00    -0.398 N 
HETATM   14  H   UNL     1      66.164   8.746   5.660  1.00  0.00     0.156 HD
HETATM   15  H   UNL     1      65.009   8.768   6.914  1.00  0.00     0.156 HD
ENDBRANCH   6  13
TORSDOF 2
ENDMDL
MODEL 8
REMARK VINA RESULT:      -3.8      4.670      6.008
REMARK  2 active torsions:
REMARK  status: ('A' for Active; 'I' for Inactive)
REMARK    1  A    between atoms: C_1  and  C_5 
REMARK    2  A    between atoms: C_11  and  N_12 
ROOT
HETATM    1  N   UNL     1      65.428   6.938   7.641  1.00  0.00    -0.363 N 
ATOM      2  HN  UNL     1      64.783   7.651   7.981  1.00  0.00     0.165 HD
HETATM    3  C   UNL     1      65.479   6.598   6.330  1.00  0.00     0.049 A 
HETATM    4  C   UNL     1      66.387   5.661   5.844  1.00  0.00     0.033 A 
HETATM    5  C   UNL     1      66.271   6.287   8.481  1.00  0.00     0.117 A 
HETATM    6  C   UNL     1      67.151   5.275   8.103  1.00  0.00     0.041 A 
HETATM    7  C   UNL     1      67.240   5.013   6.740  1.00  0.00     0.033 A 
ENDROOT
BRANCH   3   8
HETATM    8  C   UNL     1      64.517   7.312   5.478  1.00  0.00     0.031 A 
HETATM    9  S   UNL     1      63.116   6.525   4.862  1.00  0.00    -0.100 SA
HETATM   10  C   UNL     1      62.570   7.937   4.075  1.00  0.00     0.050 A 
HETATM   11  C   UNL     1      63.423   8.999   4.271  1.00  0.00     0.008 A 
HETATM   12  C   UNL     1      64.537   8.641   5.085  1.00  0.00     0.021 A 
ENDBRANCH   3   8
BRANCH   6  13
HETATM   13  N   UNL     1      68.074   4.716   8.994  1.00  0.00    -0.398 N 
HETATM   14  H   UNL     1      67.906   3.828   9.384  1.00  0.00     0.156 HD
HETATM   15  H   UNL     1      68.892   5.211   9.230  1.00  0.00     0.156 HD
ENDBRANCH   6  13
TORSDOF 2
ENDMDL
MODEL 9
REMARK VINA RESULT:      -3.7      2.518      3.999
REMARK  2 active torsions:
REMARK  status: ('A' for Active; 'I' for Inactive)
REMARK    1  A    between atoms: C_1  and  C_5 
REMARK    2  A    between atoms: C_11  and  N_12 
ROOT
HETATM    1  N   UNL     1      62.629   9.134   4.047  1.00  0.00    -0.363 N 
ATOM      2  HN  UNL     1      62.832   8.921   5.024  1.00  0.00     0.165 HD
HETATM    3  C   UNL     1      62.782   8.204   3.074  1.00  0.00     0.049 A 
HETATM    4  C   UNL     1      62.462   8.465   1.745  1.00  0.00     0.033 A 
HETATM    5  C   UNL     1      62.194  10.361   3.666  1.00  0.00     0.117 A 
HETATM    6  C   UNL     1      61.933  10.743   2.352  1.00  0.00     0.041 A 
HETATM    7  C   UNL     1      62.017   9.740   1.391  1.00  0.00     0.033 A 
ENDROOT
BRANCH   3   8
HETATM    8  C   UNL     1      63.289   6.907   3.546  1.00  0.00     0.031 A 
HETATM    9  S   UNL     1      63.813   5.699   2.438  1.00  0.00    -0.100 SA
HETATM   10  C   UNL     1      64.240   4.621   3.691  1.00  0.00     0.050 A 
HETATM   11  C   UNL     1      64.000   5.157   4.936  1.00  0.00     0.008 A 
HETATM   12  C   UNL     1      63.461   6.474   4.851  1.00  0.00     0.021 A 
ENDBRANCH   3   8
BRANCH   6  13
HETATM   13  N   UNL     1      61.383  11.989   2.030  1.00  0.00    -0.398 N 
HETATM   14  H   UNL     1      60.820  12.086   1.229  1.00  0.00     0.156 HD
HETATM   15  H   UNL     1      61.559  12.768   2.607  1.00  0.00     0.156 HD
ENDBRANCH   6  13
TORSDOF 2
ENDMDL
