MODEL 1
REMARK VINA RESULT:      -5.1      0.000      0.000
REMARK  4 active torsions:
REMARK  status: ('A' for Active; 'I' for Inactive)
REMARK    1  A    between atoms: N_1  and  C_2 
REMARK    2  A    between atoms: C_2  and  C_3 
REMARK    3  A    between atoms: C_5  and  C_11 
REMARK    4  A    between atoms: N_6  and  C_11 
ROOT
HETATM    1  C   UNL     1      65.459   7.785   5.086  1.00  0.00    -0.032 A 
HETATM    2  C   UNL     1      64.724   8.944   5.381  1.00  0.00     0.017 A 
HETATM    3  C   UNL     1      63.544   9.261   4.688  1.00  0.00    -0.033 A 
HETATM    4  C   UNL     1      63.834   7.254   3.359  1.00  0.00     0.001 A 
HETATM    5  C   UNL     1      64.997   6.943   4.065  1.00  0.00     0.009 A 
HETATM    6  C   UNL     1      63.111   8.406   3.668  1.00  0.00     0.009 A 
ENDROOT
BRANCH   1   7
HETATM    7  C   UNL     1      66.688   7.433   5.896  1.00  0.00     0.273 C 
BRANCH   7   8
HETATM    8  N   UNL     1      66.699   6.169   6.641  1.00  0.00    -0.067 N 
HETATM    9  C   UNL     1      65.716   6.062   7.716  1.00  0.00     0.235 C 
HETATM   10  C   UNL     1      66.460   6.412   8.991  1.00  0.00     0.029 C 
HETATM   11  C   UNL     1      67.898   6.004   8.716  1.00  0.00     0.029 C 
HETATM   12  C   UNL     1      67.990   5.792   7.211  1.00  0.00     0.235 C 
HETATM   13  H   UNL     1      66.452   5.525   5.889  1.00  0.00     0.280 HD
ENDBRANCH   7   8
ENDBRANCH   1   7
BRANCH   3  14
HETATM   14  C   UNL     1      62.758  10.494   5.049  1.00  0.00     0.268 C 
BRANCH  14  15
HETATM   15  N   UNL     1      63.441  11.275   6.075  1.00  0.00    -0.075 N 
HETATM   16  H   UNL     1      64.438  11.321   5.861  1.00  0.00     0.274 HD
HETATM   17  H   UNL     1      63.310  10.832   6.984  1.00  0.00     0.274 HD
HETATM   18  H   UNL     1      63.055  12.219   6.098  1.00  0.00     0.274 HD
ENDBRANCH  14  15
ENDBRANCH   3  14
TORSDOF 4
ENDMDL
MODEL 2
REMARK VINA RESULT:      -5.0      2.228      3.475
REMARK  4 active torsions:
REMARK  status: ('A' for Active; 'I' for Inactive)
REMARK    1  A    between atoms: N_1  and  C_2 
REMARK    2  A    between atoms: C_2  and  C_3 
REMARK    3  A    between atoms: C_5  and  C_11 
REMARK    4  A    between atoms: N_6  and  C_11 
ROOT
HETATM    1  C   UNL     1      63.190   8.729   4.758  1.00  0.00    -0.032 A 
HETATM    2  C   UNL     1      62.732   8.522   3.447  1.00  0.00     0.017 A 
HETATM    3  C   UNL     1      62.138   9.556   2.706  1.00  0.00    -0.033 A 
HETATM    4  C   UNL     1      62.430  11.031   4.608  1.00  0.00     0.001 A 
HETATM    5  C   UNL     1      63.032   9.998   5.328  1.00  0.00     0.009 A 
HETATM    6  C   UNL     1      61.985  10.813   3.304  1.00  0.00     0.009 A 
ENDROOT
BRANCH   1   7
HETATM    7  C   UNL     1      63.890   7.614   5.507  1.00  0.00     0.273 C 
BRANCH   7   8
HETATM    8  N   UNL     1      65.205   7.885   6.100  1.00  0.00    -0.067 N 
HETATM    9  C   UNL     1      66.299   8.065   5.149  1.00  0.00     0.235 C 
HETATM   10  C   UNL     1      67.002   6.724   5.071  1.00  0.00     0.029 C 
HETATM   11  C   UNL     1      66.767   6.091   6.433  1.00  0.00     0.029 C 
HETATM   12  C   UNL     1      65.658   6.906   7.084  1.00  0.00     0.235 C 
HETATM   13  H   UNL     1      65.005   8.773   6.562  1.00  0.00     0.280 HD
ENDBRANCH   7   8
ENDBRANCH   1   7
BRANCH   3  14
HETATM   14  C   UNL     1      61.686   9.314   1.289  1.00  0.00     0.268 C 
BRANCH  14  15
HETATM   15  N   UNL     1      60.334   8.767   1.253  1.00  0.00    -0.075 N 
HETATM   16  H   UNL     1      60.334   7.830   1.657  1.00  0.00     0.274 HD
HETATM   17  H   UNL     1      60.012   8.719   0.287  1.00  0.00     0.274 HD
HETATM   18  H   UNL     1      59.708   9.369   1.790  1.00  0.00     0.274 HD
ENDBRANCH  14  15
ENDBRANCH   3  14
TORSDOF 4
ENDMDL
MODEL 3
REMARK VINA RESULT:      -5.0      1.595      2.165
REMARK  4 active torsions:
REMARK  status: ('A' for Active; 'I' for Inactive)
REMARK    1  A    between atoms: N_1  and  C_2 
REMARK    2  A    between atoms: C_2  and  C_3 
REMARK    3  A    between atoms: C_5  and  C_11 
REMARK    4  A    between atoms: N_6  and  C_11 
ROOT
HETATM    1  C   UNL     1      63.847   7.697   4.938  1.00  0.00    -0.032 A 
HETATM    2  C   UNL     1      63.272   8.978   4.949  1.00  0.00     0.017 A 
HETATM    3  C   UNL     1      62.625   9.502   3.819  1.00  0.00    -0.033 A 
HETATM    4  C   UNL     1      63.150   7.459   2.622  1.00  0.00     0.001 A 
HETATM    5  C   UNL     1      63.777   6.944   3.758  1.00  0.00     0.009 A 
HETATM    6  C   UNL     1      62.577   8.730   2.651  1.00  0.00     0.009 A 
ENDROOT
BRANCH   1   7
HETATM    7  C   UNL     1      64.475   7.130   6.193  1.00  0.00     0.273 C 
BRANCH   7   8
HETATM    8  N   UNL     1      65.762   7.675   6.640  1.00  0.00    -0.067 N 
HETATM    9  C   UNL     1      66.751   7.899   5.589  1.00  0.00     0.235 C 
HETATM   10  C   UNL     1      67.658   6.683   5.610  1.00  0.00     0.029 C 
HETATM   11  C   UNL     1      67.615   6.202   7.051  1.00  0.00     0.029 C 
HETATM   12  C   UNL     1      66.430   6.912   7.692  1.00  0.00     0.235 C 
HETATM   13  H   UNL     1      65.449   8.573   7.011  1.00  0.00     0.280 HD
ENDBRANCH   7   8
ENDBRANCH   1   7
BRANCH   3  14
HETATM   14  C   UNL     1      61.988  10.866   3.871  1.00  0.00     0.268 C 
BRANCH  14  15
HETATM   15  N   UNL     1      61.600  11.319   2.539  1.00  0.00    -0.075 N 
HETATM   16  H   UNL     1      60.585  11.409   2.491  1.00  0.00     0.274 HD
HETATM   17  H   UNL     1      61.913  10.640   1.844  1.00  0.00     0.274 HD
HETATM   18  H   UNL     1      62.032  12.223   2.348  1.00  0.00     0.274 HD
ENDBRANCH  14  15
ENDBRANCH   3  14
TORSDOF 4
ENDMDL
MODEL 4
REMARK VINA RESULT:      -4.7      1.347      1.967
REMARK  4 active torsions:
REMARK  status: ('A' for Active; 'I' for Inactive)
REMARK    1  A    between atoms: N_1  and  C_2 
REMARK    2  A    between atoms: C_2  and  C_3 
REMARK    3  A    between atoms: C_5  and  C_11 
REMARK    4  A    between atoms: N_6  and  C_11 
ROOT
HETATM    1  C   UNL     1      64.091   7.664   4.399  1.00  0.00    -0.032 A 
HETATM    2  C   UNL     1      63.833   8.864   5.081  1.00  0.00     0.017 A 
HETATM    3  C   UNL     1      62.975   9.840   4.548  1.00  0.00    -0.033 A 
HETATM    4  C   UNL     1      62.638   8.426   2.608  1.00  0.00     0.001 A 
HETATM    5  C   UNL     1      63.481   7.458   3.155  1.00  0.00     0.009 A 
HETATM    6  C   UNL     1      62.385   9.610   3.299  1.00  0.00     0.009 A 
ENDROOT
BRANCH   1   7
HETATM    7  C   UNL     1      64.964   6.600   5.030  1.00  0.00     0.273 C 
BRANCH   7   8
HETATM    8  N   UNL     1      66.422   6.745   4.939  1.00  0.00    -0.067 N 
HETATM    9  C   UNL     1      67.156   5.529   4.599  1.00  0.00     0.235 C 
HETATM   10  C   UNL     1      67.648   4.962   5.918  1.00  0.00     0.029 C 
HETATM   11  C   UNL     1      67.808   6.177   6.817  1.00  0.00     0.029 C 
HETATM   12  C   UNL     1      67.067   7.311   6.120  1.00  0.00     0.235 C 
HETATM   13  H   UNL     1      66.481   7.405   4.163  1.00  0.00     0.280 HD
ENDBRANCH   7   8
ENDBRANCH   1   7
BRANCH   3  14
HETATM   14  C   UNL     1      62.690  11.103   5.318  1.00  0.00     0.268 C 
BRANCH  14  15
HETATM   15  N   UNL     1      63.764  11.403   6.258  1.00  0.00    -0.075 N 
HETATM   16  H   UNL     1      63.884  10.619   6.900  1.00  0.00     0.274 HD
HETATM   17  H   UNL     1      63.529  12.242   6.787  1.00  0.00     0.274 HD
HETATM   18  H   UNL     1      64.632  11.557   5.745  1.00  0.00     0.274 HD
ENDBRANCH  14  15
ENDBRANCH   3  14
TORSDOF 4
ENDMDL
MODEL 5
REMARK VINA RESULT:      -4.4      1.498      5.449
REMARK  4 active torsions:
REMARK  status: ('A' for Active; 'I' for Inactive)
REMARK    1  A    between atoms: N_1  and  C_2 
REMARK    2  A    between atoms: C_2  and  C_3 
REMARK    3  A    between atoms: C_5  and  C_11 
REMARK    4  A    between atoms: N_6  and  C_11 
ROOT
HETATM    1  C   UNL     1      65.761   7.542   5.372  1.00  0.00    -0.032 A 
HETATM    2  C   UNL     1      65.976   7.091   6.685  1.00  0.00     0.017 A 
HETATM    3  C   UNL     1      66.734   5.940   6.951  1.00  0.00    -0.033 A 
HETATM    4  C   UNL     1      67.055   5.651   4.565  1.00  0.00     0.001 A 
HETATM    5  C   UNL     1      66.312   6.806   4.315  1.00  0.00     0.009 A 
HETATM    6  C   UNL     1      67.265   5.219   5.874  1.00  0.00     0.009 A 
ENDROOT
BRANCH   1   7
HETATM    7  C   UNL     1      64.999   8.826   5.121  1.00  0.00     0.273 C 
BRANCH   7   8
HETATM    8  N   UNL     1      63.549   8.835   5.342  1.00  0.00    -0.067 N 
HETATM    9  C   UNL     1      62.763   8.041   4.402  1.00  0.00     0.235 C 
HETATM   10  C   UNL     1      62.255   9.020   3.360  1.00  0.00     0.029 C 
HETATM   11  C   UNL     1      62.151  10.343   4.100  1.00  0.00     0.029 C 
HETATM   12  C   UNL     1      62.934  10.159   5.393  1.00  0.00     0.235 C 
HETATM   13  H   UNL     1      63.513   8.402   6.266  1.00  0.00     0.280 HD
ENDBRANCH   7   8
ENDBRANCH   1   7
BRANCH   3  14
HETATM   14  C   UNL     1      66.977   5.499   8.371  1.00  0.00     0.268 C 
BRANCH  14  15
HETATM   15  N   UNL     1      68.072   6.248   8.976  1.00  0.00    -0.075 N 
HETATM   16  H   UNL     1      67.734   7.162   9.279  1.00  0.00     0.274 HD
HETATM   17  H   UNL     1      68.818   6.372   8.292  1.00  0.00     0.274 HD
HETATM   18  H   UNL     1      68.431   5.735   9.782  1.00  0.00     0.274 HD
ENDBRANCH  14  15
ENDBRANCH   3  14
TORSDOF 4
ENDMDL
MODEL 6
REMARK VINA RESULT:      -4.3      2.093      5.777
REMARK  4 active torsions:
REMARK  status: ('A' for Active; 'I' for Inactive)
REMARK    1  A    between atoms: N_1  and  C_2 
REMARK    2  A    between atoms: C_2  and  C_3 
REMARK    3  A    between atoms: C_5  and  C_11 
REMARK    4  A    between atoms: N_6  and  C_11 
ROOT
HETATM    1  C   UNL     1      63.920   7.453   4.797  1.00  0.00    -0.032 A 
HETATM    2  C   UNL     1      65.018   7.747   5.622  1.00  0.00     0.017 A 
HETATM    3  C   UNL     1      65.416   6.877   6.650  1.00  0.00    -0.033 A 
HETATM    4  C   UNL     1      63.585   5.403   6.056  1.00  0.00     0.001 A 
HETATM    5  C   UNL     1      63.209   6.269   5.028  1.00  0.00     0.009 A 
HETATM    6  C   UNL     1      64.682   5.704   6.863  1.00  0.00     0.009 A 
ENDROOT
BRANCH   1   7
HETATM    7  C   UNL     1      63.559   8.375   3.651  1.00  0.00     0.273 C 
BRANCH   7   8
HETATM    8  N   UNL     1      62.206   8.942   3.608  1.00  0.00    -0.067 N 
HETATM    9  C   UNL     1      61.530   8.861   2.316  1.00  0.00     0.235 C 
HETATM   10  C   UNL     1      61.737  10.213   1.658  1.00  0.00     0.029 C 
HETATM   11  C   UNL     1      61.865  11.185   2.819  1.00  0.00     0.029 C 
HETATM   12  C   UNL     1      62.095  10.328   4.056  1.00  0.00     0.235 C 
HETATM   13  H   UNL     1      61.740   8.325   4.274  1.00  0.00     0.280 HD
ENDBRANCH   7   8
ENDBRANCH   1   7
BRANCH   3  14
HETATM   14  C   UNL     1      66.619   7.201   7.498  1.00  0.00     0.268 C 
BRANCH  14  15
HETATM   15  N   UNL     1      67.059   8.576   7.286  1.00  0.00    -0.075 N 
HETATM   16  H   UNL     1      68.079   8.609   7.273  1.00  0.00     0.274 HD
HETATM   17  H   UNL     1      66.710   9.165   8.042  1.00  0.00     0.274 HD
HETATM   18  H   UNL     1      66.697   8.916   6.395  1.00  0.00     0.274 HD
ENDBRANCH  14  15
ENDBRANCH   3  14
TORSDOF 4
ENDMDL
MODEL 7
REMARK VINA RESULT:      -4.3      2.055      2.758
REMARK  4 active torsions:
REMARK  status: ('A' for Active; 'I' for Inactive)
REMARK    1  A    between atoms: N_1  and  C_2 
REMARK    2  A    between atoms: C_2  and  C_3 
REMARK    3  A    between atoms: C_5  and  C_11 
REMARK    4  A    between atoms: N_6  and  C_11 
ROOT
HETATM    1  C   UNL     1      63.787   7.473   3.629  1.00  0.00    -0.032 A 
HETATM    2  C   UNL     1      63.301   8.752   3.943  1.00  0.00     0.017 A 
HETATM    3  C   UNL     1      62.422   9.434   3.085  1.00  0.00    -0.033 A 
HETATM    4  C   UNL     1      62.525   7.557   1.554  1.00  0.00     0.001 A 
HETATM    5  C   UNL     1      63.387   6.884   2.422  1.00  0.00     0.009 A 
HETATM    6  C   UNL     1      62.045   8.824   1.883  1.00  0.00     0.009 A 
ENDROOT
BRANCH   1   7
HETATM    7  C   UNL     1      64.677   6.734   4.605  1.00  0.00     0.273 C 
BRANCH   7   8
HETATM    8  N   UNL     1      64.154   6.437   5.944  1.00  0.00    -0.067 N 
HETATM    9  C   UNL     1      65.095   6.627   7.044  1.00  0.00     0.235 C 
HETATM   10  C   UNL     1      65.661   5.252   7.345  1.00  0.00     0.029 C 
HETATM   11  C   UNL     1      64.556   4.290   6.944  1.00  0.00     0.029 C 
HETATM   12  C   UNL     1      63.579   5.104   6.107  1.00  0.00     0.235 C 
HETATM   13  H   UNL     1      63.417   7.141   6.000  1.00  0.00     0.280 HD
ENDBRANCH   7   8
ENDBRANCH   1   7
BRANCH   3  14
HETATM   14  C   UNL     1      61.889  10.791   3.464  1.00  0.00     0.268 C 
BRANCH  14  15
HETATM   15  N   UNL     1      61.625  11.603   2.281  1.00  0.00    -0.075 N 
HETATM   16  H   UNL     1      62.175  11.252   1.496  1.00  0.00     0.274 HD
HETATM   17  H   UNL     1      61.883  12.572   2.468  1.00  0.00     0.274 HD
HETATM   18  H   UNL     1      60.633  11.555   2.049  1.00  0.00     0.274 HD
ENDBRANCH  14  15
ENDBRANCH   3  14
TORSDOF 4
ENDMDL
MODEL 8
REMARK VINA RESULT:      -4.1      1.977      6.285
REMARK  4 active torsions:
REMARK  status: ('A' for Active; 'I' for Inactive)
REMARK    1  A    between atoms: N_1  and  C_2 
REMARK    2  A    between atoms: C_2  and  C_3 
REMARK    3  A    between atoms: C_5  and  C_11 
REMARK    4  A    between atoms: N_6  and  C_11 
ROOT
HETATM    1  C   UNL     1      66.006   5.997   7.345  1.00  0.00    -0.032 A 
HETATM    2  C   UNL     1      66.298   4.625   7.266  1.00  0.00     0.017 A 
HETATM    3  C   UNL     1      67.267   4.033   8.091  1.00  0.00    -0.033 A 
HETATM    4  C   UNL     1      67.693   6.205   9.081  1.00  0.00     0.001 A 
HETATM    5  C   UNL     1      66.717   6.778   8.265  1.00  0.00     0.009 A 
HETATM    6  C   UNL     1      67.967   4.840   8.996  1.00  0.00     0.009 A 
ENDROOT
BRANCH   1   7
HETATM    7  C   UNL     1      64.908   6.594   6.491  1.00  0.00     0.273 C 
BRANCH   7   8
HETATM    8  N   UNL     1      65.282   7.303   5.262  1.00  0.00    -0.067 N 
HETATM    9  C   UNL     1      64.749   8.656   5.129  1.00  0.00     0.235 C 
HETATM   10  C   UNL     1      63.512   8.528   4.260  1.00  0.00     0.029 C 
HETATM   11  C   UNL     1      63.789   7.320   3.380  1.00  0.00     0.029 C 
HETATM   12  C   UNL     1      64.971   6.602   4.019  1.00  0.00     0.235 C 
HETATM   13  H   UNL     1      66.293   7.346   5.390  1.00  0.00     0.280 HD
ENDBRANCH   7   8
ENDBRANCH   1   7
BRANCH   3  14
HETATM   14  C   UNL     1      67.535   2.552   8.008  1.00  0.00     0.268 C 
BRANCH  14  15
HETATM   15  N   UNL     1      67.125   1.872   9.232  1.00  0.00    -0.075 N 
HETATM   16  H   UNL     1      67.949   1.645   9.789  1.00  0.00     0.274 HD
HETATM   17  H   UNL     1      66.630   1.013   8.994  1.00  0.00     0.274 HD
HETATM   18  H   UNL     1      66.508   2.482   9.770  1.00  0.00     0.274 HD
ENDBRANCH  14  15
ENDBRANCH   3  14
TORSDOF 4
ENDMDL
MODEL 9
REMARK VINA RESULT:      -4.0      2.227      3.046
REMARK  4 active torsions:
REMARK  status: ('A' for Active; 'I' for Inactive)
REMARK    1  A    between atoms: N_1  and  C_2 
REMARK    2  A    between atoms: C_2  and  C_3 
REMARK    3  A    between atoms: C_5  and  C_11 
REMARK    4  A    between atoms: N_6  and  C_11 
ROOT
HETATM    1  C   UNL     1      63.305   7.094   3.740  1.00  0.00    -0.032 A 
HETATM    2  C   UNL     1      63.155   8.178   2.859  1.00  0.00     0.017 A 
HETATM    3  C   UNL     1      61.912   8.804   2.672  1.00  0.00    -0.033 A 
HETATM    4  C   UNL     1      60.932   7.236   4.240  1.00  0.00     0.001 A 
HETATM    5  C   UNL     1      62.176   6.632   4.429  1.00  0.00     0.009 A 
HETATM    6  C   UNL     1      60.800   8.316   3.368  1.00  0.00     0.009 A 
ENDROOT
BRANCH   1   7
HETATM    7  C   UNL     1      64.671   6.485   3.974  1.00  0.00     0.273 C 
BRANCH   7   8
HETATM    8  N   UNL     1      65.329   6.715   5.265  1.00  0.00    -0.067 N 
HETATM    9  C   UNL     1      66.037   7.986   5.394  1.00  0.00     0.235 C 
HETATM   10  C   UNL     1      67.494   7.677   5.105  1.00  0.00     0.029 C 
HETATM   11  C   UNL     1      67.667   6.228   5.529  1.00  0.00     0.029 C 
HETATM   12  C   UNL     1      66.259   5.670   5.687  1.00  0.00     0.235 C 
HETATM   13  H   UNL     1      64.512   6.718   5.877  1.00  0.00     0.280 HD
ENDBRANCH   7   8
ENDBRANCH   1   7
BRANCH   3  14
HETATM   14  C   UNL     1      61.788   9.986   1.746  1.00  0.00     0.268 C 
BRANCH  14  15
HETATM   15  N   UNL     1      61.552  11.218   2.492  1.00  0.00    -0.075 N 
HETATM   16  H   UNL     1      60.646  11.166   2.959  1.00  0.00     0.274 HD
HETATM   17  H   UNL     1      61.558  12.010   1.850  1.00  0.00     0.274 HD
HETATM   18  H   UNL     1      62.288  11.340   3.189  1.00  0.00     0.274 HD
ENDBRANCH  14  15
ENDBRANCH   3  14
TORSDOF 4
ENDMDL
