MODEL 1
REMARK VINA RESULT:      -5.5      0.000      0.000
REMARK  4 active torsions:
REMARK  status: ('A' for Active; 'I' for Inactive)
REMARK    1  A    between atoms: N_1  and  C_3 
REMARK    2  A    between atoms: C_3  and  C_7 
REMARK    3  A    between atoms: C_8  and  C_17 
REMARK    4  A    between atoms: N_11  and  C_17 
ROOT
HETATM    1  C   UNL     1      64.781   7.453   4.667  1.00  0.00    -0.033 A 
HETATM    2  C   UNL     1      62.749   8.859   3.293  1.00  0.00    -0.033 A 
HETATM    3  C   UNL     1      64.211   6.925   3.499  1.00  0.00     0.009 A 
HETATM    4  C   UNL     1      64.300   8.674   5.157  1.00  0.00     0.009 A 
HETATM    5  C   UNL     1      63.297   9.371   4.477  1.00  0.00     0.009 A 
HETATM    6  C   UNL     1      63.207   7.621   2.822  1.00  0.00     0.009 A 
ENDROOT
BRANCH   1   7
HETATM    7  C   UNL     1      65.906   6.727   5.378  1.00  0.00     0.273 C 
BRANCH   7   8
HETATM    8  N   UNL     1      65.687   6.542   6.825  1.00  0.00    -0.066 N 
HETATM    9  C   UNL     1      65.393   5.150   7.199  1.00  0.00     0.263 C 
HETATM   10  C   UNL     1      66.603   4.209   7.365  1.00  0.00     0.262 C 
HETATM   11  N   UNL     1      67.081   4.159   8.757  1.00  0.00    -0.073 N 
HETATM   12  C   UNL     1      67.761   5.388   9.180  1.00  0.00     0.236 C 
HETATM   13  C   UNL     1      67.962   3.005   8.948  1.00  0.00     0.269 C 
HETATM   14  H   UNL     1      66.253   4.065   9.345  1.00  0.00     0.279 HD
HETATM   15  C   UNL     1      66.959   6.690   9.040  1.00  0.00     0.055 C 
HETATM   16  C   UNL     1      66.788   7.148   7.586  1.00  0.00     0.237 C 
HETATM   17  H   UNL     1      64.835   7.041   7.081  1.00  0.00     0.280 HD
ENDBRANCH   7   8
ENDBRANCH   1   7
BRANCH   2  18
HETATM   18  C   UNL     1      61.694   9.626   2.537  1.00  0.00     0.268 C 
BRANCH  18  19
HETATM   19  N   UNL     1      61.672  11.032   2.925  1.00  0.00    -0.075 N 
HETATM   20  H   UNL     1      61.366  11.598   2.135  1.00  0.00     0.274 HD
HETATM   21  H   UNL     1      62.608  11.321   3.209  1.00  0.00     0.274 HD
HETATM   22  H   UNL     1      61.026  11.159   3.705  1.00  0.00     0.274 HD
ENDBRANCH  18  19
ENDBRANCH   2  18
TORSDOF 4
ENDMDL
MODEL 2
REMARK VINA RESULT:      -5.4      1.539      2.055
REMARK  4 active torsions:
REMARK  status: ('A' for Active; 'I' for Inactive)
REMARK    1  A    between atoms: N_1  and  C_3 
REMARK    2  A    between atoms: C_3  and  C_7 
REMARK    3  A    between atoms: C_8  and  C_17 
REMARK    4  A    between atoms: N_11  and  C_17 
ROOT
HETATM    1  C   UNL     1      63.071   8.089   4.956  1.00  0.00    -0.033 A 
HETATM    2  C   UNL     1      62.206   9.692   2.794  1.00  0.00    -0.033 A 
HETATM    3  C   UNL     1      62.850   7.525   3.692  1.00  0.00     0.009 A 
HETATM    4  C   UNL     1      62.823   9.457   5.134  1.00  0.00     0.009 A 
HETATM    5  C   UNL     1      62.398  10.251   4.064  1.00  0.00     0.009 A 
HETATM    6  C   UNL     1      62.422   8.318   2.624  1.00  0.00     0.009 A 
ENDROOT
BRANCH   1   7
HETATM    7  C   UNL     1      63.584   7.244   6.105  1.00  0.00     0.273 C 
BRANCH   7   8
HETATM    8  N   UNL     1      64.962   7.565   6.525  1.00  0.00    -0.066 N 
HETATM    9  C   UNL     1      65.488   6.652   7.551  1.00  0.00     0.263 C 
HETATM   10  C   UNL     1      66.062   5.311   7.054  1.00  0.00     0.262 C 
HETATM   11  N   UNL     1      67.513   5.382   6.812  1.00  0.00    -0.073 N 
HETATM   12  C   UNL     1      67.862   6.169   5.623  1.00  0.00     0.236 C 
HETATM   13  C   UNL     1      68.075   4.034   6.706  1.00  0.00     0.269 C 
HETATM   14  H   UNL     1      67.917   5.866   7.613  1.00  0.00     0.279 HD
HETATM   15  C   UNL     1      67.341   7.613   5.588  1.00  0.00     0.055 C 
HETATM   16  C   UNL     1      65.829   7.710   5.348  1.00  0.00     0.237 C 
HETATM   17  H   UNL     1      64.943   8.468   6.999  1.00  0.00     0.280 HD
ENDBRANCH   7   8
ENDBRANCH   1   7
BRANCH   2  18
HETATM   18  C   UNL     1      61.784  10.552   1.629  1.00  0.00     0.268 C 
BRANCH  18  19
HETATM   19  N   UNL     1      61.697  11.959   2.006  1.00  0.00    -0.075 N 
HETATM   20  H   UNL     1      62.483  12.468   1.604  1.00  0.00     0.274 HD
HETATM   21  H   UNL     1      61.722  12.042   3.022  1.00  0.00     0.274 HD
HETATM   22  H   UNL     1      60.822  12.351   1.655  1.00  0.00     0.274 HD
ENDBRANCH  18  19
ENDBRANCH   2  18
TORSDOF 4
ENDMDL
MODEL 3
REMARK VINA RESULT:      -4.8      2.100      7.208
REMARK  4 active torsions:
REMARK  status: ('A' for Active; 'I' for Inactive)
REMARK    1  A    between atoms: N_1  and  C_3 
REMARK    2  A    between atoms: C_3  and  C_7 
REMARK    3  A    between atoms: C_8  and  C_17 
REMARK    4  A    between atoms: N_11  and  C_17 
ROOT
HETATM    1  C   UNL     1      64.220   7.812   5.513  1.00  0.00    -0.033 A 
HETATM    2  C   UNL     1      66.498   6.694   6.760  1.00  0.00    -0.033 A 
HETATM    3  C   UNL     1      65.502   8.302   5.229  1.00  0.00     0.009 A 
HETATM    4  C   UNL     1      64.087   6.780   6.452  1.00  0.00     0.009 A 
HETATM    5  C   UNL     1      65.214   6.225   7.067  1.00  0.00     0.009 A 
HETATM    6  C   UNL     1      66.627   7.748   5.846  1.00  0.00     0.009 A 
ENDROOT
BRANCH   1   7
HETATM    7  C   UNL     1      63.001   8.374   4.809  1.00  0.00     0.273 C 
BRANCH   7   8
HETATM    8  N   UNL     1      63.159   8.521   3.349  1.00  0.00    -0.066 N 
HETATM    9  C   UNL     1      63.115   7.243   2.624  1.00  0.00     0.263 C 
HETATM   10  C   UNL     1      61.717   6.673   2.313  1.00  0.00     0.262 C 
HETATM   11  N   UNL     1      61.229   7.089   0.987  1.00  0.00    -0.073 N 
HETATM   12  C   UNL     1      60.853   8.507   0.929  1.00  0.00     0.236 C 
HETATM   13  C   UNL     1      60.100   6.252   0.577  1.00  0.00     0.269 C 
HETATM   14  H   UNL     1      62.007   6.965   0.340  1.00  0.00     0.279 HD
HETATM   15  C   UNL     1      61.939   9.514   1.332  1.00  0.00     0.055 C 
HETATM   16  C   UNL     1      62.224   9.534   2.839  1.00  0.00     0.237 C 
HETATM   17  H   UNL     1      64.102   8.864   3.168  1.00  0.00     0.280 HD
ENDBRANCH   7   8
ENDBRANCH   1   7
BRANCH   2  18
HETATM   18  C   UNL     1      67.717   6.072   7.392  1.00  0.00     0.268 C 
BRANCH  18  19
HETATM   19  N   UNL     1      67.914   6.547   8.757  1.00  0.00    -0.075 N 
HETATM   20  H   UNL     1      67.014   6.795   9.164  1.00  0.00     0.274 HD
HETATM   21  H   UNL     1      68.521   7.367   8.748  1.00  0.00     0.274 HD
HETATM   22  H   UNL     1      68.348   5.810   9.314  1.00  0.00     0.274 HD
ENDBRANCH  18  19
ENDBRANCH   2  18
TORSDOF 4
ENDMDL
MODEL 4
REMARK VINA RESULT:      -4.8      5.221      7.246
REMARK  4 active torsions:
REMARK  status: ('A' for Active; 'I' for Inactive)
REMARK    1  A    between atoms: N_1  and  C_3 
REMARK    2  A    between atoms: C_3  and  C_7 
REMARK    3  A    between atoms: C_8  and  C_17 
REMARK    4  A    between atoms: N_11  and  C_17 
ROOT
HETATM    1  C   UNL     1      62.279   8.917   1.619  1.00  0.00    -0.033 A 
HETATM    2  C   UNL     1      62.402  10.519   3.945  1.00  0.00    -0.033 A 
HETATM    3  C   UNL     1      62.795   8.400   2.816  1.00  0.00     0.009 A 
HETATM    4  C   UNL     1      61.857  10.253   1.591  1.00  0.00     0.009 A 
HETATM    5  C   UNL     1      61.915  11.045   2.741  1.00  0.00     0.009 A 
HETATM    6  C   UNL     1      62.854   9.193   3.965  1.00  0.00     0.009 A 
ENDROOT
BRANCH   1   7
HETATM    7  C   UNL     1      62.165   8.047   0.384  1.00  0.00     0.273 C 
BRANCH   7   8
HETATM    8  N   UNL     1      60.847   7.403   0.216  1.00  0.00    -0.066 N 
HETATM    9  C   UNL     1      60.833   5.987   0.610  1.00  0.00     0.263 C 
HETATM   10  C   UNL     1      60.672   5.690   2.115  1.00  0.00     0.262 C 
HETATM   11  N   UNL     1      59.263   5.493   2.494  1.00  0.00    -0.073 N 
HETATM   12  C   UNL     1      58.481   6.734   2.480  1.00  0.00     0.236 C 
HETATM   13  C   UNL     1      59.178   4.860   3.813  1.00  0.00     0.269 C 
HETATM   14  H   UNL     1      58.855   4.881   1.788  1.00  0.00     0.279 HD
HETATM   15  C   UNL     1      58.472   7.516   1.158  1.00  0.00     0.055 C 
HETATM   16  C   UNL     1      59.803   8.215   0.854  1.00  0.00     0.237 C 
HETATM   17  H   UNL     1      60.638   7.373  -0.782  1.00  0.00     0.280 HD
ENDBRANCH   7   8
ENDBRANCH   1   7
BRANCH   2  18
HETATM   18  C   UNL     1      62.429  11.359   5.197  1.00  0.00     0.268 C 
BRANCH  18  19
HETATM   19  N   UNL     1      63.639  11.119   5.976  1.00  0.00    -0.075 N 
HETATM   20  H   UNL     1      63.439  11.255   6.966  1.00  0.00     0.274 HD
HETATM   21  H   UNL     1      64.367  11.771   5.684  1.00  0.00     0.274 HD
HETATM   22  H   UNL     1      63.958  10.162   5.822  1.00  0.00     0.274 HD
ENDBRANCH  18  19
ENDBRANCH   2  18
TORSDOF 4
ENDMDL
MODEL 5
REMARK VINA RESULT:      -4.7      1.429      7.298
REMARK  4 active torsions:
REMARK  status: ('A' for Active; 'I' for Inactive)
REMARK    1  A    between atoms: N_1  and  C_3 
REMARK    2  A    between atoms: C_3  and  C_7 
REMARK    3  A    between atoms: C_8  and  C_17 
REMARK    4  A    between atoms: N_11  and  C_17 
ROOT
HETATM    1  C   UNL     1      65.841   7.068   6.104  1.00  0.00    -0.033 A 
HETATM    2  C   UNL     1      67.203   4.835   7.177  1.00  0.00    -0.033 A 
HETATM    3  C   UNL     1      65.222   6.242   7.053  1.00  0.00     0.009 A 
HETATM    4  C   UNL     1      67.135   6.746   5.675  1.00  0.00     0.009 A 
HETATM    5  C   UNL     1      67.810   5.643   6.207  1.00  0.00     0.009 A 
HETATM    6  C   UNL     1      65.896   5.138   7.582  1.00  0.00     0.009 A 
ENDROOT
BRANCH   1   7
HETATM    7  C   UNL     1      65.133   8.295   5.564  1.00  0.00     0.273 C 
BRANCH   7   8
HETATM    8  N   UNL     1      63.783   8.030   5.031  1.00  0.00    -0.066 N 
HETATM    9  C   UNL     1      62.827   9.116   5.291  1.00  0.00     0.263 C 
HETATM   10  C   UNL     1      62.863  10.315   4.322  1.00  0.00     0.262 C 
HETATM   11  N   UNL     1      61.911  10.158   3.209  1.00  0.00    -0.073 N 
HETATM   12  C   UNL     1      62.322   9.139   2.236  1.00  0.00     0.236 C 
HETATM   13  C   UNL     1      61.704  11.442   2.536  1.00  0.00     0.269 C 
HETATM   14  H   UNL     1      61.035   9.836   3.620  1.00  0.00     0.279 HD
HETATM   15  C   UNL     1      62.577   7.732   2.795  1.00  0.00     0.055 C 
HETATM   16  C   UNL     1      63.865   7.627   3.620  1.00  0.00     0.237 C 
HETATM   17  H   UNL     1      63.391   7.241   5.546  1.00  0.00     0.280 HD
ENDBRANCH   7   8
ENDBRANCH   1   7
BRANCH   2  18
HETATM   18  C   UNL     1      67.943   3.668   7.781  1.00  0.00     0.268 C 
BRANCH  18  19
HETATM   19  N   UNL     1      67.340   3.246   9.040  1.00  0.00    -0.075 N 
HETATM   20  H   UNL     1      67.881   3.620   9.819  1.00  0.00     0.274 HD
HETATM   21  H   UNL     1      67.334   2.227   9.090  1.00  0.00     0.274 HD
HETATM   22  H   UNL     1      66.383   3.595   9.093  1.00  0.00     0.274 HD
ENDBRANCH  18  19
ENDBRANCH   2  18
TORSDOF 4
ENDMDL
MODEL 6
REMARK VINA RESULT:      -4.5      1.360      2.567
REMARK  4 active torsions:
REMARK  status: ('A' for Active; 'I' for Inactive)
REMARK    1  A    between atoms: N_1  and  C_3 
REMARK    2  A    between atoms: C_3  and  C_7 
REMARK    3  A    between atoms: C_8  and  C_17 
REMARK    4  A    between atoms: N_11  and  C_17 
ROOT
HETATM    1  C   UNL     1      62.906   6.882   4.309  1.00  0.00    -0.033 A 
HETATM    2  C   UNL     1      62.258   8.975   2.524  1.00  0.00    -0.033 A 
HETATM    3  C   UNL     1      62.502   8.133   4.793  1.00  0.00     0.009 A 
HETATM    4  C   UNL     1      63.014   6.699   2.924  1.00  0.00     0.009 A 
HETATM    5  C   UNL     1      62.692   7.734   2.040  1.00  0.00     0.009 A 
HETATM    6  C   UNL     1      62.182   9.167   3.909  1.00  0.00     0.009 A 
ENDROOT
BRANCH   1   7
HETATM    7  C   UNL     1      63.206   5.741   5.261  1.00  0.00     0.273 C 
BRANCH   7   8
HETATM    8  N   UNL     1      64.631   5.362   5.323  1.00  0.00    -0.066 N 
HETATM    9  C   UNL     1      65.510   6.461   5.749  1.00  0.00     0.263 C 
HETATM   10  C   UNL     1      65.617   6.712   7.266  1.00  0.00     0.262 C 
HETATM   11  N   UNL     1      66.744   5.984   7.872  1.00  0.00    -0.073 N 
HETATM   12  C   UNL     1      66.520   4.536   7.954  1.00  0.00     0.236 C 
HETATM   13  C   UNL     1      67.039   6.524   9.202  1.00  0.00     0.269 C 
HETATM   14  H   UNL     1      67.544   6.123   7.256  1.00  0.00     0.279 HD
HETATM   15  C   UNL     1      66.199   3.823   6.633  1.00  0.00     0.055 C 
HETATM   16  C   UNL     1      64.793   4.127   6.102  1.00  0.00     0.237 C 
HETATM   17  H   UNL     1      64.944   5.162   4.373  1.00  0.00     0.280 HD
ENDBRANCH   7   8
ENDBRANCH   1   7
BRANCH   2  18
HETATM   18  C   UNL     1      61.872  10.080   1.573  1.00  0.00     0.268 C 
BRANCH  18  19
HETATM   19  N   UNL     1      61.610  11.329   2.280  1.00  0.00    -0.075 N 
HETATM   20  H   UNL     1      60.754  11.237   2.826  1.00  0.00     0.274 HD
HETATM   21  H   UNL     1      61.503  12.086   1.607  1.00  0.00     0.274 HD
HETATM   22  H   UNL     1      62.390  11.536   2.905  1.00  0.00     0.274 HD
ENDBRANCH  18  19
ENDBRANCH   2  18
TORSDOF 4
ENDMDL
MODEL 7
REMARK VINA RESULT:      -4.2      1.632      2.153
REMARK  4 active torsions:
REMARK  status: ('A' for Active; 'I' for Inactive)
REMARK    1  A    between atoms: N_1  and  C_3 
REMARK    2  A    between atoms: C_3  and  C_7 
REMARK    3  A    between atoms: C_8  and  C_17 
REMARK    4  A    between atoms: N_11  and  C_17 
ROOT
HETATM    1  C   UNL     1      63.900   6.835   4.637  1.00  0.00    -0.033 A 
HETATM    2  C   UNL     1      62.720   9.352   4.125  1.00  0.00    -0.033 A 
HETATM    3  C   UNL     1      64.448   8.004   5.182  1.00  0.00     0.009 A 
HETATM    4  C   UNL     1      62.777   6.942   3.807  1.00  0.00     0.009 A 
HETATM    5  C   UNL     1      62.191   8.186   3.555  1.00  0.00     0.009 A 
HETATM    6  C   UNL     1      63.864   9.248   4.928  1.00  0.00     0.009 A 
ENDROOT
BRANCH   1   7
HETATM    7  C   UNL     1      64.499   5.478   4.951  1.00  0.00     0.273 C 
BRANCH   7   8
HETATM    8  N   UNL     1      64.864   5.290   6.368  1.00  0.00    -0.066 N 
HETATM    9  C   UNL     1      64.206   4.132   6.993  1.00  0.00     0.263 C 
HETATM   10  C   UNL     1      64.854   2.755   6.749  1.00  0.00     0.262 C 
HETATM   11  N   UNL     1      65.811   2.395   7.810  1.00  0.00    -0.073 N 
HETATM   12  C   UNL     1      67.051   3.179   7.761  1.00  0.00     0.236 C 
HETATM   13  C   UNL     1      66.117   0.964   7.751  1.00  0.00     0.269 C 
HETATM   14  H   UNL     1      65.358   2.618   8.696  1.00  0.00     0.279 HD
HETATM   15  C   UNL     1      66.891   4.705   7.814  1.00  0.00     0.055 C 
HETATM   16  C   UNL     1      66.325   5.305   6.521  1.00  0.00     0.237 C 
HETATM   17  H   UNL     1      64.497   6.083   6.894  1.00  0.00     0.280 HD
ENDBRANCH   7   8
ENDBRANCH   1   7
BRANCH   2  18
HETATM   18  C   UNL     1      62.069  10.691   3.886  1.00  0.00     0.268 C 
BRANCH  18  19
HETATM   19  N   UNL     1      62.395  11.641   4.943  1.00  0.00    -0.075 N 
HETATM   20  H   UNL     1      61.760  12.437   4.894  1.00  0.00     0.274 HD
HETATM   21  H   UNL     1      63.355  11.965   4.825  1.00  0.00     0.274 HD
HETATM   22  H   UNL     1      62.299  11.185   5.851  1.00  0.00     0.274 HD
ENDBRANCH  18  19
ENDBRANCH   2  18
TORSDOF 4
ENDMDL
MODEL 8
REMARK VINA RESULT:      -4.2      4.295      5.496
REMARK  4 active torsions:
REMARK  status: ('A' for Active; 'I' for Inactive)
REMARK    1  A    between atoms: N_1  and  C_3 
REMARK    2  A    between atoms: C_3  and  C_7 
REMARK    3  A    between atoms: C_8  and  C_17 
REMARK    4  A    between atoms: N_11  and  C_17 
ROOT
HETATM    1  C   UNL     1      59.962   6.530   4.360  1.00  0.00    -0.033 A 
HETATM    2  C   UNL     1      57.205   6.316   4.945  1.00  0.00    -0.033 A 
HETATM    3  C   UNL     1      59.039   7.417   3.788  1.00  0.00     0.009 A 
HETATM    4  C   UNL     1      59.486   5.516   5.201  1.00  0.00     0.009 A 
HETATM    5  C   UNL     1      58.123   5.410   5.492  1.00  0.00     0.009 A 
HETATM    6  C   UNL     1      57.677   7.310   4.078  1.00  0.00     0.009 A 
ENDROOT
BRANCH   1   7
HETATM    7  C   UNL     1      61.447   6.673   4.089  1.00  0.00     0.273 C 
BRANCH   7   8
HETATM    8  N   UNL     1      62.110   7.723   4.887  1.00  0.00    -0.066 N 
HETATM    9  C   UNL     1      62.446   7.294   6.253  1.00  0.00     0.263 C 
HETATM   10  C   UNL     1      63.749   6.486   6.422  1.00  0.00     0.262 C 
HETATM   11  N   UNL     1      64.900   7.348   6.738  1.00  0.00    -0.073 N 
HETATM   12  C   UNL     1      65.347   8.156   5.597  1.00  0.00     0.236 C 
HETATM   13  C   UNL     1      66.011   6.541   7.248  1.00  0.00     0.269 C 
HETATM   14  H   UNL     1      64.586   8.001   7.455  1.00  0.00     0.279 HD
HETATM   15  C   UNL     1      64.289   9.061   4.950  1.00  0.00     0.055 C 
HETATM   16  C   UNL     1      63.240   8.289   4.139  1.00  0.00     0.237 C 
HETATM   17  H   UNL     1      61.438   8.476   5.034  1.00  0.00     0.280 HD
ENDBRANCH   7   8
ENDBRANCH   1   7
BRANCH   2  18
HETATM   18  C   UNL     1      55.739   6.229   5.288  1.00  0.00     0.268 C 
BRANCH  18  19
HETATM   19  N   UNL     1      54.914   6.111   4.090  1.00  0.00    -0.075 N 
HETATM   20  H   UNL     1      53.930   6.108   4.354  1.00  0.00     0.274 HD
HETATM   21  H   UNL     1      55.139   5.242   3.607  1.00  0.00     0.274 HD
HETATM   22  H   UNL     1      55.098   6.902   3.472  1.00  0.00     0.274 HD
ENDBRANCH  18  19
ENDBRANCH   2  18
TORSDOF 4
ENDMDL
MODEL 9
REMARK VINA RESULT:      -4.1      3.084      7.551
REMARK  4 active torsions:
REMARK  status: ('A' for Active; 'I' for Inactive)
REMARK    1  A    between atoms: N_1  and  C_3 
REMARK    2  A    between atoms: C_3  and  C_7 
REMARK    3  A    between atoms: C_8  and  C_17 
REMARK    4  A    between atoms: N_11  and  C_17 
ROOT
HETATM    1  C   UNL     1      63.581   7.638   3.337  1.00  0.00    -0.033 A 
HETATM    2  C   UNL     1      65.552   8.014   5.327  1.00  0.00    -0.033 A 
HETATM    3  C   UNL     1      63.524   8.742   4.199  1.00  0.00     0.009 A 
HETATM    4  C   UNL     1      64.615   6.708   3.503  1.00  0.00     0.009 A 
HETATM    5  C   UNL     1      65.592   6.894   4.486  1.00  0.00     0.009 A 
HETATM    6  C   UNL     1      64.499   8.927   5.182  1.00  0.00     0.009 A 
ENDROOT
BRANCH   1   7
HETATM    7  C   UNL     1      62.554   7.460   2.235  1.00  0.00     0.273 C 
BRANCH   7   8
HETATM    8  N   UNL     1      61.185   7.858   2.613  1.00  0.00    -0.066 N 
HETATM    9  C   UNL     1      60.304   8.092   1.460  1.00  0.00     0.263 C 
HETATM   10  C   UNL     1      59.655   6.847   0.822  1.00  0.00     0.262 C 
HETATM   11  N   UNL     1      58.327   6.561   1.388  1.00  0.00    -0.073 N 
HETATM   12  C   UNL     1      58.383   6.041   2.760  1.00  0.00     0.236 C 
HETATM   13  C   UNL     1      57.599   5.627   0.525  1.00  0.00     0.269 C 
HETATM   14  H   UNL     1      57.832   7.451   1.432  1.00  0.00     0.279 HD
HETATM   15  C   UNL     1      59.117   6.914   3.787  1.00  0.00     0.055 C 
HETATM   16  C   UNL     1      60.640   6.921   3.605  1.00  0.00     0.237 C 
HETATM   17  H   UNL     1      61.236   8.773   3.061  1.00  0.00     0.280 HD
ENDBRANCH   7   8
ENDBRANCH   1   7
BRANCH   2  18
HETATM   18  C   UNL     1      66.625   8.239   6.362  1.00  0.00     0.268 C 
BRANCH  18  19
HETATM   19  N   UNL     1      67.869   7.569   5.998  1.00  0.00    -0.075 N 
HETATM   20  H   UNL     1      67.895   7.425   4.990  1.00  0.00     0.274 HD
HETATM   21  H   UNL     1      67.923   6.668   6.473  1.00  0.00     0.274 HD
HETATM   22  H   UNL     1      68.662   8.149   6.279  1.00  0.00     0.274 HD
ENDBRANCH  18  19
ENDBRANCH   2  18
TORSDOF 4
ENDMDL
