MODEL 1
REMARK VINA RESULT:      -5.0      0.000      0.000
REMARK  3 active torsions:
REMARK  status: ('A' for Active; 'I' for Inactive)
REMARK    1  A    between atoms: N_1  and  C_2 
REMARK    2  A    between atoms: C_2  and  C_3 
REMARK    3  A    between atoms: C_5  and  N_6 
ROOT
HETATM    1  C   UNL     1      63.579   8.856   4.526  1.00  0.00    -0.030 A 
HETATM    2  C   UNL     1      62.852   8.777   3.326  1.00  0.00     0.037 A 
HETATM    3  C   UNL     1      61.980   9.803   2.934  1.00  0.00     0.026 A 
HETATM    4  C   UNL     1      62.578  11.027   4.942  1.00  0.00     0.003 A 
HETATM    5  C   UNL     1      63.419   9.988   5.337  1.00  0.00     0.009 A 
HETATM    6  C   UNL     1      61.889  10.946   3.732  1.00  0.00     0.029 A 
ENDROOT
BRANCH   1   7
HETATM    7  C   UNL     1      64.572   7.775   4.904  1.00  0.00     0.273 C 
BRANCH   7   8
HETATM    8  N   UNL     1      65.110   7.877   6.271  1.00  0.00    -0.067 N 
HETATM    9  C   UNL     1      66.552   8.168   6.318  1.00  0.00     0.235 C 
HETATM   10  C   UNL     1      67.246   6.828   6.164  1.00  0.00     0.029 C 
HETATM   11  C   UNL     1      66.314   5.856   6.864  1.00  0.00     0.029 C 
HETATM   12  C   UNL     1      64.976   6.584   6.971  1.00  0.00     0.235 C 
HETATM   13  H   UNL     1      64.580   8.636   6.700  1.00  0.00     0.280 HD
ENDBRANCH   7   8
ENDBRANCH   1   7
BRANCH   3  14
HETATM   14  N   UNL     1      61.415   9.799   1.651  1.00  0.00    -0.399 N 
HETATM   15  H   UNL     1      61.317  10.643   1.153  1.00  0.00     0.156 HD
HETATM   16  H   UNL     1      61.117   8.951   1.248  1.00  0.00     0.156 HD
ENDBRANCH   3  14
TORSDOF 3
ENDMDL
MODEL 2
REMARK VINA RESULT:      -4.7      1.480      2.273
REMARK  3 active torsions:
REMARK  status: ('A' for Active; 'I' for Inactive)
REMARK    1  A    between atoms: N_1  and  C_2 
REMARK    2  A    between atoms: C_2  and  C_3 
REMARK    3  A    between atoms: C_5  and  N_6 
ROOT
HETATM    1  C   UNL     1      62.538   8.322   3.733  1.00  0.00    -0.030 A 
HETATM    2  C   UNL     1      62.242   9.694   3.671  1.00  0.00     0.037 A 
HETATM    3  C   UNL     1      62.009  10.334   2.446  1.00  0.00     0.026 A 
HETATM    4  C   UNL     1      62.338   8.211   1.318  1.00  0.00     0.003 A 
HETATM    5  C   UNL     1      62.599   7.591   2.539  1.00  0.00     0.009 A 
HETATM    6  C   UNL     1      62.015   9.567   1.278  1.00  0.00     0.029 A 
ENDROOT
BRANCH   1   7
HETATM    7  C   UNL     1      62.717   7.626   5.068  1.00  0.00     0.273 C 
BRANCH   7   8
HETATM    8  N   UNL     1      63.928   8.011   5.812  1.00  0.00    -0.067 N 
HETATM    9  C   UNL     1      65.084   8.300   4.950  1.00  0.00     0.235 C 
HETATM   10  C   UNL     1      65.719   6.955   4.651  1.00  0.00     0.029 C 
HETATM   11  C   UNL     1      65.487   6.156   5.919  1.00  0.00     0.029 C 
HETATM   12  C   UNL     1      64.379   6.894   6.667  1.00  0.00     0.235 C 
HETATM   13  H   UNL     1      63.655   8.845   6.333  1.00  0.00     0.280 HD
ENDBRANCH   7   8
ENDBRANCH   1   7
BRANCH   3  14
HETATM   14  N   UNL     1      61.528  11.650   2.416  1.00  0.00    -0.399 N 
HETATM   15  H   UNL     1      60.796  11.921   3.017  1.00  0.00     0.156 HD
HETATM   16  H   UNL     1      61.922  12.305   1.795  1.00  0.00     0.156 HD
ENDBRANCH   3  14
TORSDOF 3
ENDMDL
MODEL 3
REMARK VINA RESULT:      -4.6      2.430      5.644
REMARK  3 active torsions:
REMARK  status: ('A' for Active; 'I' for Inactive)
REMARK    1  A    between atoms: N_1  and  C_2 
REMARK    2  A    between atoms: C_2  and  C_3 
REMARK    3  A    between atoms: C_5  and  N_6 
ROOT
HETATM    1  C   UNL     1      62.178   9.285   2.858  1.00  0.00    -0.030 A 
HETATM    2  C   UNL     1      63.058   8.562   3.682  1.00  0.00     0.037 A 
HETATM    3  C   UNL     1      63.561   9.113   4.869  1.00  0.00     0.026 A 
HETATM    4  C   UNL     1      62.276  11.124   4.437  1.00  0.00     0.003 A 
HETATM    5  C   UNL     1      61.805  10.579   3.243  1.00  0.00     0.009 A 
HETATM    6  C   UNL     1      63.122  10.381   5.258  1.00  0.00     0.029 A 
ENDROOT
BRANCH   1   7
HETATM    7  C   UNL     1      61.584   8.653   1.615  1.00  0.00     0.273 C 
BRANCH   7   8
HETATM    8  N   UNL     1      60.119   8.507   1.631  1.00  0.00    -0.067 N 
HETATM    9  C   UNL     1      59.629   7.584   2.665  1.00  0.00     0.235 C 
HETATM   10  C   UNL     1      59.742   6.195   2.063  1.00  0.00     0.029 C 
HETATM   11  C   UNL     1      59.461   6.418   0.588  1.00  0.00     0.029 C 
HETATM   12  C   UNL     1      59.650   7.916   0.361  1.00  0.00     0.235 C 
HETATM   13  H   UNL     1      59.769   9.450   1.801  1.00  0.00     0.280 HD
ENDBRANCH   7   8
ENDBRANCH   1   7
BRANCH   3  14
HETATM   14  N   UNL     1      64.278   8.313   5.770  1.00  0.00    -0.399 N 
HETATM   15  H   UNL     1      63.815   7.607   6.278  1.00  0.00     0.156 HD
HETATM   16  H   UNL     1      65.244   8.457   5.895  1.00  0.00     0.156 HD
ENDBRANCH   3  14
TORSDOF 3
ENDMDL
MODEL 4
REMARK VINA RESULT:      -4.6      1.956      2.459
REMARK  3 active torsions:
REMARK  status: ('A' for Active; 'I' for Inactive)
REMARK    1  A    between atoms: N_1  and  C_2 
REMARK    2  A    between atoms: C_2  and  C_3 
REMARK    3  A    between atoms: C_5  and  N_6 
ROOT
HETATM    1  C   UNL     1      63.623   8.380   4.063  1.00  0.00    -0.030 A 
HETATM    2  C   UNL     1      63.892   9.302   5.088  1.00  0.00     0.037 A 
HETATM    3  C   UNL     1      63.202  10.519   5.171  1.00  0.00     0.026 A 
HETATM    4  C   UNL     1      61.928   9.889   3.206  1.00  0.00     0.003 A 
HETATM    5  C   UNL     1      62.642   8.696   3.113  1.00  0.00     0.009 A 
HETATM    6  C   UNL     1      62.187  10.778   4.247  1.00  0.00     0.029 A 
ENDROOT
BRANCH   1   7
HETATM    7  C   UNL     1      64.325   7.037   4.023  1.00  0.00     0.273 C 
BRANCH   7   8
HETATM    8  N   UNL     1      65.506   6.926   4.897  1.00  0.00    -0.067 N 
HETATM    9  C   UNL     1      66.780   6.873   4.164  1.00  0.00     0.235 C 
HETATM   10  C   UNL     1      66.963   5.421   3.764  1.00  0.00     0.029 C 
HETATM   11  C   UNL     1      66.341   4.649   4.913  1.00  0.00     0.029 C 
HETATM   12  C   UNL     1      65.466   5.658   5.652  1.00  0.00     0.235 C 
HETATM   13  H   UNL     1      65.468   7.758   5.485  1.00  0.00     0.280 HD
ENDBRANCH   7   8
ENDBRANCH   1   7
BRANCH   3  14
HETATM   14  N   UNL     1      63.344  11.336   6.302  1.00  0.00    -0.399 N 
HETATM   15  H   UNL     1      64.243  11.561   6.637  1.00  0.00     0.156 HD
HETATM   16  H   UNL     1      62.546  11.686   6.760  1.00  0.00     0.156 HD
ENDBRANCH   3  14
TORSDOF 3
ENDMDL
MODEL 5
REMARK VINA RESULT:      -4.6      1.292      2.127
REMARK  3 active torsions:
REMARK  status: ('A' for Active; 'I' for Inactive)
REMARK    1  A    between atoms: N_1  and  C_2 
REMARK    2  A    between atoms: C_2  and  C_3 
REMARK    3  A    between atoms: C_5  and  N_6 
ROOT
HETATM    1  C   UNL     1      64.018   7.727   5.016  1.00  0.00    -0.030 A 
HETATM    2  C   UNL     1      63.450   9.009   5.096  1.00  0.00     0.037 A 
HETATM    3  C   UNL     1      62.779   9.577   4.003  1.00  0.00     0.026 A 
HETATM    4  C   UNL     1      63.211   7.555   2.734  1.00  0.00     0.003 A 
HETATM    5  C   UNL     1      63.903   7.013   3.816  1.00  0.00     0.009 A 
HETATM    6  C   UNL     1      62.627   8.816   2.842  1.00  0.00     0.029 A 
ENDROOT
BRANCH   1   7
HETATM    7  C   UNL     1      64.678   7.094   6.225  1.00  0.00     0.273 C 
BRANCH   7   8
HETATM    8  N   UNL     1      65.912   7.759   6.678  1.00  0.00    -0.067 N 
HETATM    9  C   UNL     1      66.941   7.871   5.633  1.00  0.00     0.235 C 
HETATM   10  C   UNL     1      67.677   6.544   5.637  1.00  0.00     0.029 C 
HETATM   11  C   UNL     1      67.655   6.124   7.096  1.00  0.00     0.029 C 
HETATM   12  C   UNL     1      66.558   6.966   7.743  1.00  0.00     0.235 C 
HETATM   13  H   UNL     1      65.609   8.685   6.979  1.00  0.00     0.280 HD
ENDBRANCH   7   8
ENDBRANCH   1   7
BRANCH   3  14
HETATM   14  N   UNL     1      62.055  10.768   4.160  1.00  0.00    -0.399 N 
HETATM   15  H   UNL     1      61.387  10.847   4.879  1.00  0.00     0.156 HD
HETATM   16  H   UNL     1      62.216  11.525   3.551  1.00  0.00     0.156 HD
ENDBRANCH   3  14
TORSDOF 3
ENDMDL
MODEL 6
REMARK VINA RESULT:      -4.4      1.803      5.880
REMARK  3 active torsions:
REMARK  status: ('A' for Active; 'I' for Inactive)
REMARK    1  A    between atoms: N_1  and  C_2 
REMARK    2  A    between atoms: C_2  and  C_3 
REMARK    3  A    between atoms: C_5  and  N_6 
ROOT
HETATM    1  C   UNL     1      66.001   7.511   5.634  1.00  0.00    -0.030 A 
HETATM    2  C   UNL     1      66.399   7.474   6.980  1.00  0.00     0.037 A 
HETATM    3  C   UNL     1      67.257   6.473   7.457  1.00  0.00     0.026 A 
HETATM    4  C   UNL     1      67.357   5.543   5.219  1.00  0.00     0.003 A 
HETATM    5  C   UNL     1      66.479   6.524   4.762  1.00  0.00     0.009 A 
HETATM    6  C   UNL     1      67.767   5.540   6.551  1.00  0.00     0.029 A 
ENDROOT
BRANCH   1   7
HETATM    7  C   UNL     1      65.130   8.638   5.113  1.00  0.00     0.273 C 
BRANCH   7   8
HETATM    8  N   UNL     1      63.768   8.680   5.673  1.00  0.00    -0.067 N 
HETATM    9  C   UNL     1      62.906   7.580   5.214  1.00  0.00     0.235 C 
HETATM   10  C   UNL     1      62.349   8.027   3.875  1.00  0.00     0.029 C 
HETATM   11  C   UNL     1      62.199   9.529   4.029  1.00  0.00     0.029 C 
HETATM   12  C   UNL     1      63.070   9.902   5.226  1.00  0.00     0.235 C 
HETATM   13  H   UNL     1      63.904   8.629   6.683  1.00  0.00     0.280 HD
ENDBRANCH   7   8
ENDBRANCH   1   7
BRANCH   3  14
HETATM   14  N   UNL     1      67.796   6.560   8.749  1.00  0.00    -0.399 N 
HETATM   15  H   UNL     1      67.830   5.762   9.324  1.00  0.00     0.156 HD
HETATM   16  H   UNL     1      68.140   7.421   9.081  1.00  0.00     0.156 HD
ENDBRANCH   3  14
TORSDOF 3
ENDMDL
MODEL 7
REMARK VINA RESULT:      -4.2      1.762      2.133
REMARK  3 active torsions:
REMARK  status: ('A' for Active; 'I' for Inactive)
REMARK    1  A    between atoms: N_1  and  C_2 
REMARK    2  A    between atoms: C_2  and  C_3 
REMARK    3  A    between atoms: C_5  and  N_6 
ROOT
HETATM    1  C   UNL     1      63.200   8.892   4.246  1.00  0.00    -0.030 A 
HETATM    2  C   UNL     1      62.473   9.420   3.166  1.00  0.00     0.037 A 
HETATM    3  C   UNL     1      61.920  10.707   3.221  1.00  0.00     0.026 A 
HETATM    4  C   UNL     1      62.849  10.971   5.446  1.00  0.00     0.003 A 
HETATM    5  C   UNL     1      63.368   9.679   5.394  1.00  0.00     0.009 A 
HETATM    6  C   UNL     1      62.158  11.491   4.353  1.00  0.00     0.029 A 
ENDROOT
BRANCH   1   7
HETATM    7  C   UNL     1      63.853   7.528   4.149  1.00  0.00     0.273 C 
BRANCH   7   8
HETATM    8  N   UNL     1      63.123   6.439   4.821  1.00  0.00    -0.067 N 
HETATM    9  C   UNL     1      63.616   6.146   6.176  1.00  0.00     0.235 C 
HETATM   10  C   UNL     1      64.798   5.213   5.990  1.00  0.00     0.029 C 
HETATM   11  C   UNL     1      64.418   4.389   4.773  1.00  0.00     0.029 C 
HETATM   12  C   UNL     1      63.303   5.172   4.085  1.00  0.00     0.235 C 
HETATM   13  H   UNL     1      62.157   6.763   4.857  1.00  0.00     0.280 HD
ENDBRANCH   7   8
ENDBRANCH   1   7
BRANCH   3  14
HETATM   14  N   UNL     1      61.367  11.288   2.070  1.00  0.00    -0.399 N 
HETATM   15  H   UNL     1      60.863  12.131   2.138  1.00  0.00     0.156 HD
HETATM   16  H   UNL     1      61.485  10.853   1.195  1.00  0.00     0.156 HD
ENDBRANCH   3  14
TORSDOF 3
ENDMDL
MODEL 8
REMARK VINA RESULT:      -4.1      2.721      3.246
REMARK  3 active torsions:
REMARK  status: ('A' for Active; 'I' for Inactive)
REMARK    1  A    between atoms: N_1  and  C_2 
REMARK    2  A    between atoms: C_2  and  C_3 
REMARK    3  A    between atoms: C_5  and  N_6 
ROOT
HETATM    1  C   UNL     1      62.972   8.744   3.696  1.00  0.00    -0.030 A 
HETATM    2  C   UNL     1      62.316   9.566   2.765  1.00  0.00     0.037 A 
HETATM    3  C   UNL     1      61.919  10.869   3.099  1.00  0.00     0.026 A 
HETATM    4  C   UNL     1      62.866  10.552   5.310  1.00  0.00     0.003 A 
HETATM    5  C   UNL     1      63.228   9.248   4.978  1.00  0.00     0.009 A 
HETATM    6  C   UNL     1      62.244  11.366   4.363  1.00  0.00     0.029 A 
ENDROOT
BRANCH   1   7
HETATM    7  C   UNL     1      63.460   7.363   3.303  1.00  0.00     0.273 C 
BRANCH   7   8
HETATM    8  N   UNL     1      62.401   6.352   3.144  1.00  0.00    -0.067 N 
HETATM    9  C   UNL     1      61.739   5.985   4.406  1.00  0.00     0.235 C 
HETATM   10  C   UNL     1      62.626   4.931   5.043  1.00  0.00     0.029 C 
HETATM   11  C   UNL     1      63.193   4.172   3.857  1.00  0.00     0.029 C 
HETATM   12  C   UNL     1      62.975   5.084   2.652  1.00  0.00     0.235 C 
HETATM   13  H   UNL     1      61.732   6.778   2.503  1.00  0.00     0.280 HD
ENDBRANCH   7   8
ENDBRANCH   1   7
BRANCH   3  14
HETATM   14  N   UNL     1      61.443  11.738   2.107  1.00  0.00    -0.399 N 
HETATM   15  H   UNL     1      60.798  11.415   1.436  1.00  0.00     0.156 HD
HETATM   16  H   UNL     1      61.752  12.673   2.082  1.00  0.00     0.156 HD
ENDBRANCH   3  14
TORSDOF 3
ENDMDL
MODEL 9
REMARK VINA RESULT:      -3.9      3.602      6.442
REMARK  3 active torsions:
REMARK  status: ('A' for Active; 'I' for Inactive)
REMARK    1  A    between atoms: N_1  and  C_2 
REMARK    2  A    between atoms: C_2  and  C_3 
REMARK    3  A    between atoms: C_5  and  N_6 
ROOT
HETATM    1  C   UNL     1      61.066   7.691   3.916  1.00  0.00    -0.030 A 
HETATM    2  C   UNL     1      61.872   7.188   4.951  1.00  0.00     0.037 A 
HETATM    3  C   UNL     1      63.016   7.874   5.382  1.00  0.00     0.026 A 
HETATM    4  C   UNL     1      62.543   9.610   3.755  1.00  0.00     0.003 A 
HETATM    5  C   UNL     1      61.425   8.904   3.313  1.00  0.00     0.009 A 
HETATM    6  C   UNL     1      63.313   9.111   4.805  1.00  0.00     0.029 A 
ENDROOT
BRANCH   1   7
HETATM    7  C   UNL     1      59.793   6.978   3.506  1.00  0.00     0.273 C 
BRANCH   7   8
HETATM    8  N   UNL     1      58.639   7.859   3.259  1.00  0.00    -0.067 N 
HETATM    9  C   UNL     1      57.633   7.831   4.331  1.00  0.00     0.235 C 
HETATM   10  C   UNL     1      56.754   6.629   4.038  1.00  0.00     0.029 C 
HETATM   11  C   UNL     1      56.724   6.565   2.522  1.00  0.00     0.029 C 
HETATM   12  C   UNL     1      57.905   7.414   2.057  1.00  0.00     0.235 C 
HETATM   13  H   UNL     1      59.042   8.792   3.173  1.00  0.00     0.280 HD
ENDBRANCH   7   8
ENDBRANCH   1   7
BRANCH   3  14
HETATM   14  N   UNL     1      63.695   7.459   6.537  1.00  0.00    -0.399 N 
HETATM   15  H   UNL     1      64.391   6.766   6.477  1.00  0.00     0.156 HD
HETATM   16  H   UNL     1      63.475   7.863   7.409  1.00  0.00     0.156 HD
ENDBRANCH   3  14
TORSDOF 3
ENDMDL
