MODEL 1
REMARK VINA RESULT:      -5.1      0.000      0.000
REMARK  3 active torsions:
REMARK  status: ('A' for Active; 'I' for Inactive)
REMARK    1  A    between atoms: N_1  and  C_7 
REMARK    2  A    between atoms: C_7  and  C_8 
REMARK    3  A    between atoms: C_9  and  N_10 
ROOT
HETATM    1  C   UNL     1      63.053   8.556   4.509  1.00  0.00    -0.038 A 
HETATM    2  C   UNL     1      61.946  10.638   2.951  1.00  0.00     0.025 A 
HETATM    3  C   UNL     1      62.336  10.867   4.271  1.00  0.00     0.029 A 
HETATM    4  C   UNL     1      62.165   9.373   2.400  1.00  0.00     0.029 A 
HETATM    5  C   UNL     1      62.859   9.832   5.053  1.00  0.00     0.011 A 
HETATM    6  C   UNL     1      62.691   8.334   3.173  1.00  0.00     0.011 A 
ENDROOT
BRANCH   1   7
HETATM    7  C   UNL     1      63.656   7.453   5.341  1.00  0.00     0.186 C 
BRANCH   7   8
HETATM    8  N   UNL     1      65.107   7.555   5.411  1.00  0.00    -0.299 N 
HETATM    9  N   UNL     1      65.700   8.098   6.495  1.00  0.00    -0.310 N 
HETATM   10  C   UNL     1      67.000   8.050   6.202  1.00  0.00     0.108 A 
ATOM     11  HN  UNL     1      65.258   8.460   7.340  1.00  0.00     0.186 HD
HETATM   12  C   UNL     1      67.244   7.517   4.923  1.00  0.00     0.037 A 
HETATM   13  C   UNL     1      65.996   7.222   4.426  1.00  0.00     0.112 A 
ENDBRANCH   7   8
ENDBRANCH   1   7
BRANCH   2  14
HETATM   14  N   UNL     1      61.565  11.707   2.131  1.00  0.00    -0.399 N 
HETATM   15  H   UNL     1      61.704  12.633   2.434  1.00  0.00     0.156 HD
HETATM   16  H   UNL     1      61.157  11.533   1.253  1.00  0.00     0.156 HD
ENDBRANCH   2  14
TORSDOF 3
ENDMDL
MODEL 2
REMARK VINA RESULT:      -5.0      2.885      5.515
REMARK  3 active torsions:
REMARK  status: ('A' for Active; 'I' for Inactive)
REMARK    1  A    between atoms: N_1  and  C_7 
REMARK    2  A    between atoms: C_7  and  C_8 
REMARK    3  A    between atoms: C_9  and  N_10 
ROOT
HETATM    1  C   UNL     1      62.109   9.571   2.440  1.00  0.00    -0.038 A 
HETATM    2  C   UNL     1      62.749  10.679   4.960  1.00  0.00     0.025 A 
HETATM    3  C   UNL     1      63.142   9.380   4.632  1.00  0.00     0.029 A 
HETATM    4  C   UNL     1      62.082  11.437   3.996  1.00  0.00     0.029 A 
HETATM    5  C   UNL     1      62.804   8.820   3.396  1.00  0.00     0.011 A 
HETATM    6  C   UNL     1      61.743  10.886   2.756  1.00  0.00     0.011 A 
ENDROOT
BRANCH   1   7
HETATM    7  C   UNL     1      61.782   8.980   1.092  1.00  0.00     0.186 C 
BRANCH   7   8
HETATM    8  N   UNL     1      60.622   8.103   1.149  1.00  0.00    -0.299 N 
HETATM    9  N   UNL     1      59.380   8.606   0.987  1.00  0.00    -0.310 N 
HETATM   10  C   UNL     1      58.587   7.543   1.126  1.00  0.00     0.108 A 
ATOM     11  HN  UNL     1      59.110   9.572   0.803  1.00  0.00     0.186 HD
HETATM   12  C   UNL     1      59.307   6.369   1.414  1.00  0.00     0.037 A 
HETATM   13  C   UNL     1      60.623   6.766   1.442  1.00  0.00     0.112 A 
ENDBRANCH   7   8
ENDBRANCH   1   7
BRANCH   2  14
HETATM   14  N   UNL     1      63.217  11.284   6.133  1.00  0.00    -0.399 N 
HETATM   15  H   UNL     1      63.854  10.807   6.712  1.00  0.00     0.156 HD
HETATM   16  H   UNL     1      62.909  12.186   6.378  1.00  0.00     0.156 HD
ENDBRANCH   2  14
TORSDOF 3
ENDMDL
MODEL 3
REMARK VINA RESULT:      -5.0      0.137      1.340
REMARK  3 active torsions:
REMARK  status: ('A' for Active; 'I' for Inactive)
REMARK    1  A    between atoms: N_1  and  C_7 
REMARK    2  A    between atoms: C_7  and  C_8 
REMARK    3  A    between atoms: C_9  and  N_10 
ROOT
HETATM    1  C   UNL     1      63.089   8.697   4.579  1.00  0.00    -0.038 A 
HETATM    2  C   UNL     1      62.023  10.736   2.938  1.00  0.00     0.025 A 
HETATM    3  C   UNL     1      62.167   9.434   2.454  1.00  0.00     0.029 A 
HETATM    4  C   UNL     1      62.365  10.994   4.267  1.00  0.00     0.029 A 
HETATM    5  C   UNL     1      62.720   8.429   3.255  1.00  0.00     0.011 A 
HETATM    6  C   UNL     1      62.914   9.995   5.076  1.00  0.00     0.011 A 
ENDROOT
BRANCH   1   7
HETATM    7  C   UNL     1      63.645   7.601   5.454  1.00  0.00     0.186 C 
BRANCH   7   8
HETATM    8  N   UNL     1      65.100   7.627   5.499  1.00  0.00    -0.299 N 
HETATM    9  N   UNL     1      65.739   8.134   6.575  1.00  0.00    -0.310 N 
HETATM   10  C   UNL     1      67.029   8.019   6.260  1.00  0.00     0.108 A 
ATOM     11  HN  UNL     1      65.330   8.515   7.428  1.00  0.00     0.186 HD
HETATM   12  C   UNL     1      67.224   7.479   4.975  1.00  0.00     0.037 A 
HETATM   13  C   UNL     1      65.955   7.252   4.498  1.00  0.00     0.112 A 
ENDBRANCH   7   8
ENDBRANCH   1   7
BRANCH   2  14
HETATM   14  N   UNL     1      61.335  11.697   2.187  1.00  0.00    -0.399 N 
HETATM   15  H   UNL     1      61.280  11.610   1.208  1.00  0.00     0.156 HD
HETATM   16  H   UNL     1      60.906  12.459   2.638  1.00  0.00     0.156 HD
ENDBRANCH   2  14
TORSDOF 3
ENDMDL
MODEL 4
REMARK VINA RESULT:      -4.5      1.837      2.294
REMARK  3 active torsions:
REMARK  status: ('A' for Active; 'I' for Inactive)
REMARK    1  A    between atoms: N_1  and  C_7 
REMARK    2  A    between atoms: C_7  and  C_8 
REMARK    3  A    between atoms: C_9  and  N_10 
ROOT
HETATM    1  C   UNL     1      64.853   8.002   4.685  1.00  0.00    -0.038 A 
HETATM    2  C   UNL     1      62.272   8.941   4.018  1.00  0.00     0.025 A 
HETATM    3  C   UNL     1      63.060   9.623   4.946  1.00  0.00     0.029 A 
HETATM    4  C   UNL     1      62.808   7.816   3.386  1.00  0.00     0.029 A 
HETATM    5  C   UNL     1      64.327   9.147   5.298  1.00  0.00     0.011 A 
HETATM    6  C   UNL     1      64.075   7.335   3.729  1.00  0.00     0.011 A 
ENDROOT
BRANCH   1   7
HETATM    7  C   UNL     1      66.236   7.515   5.035  1.00  0.00     0.186 C 
BRANCH   7   8
HETATM    8  N   UNL     1      66.303   6.998   6.395  1.00  0.00    -0.299 N 
HETATM    9  N   UNL     1      67.008   7.656   7.339  1.00  0.00    -0.310 N 
HETATM   10  C   UNL     1      66.868   6.895   8.425  1.00  0.00     0.108 A 
ATOM     11  HN  UNL     1      67.526   8.530   7.245  1.00  0.00     0.186 HD
HETATM   12  C   UNL     1      66.112   5.735   8.176  1.00  0.00     0.037 A 
HETATM   13  C   UNL     1      65.775   5.819   6.846  1.00  0.00     0.112 A 
ENDBRANCH   7   8
ENDBRANCH   1   7
BRANCH   2  14
HETATM   14  N   UNL     1      61.073   9.501   3.560  1.00  0.00    -0.399 N 
HETATM   15  H   UNL     1      60.428   8.947   3.064  1.00  0.00     0.156 HD
HETATM   16  H   UNL     1      60.876  10.450   3.734  1.00  0.00     0.156 HD
ENDBRANCH   2  14
TORSDOF 3
ENDMDL
MODEL 5
REMARK VINA RESULT:      -4.4      1.813      2.815
REMARK  3 active torsions:
REMARK  status: ('A' for Active; 'I' for Inactive)
REMARK    1  A    between atoms: N_1  and  C_7 
REMARK    2  A    between atoms: C_7  and  C_8 
REMARK    3  A    between atoms: C_9  and  N_10 
ROOT
HETATM    1  C   UNL     1      63.216   8.859   4.638  1.00  0.00    -0.038 A 
HETATM    2  C   UNL     1      61.943  10.758   2.975  1.00  0.00     0.025 A 
HETATM    3  C   UNL     1      62.273  11.074   4.294  1.00  0.00     0.029 A 
HETATM    4  C   UNL     1      62.306   9.504   2.479  1.00  0.00     0.029 A 
HETATM    5  C   UNL     1      62.879  10.127   5.127  1.00  0.00     0.011 A 
HETATM    6  C   UNL     1      62.915   8.553   3.304  1.00  0.00     0.011 A 
ENDROOT
BRANCH   1   7
HETATM    7  C   UNL     1      63.907   7.855   5.526  1.00  0.00     0.186 C 
BRANCH   7   8
HETATM    8  N   UNL     1      63.087   6.674   5.752  1.00  0.00    -0.299 N 
HETATM    9  N   UNL     1      61.927   6.771   6.436  1.00  0.00    -0.310 N 
HETATM   10  C   UNL     1      61.473   5.518   6.469  1.00  0.00     0.108 A 
ATOM     11  HN  UNL     1      61.499   7.607   6.835  1.00  0.00     0.186 HD
HETATM   12  C   UNL     1      62.351   4.611   5.846  1.00  0.00     0.037 A 
HETATM   13  C   UNL     1      63.397   5.387   5.407  1.00  0.00     0.112 A 
ENDBRANCH   7   8
ENDBRANCH   1   7
BRANCH   2  14
HETATM   14  N   UNL     1      61.477  11.752   2.106  1.00  0.00    -0.399 N 
HETATM   15  H   UNL     1      62.088  12.161   1.452  1.00  0.00     0.156 HD
HETATM   16  H   UNL     1      60.537  12.042   2.149  1.00  0.00     0.156 HD
ENDBRANCH   2  14
TORSDOF 3
ENDMDL
MODEL 6
REMARK VINA RESULT:      -4.3      2.422      3.721
REMARK  3 active torsions:
REMARK  status: ('A' for Active; 'I' for Inactive)
REMARK    1  A    between atoms: N_1  and  C_7 
REMARK    2  A    between atoms: C_7  and  C_8 
REMARK    3  A    between atoms: C_9  and  N_10 
ROOT
HETATM    1  C   UNL     1      62.714   8.450   3.781  1.00  0.00    -0.038 A 
HETATM    2  C   UNL     1      61.958  10.846   2.487  1.00  0.00     0.025 A 
HETATM    3  C   UNL     1      62.072   9.654   1.769  1.00  0.00     0.029 A 
HETATM    4  C   UNL     1      62.171  10.816   3.866  1.00  0.00     0.029 A 
HETATM    5  C   UNL     1      62.472   8.472   2.402  1.00  0.00     0.011 A 
HETATM    6  C   UNL     1      62.567   9.639   4.508  1.00  0.00     0.011 A 
ENDROOT
BRANCH   1   7
HETATM    7  C   UNL     1      63.104   7.165   4.469  1.00  0.00     0.186 C 
BRANCH   7   8
HETATM    8  N   UNL     1      61.977   6.554   5.159  1.00  0.00    -0.299 N 
HETATM    9  N   UNL     1      61.837   6.699   6.494  1.00  0.00    -0.310 N 
HETATM   10  C   UNL     1      60.737   6.000   6.775  1.00  0.00     0.108 A 
ATOM     11  HN  UNL     1      62.433   7.220   7.137  1.00  0.00     0.186 HD
HETATM   12  C   UNL     1      60.192   5.376   5.637  1.00  0.00     0.037 A 
HETATM   13  C   UNL     1      61.028   5.737   4.608  1.00  0.00     0.112 A 
ENDBRANCH   7   8
ENDBRANCH   1   7
BRANCH   2  14
HETATM   14  N   UNL     1      61.415  11.986   1.881  1.00  0.00    -0.399 N 
HETATM   15  H   UNL     1      60.615  12.413   2.263  1.00  0.00     0.156 HD
HETATM   16  H   UNL     1      61.834  12.360   1.073  1.00  0.00     0.156 HD
ENDBRANCH   2  14
TORSDOF 3
ENDMDL
MODEL 7
REMARK VINA RESULT:      -4.1      1.662      5.317
REMARK  3 active torsions:
REMARK  status: ('A' for Active; 'I' for Inactive)
REMARK    1  A    between atoms: N_1  and  C_7 
REMARK    2  A    between atoms: C_7  and  C_8 
REMARK    3  A    between atoms: C_9  and  N_10 
ROOT
HETATM    1  C   UNL     1      64.044   7.437   4.296  1.00  0.00    -0.038 A 
HETATM    2  C   UNL     1      66.721   7.330   5.197  1.00  0.00     0.025 A 
HETATM    3  C   UNL     1      66.334   6.664   4.032  1.00  0.00     0.029 A 
HETATM    4  C   UNL     1      65.769   8.094   5.875  1.00  0.00     0.029 A 
HETATM    5  C   UNL     1      65.005   6.693   3.598  1.00  0.00     0.011 A 
HETATM    6  C   UNL     1      64.439   8.132   5.447  1.00  0.00     0.011 A 
ENDROOT
BRANCH   1   7
HETATM    7  C   UNL     1      62.620   7.501   3.802  1.00  0.00     0.186 C 
BRANCH   7   8
HETATM    8  N   UNL     1      62.308   8.793   3.209  1.00  0.00    -0.299 N 
HETATM    9  N   UNL     1      62.391   8.965   1.872  1.00  0.00    -0.310 N 
HETATM   10  C   UNL     1      62.068  10.247   1.698  1.00  0.00     0.108 A 
ATOM     11  HN  UNL     1      62.642   8.277   1.162  1.00  0.00     0.186 HD
HETATM   12  C   UNL     1      61.816  10.909   2.914  1.00  0.00     0.037 A 
HETATM   13  C   UNL     1      61.998   9.945   3.878  1.00  0.00     0.112 A 
ENDBRANCH   7   8
ENDBRANCH   1   7
BRANCH   2  14
HETATM   14  N   UNL     1      68.075   7.421   5.542  1.00  0.00    -0.399 N 
HETATM   15  H   UNL     1      68.527   6.656   5.966  1.00  0.00     0.156 HD
HETATM   16  H   UNL     1      68.574   8.250   5.361  1.00  0.00     0.156 HD
ENDBRANCH   2  14
TORSDOF 3
ENDMDL
MODEL 8
REMARK VINA RESULT:      -4.0      1.664      2.072
REMARK  3 active torsions:
REMARK  status: ('A' for Active; 'I' for Inactive)
REMARK    1  A    between atoms: N_1  and  C_7 
REMARK    2  A    between atoms: C_7  and  C_8 
REMARK    3  A    between atoms: C_9  and  N_10 
ROOT
HETATM    1  C   UNL     1      63.647   8.705   4.292  1.00  0.00    -0.038 A 
HETATM    2  C   UNL     1      61.437   8.796   2.532  1.00  0.00     0.025 A 
HETATM    3  C   UNL     1      61.581   9.746   3.545  1.00  0.00     0.029 A 
HETATM    4  C   UNL     1      62.436   7.834   2.373  1.00  0.00     0.029 A 
HETATM    5  C   UNL     1      62.659   9.688   4.434  1.00  0.00     0.011 A 
HETATM    6  C   UNL     1      63.520   7.771   3.255  1.00  0.00     0.011 A 
ENDROOT
BRANCH   1   7
HETATM    7  C   UNL     1      64.831   8.670   5.225  1.00  0.00     0.186 C 
BRANCH   7   8
HETATM    8  N   UNL     1      65.056   7.338   5.768  1.00  0.00    -0.299 N 
HETATM    9  N   UNL     1      66.159   6.640   5.423  1.00  0.00    -0.310 N 
HETATM   10  C   UNL     1      66.019   5.485   6.073  1.00  0.00     0.108 A 
ATOM     11  HN  UNL     1      66.921   6.929   4.809  1.00  0.00     0.186 HD
HETATM   12  C   UNL     1      64.817   5.420   6.801  1.00  0.00     0.037 A 
HETATM   13  C   UNL     1      64.204   6.628   6.569  1.00  0.00     0.112 A 
ENDBRANCH   7   8
ENDBRANCH   1   7
BRANCH   2  14
HETATM   14  N   UNL     1      60.442   8.947   1.558  1.00  0.00    -0.399 N 
HETATM   15  H   UNL     1      60.673   9.300   0.669  1.00  0.00     0.156 HD
HETATM   16  H   UNL     1      59.512   8.700   1.763  1.00  0.00     0.156 HD
ENDBRANCH   2  14
TORSDOF 3
ENDMDL
MODEL 9
REMARK VINA RESULT:      -3.9     12.744     14.441
REMARK  3 active torsions:
REMARK  status: ('A' for Active; 'I' for Inactive)
REMARK    1  A    between atoms: N_1  and  C_7 
REMARK    2  A    between atoms: C_7  and  C_8 
REMARK    3  A    between atoms: C_9  and  N_10 
ROOT
HETATM    1  C   UNL     1      57.250   0.588  13.833  1.00  0.00    -0.038 A 
HETATM    2  C   UNL     1      59.882   0.268  12.856  1.00  0.00     0.025 A 
HETATM    3  C   UNL     1      59.477   1.475  13.427  1.00  0.00     0.029 A 
HETATM    4  C   UNL     1      58.976  -0.794  12.828  1.00  0.00     0.029 A 
HETATM    5  C   UNL     1      58.167   1.646  13.887  1.00  0.00     0.011 A 
HETATM    6  C   UNL     1      57.666  -0.634  13.289  1.00  0.00     0.011 A 
ENDROOT
BRANCH   1   7
HETATM    7  C   UNL     1      55.850   0.761  14.368  1.00  0.00     0.186 C 
BRANCH   7   8
HETATM    8  N   UNL     1      55.229   1.985  13.882  1.00  0.00    -0.299 N 
HETATM    9  N   UNL     1      55.033   3.027  14.719  1.00  0.00    -0.310 N 
HETATM   10  C   UNL     1      54.433   3.939  13.953  1.00  0.00     0.108 A 
ATOM     11  HN  UNL     1      55.284   3.099  15.705  1.00  0.00     0.186 HD
HETATM   12  C   UNL     1      54.208   3.476  12.643  1.00  0.00     0.037 A 
HETATM   13  C   UNL     1      54.717   2.200  12.632  1.00  0.00     0.112 A 
ENDBRANCH   7   8
ENDBRANCH   1   7
BRANCH   2  14
HETATM   14  N   UNL     1      61.229   0.055  12.536  1.00  0.00    -0.399 N 
HETATM   15  H   UNL     1      61.620  -0.844  12.625  1.00  0.00     0.156 HD
HETATM   16  H   UNL     1      61.784   0.804  12.222  1.00  0.00     0.156 HD
ENDBRANCH   2  14
TORSDOF 3
ENDMDL
