MODEL 1
REMARK VINA RESULT:      -5.5      0.000      0.000
REMARK  4 active torsions:
REMARK  status: ('A' for Active; 'I' for Inactive)
REMARK    1  A    between atoms: C_1  and  C_5 
REMARK    2  A    between atoms: C_2  and  C_13 
REMARK    3  A    between atoms: C_3  and  N_4 
REMARK    4  A    between atoms: C_13  and  N_14 
ROOT
HETATM    1  C   UNL     1      65.540   7.707   5.480  1.00  0.00    -0.005 A 
HETATM    2  C   UNL     1      64.937   6.837   6.431  1.00  0.00     0.038 A 
HETATM    3  C   UNL     1      63.327   8.569   4.839  1.00  0.00     0.048 A 
HETATM    4  C   UNL     1      64.720   8.554   4.710  1.00  0.00     0.027 A 
HETATM    5  C   UNL     1      63.535   6.855   6.543  1.00  0.00     0.031 A 
HETATM    6  C   UNL     1      62.739   7.704   5.761  1.00  0.00     0.018 A 
ENDROOT
BRANCH   2   7
HETATM    7  N   UNL     1      65.716   5.964   7.189  1.00  0.00    -0.376 N 
HETATM    8  C   UNL     1      65.384   4.526   7.264  1.00  0.00     0.149 C 
HETATM    9  C   UNL     1      66.646   3.771   7.730  1.00  0.00     0.187 C 
HETATM   10  O   UNL     1      67.141   4.270   8.989  1.00  0.00    -0.388 OA
HETATM   11  C   UNL     1      67.412   5.682   8.910  1.00  0.00     0.187 C 
HETATM   12  C   UNL     1      66.142   6.463   8.518  1.00  0.00     0.149 C 
ENDBRANCH   2   7
BRANCH   1  13
HETATM   13  C   UNL     1      67.027   7.607   5.147  1.00  0.00     0.272 C 
BRANCH  13  14
HETATM   14  N   UNL     1      67.315   6.877   3.899  1.00  0.00    -0.075 N 
HETATM   15  C   UNL     1      67.277   5.436   4.121  1.00  0.00     0.267 C 
HETATM   16  H   UNL     1      68.242   7.139   3.565  1.00  0.00     0.277 HD
HETATM   17  H   UNL     1      66.605   7.120   3.208  1.00  0.00     0.277 HD
ENDBRANCH  13  14
ENDBRANCH   1  13
BRANCH   3  18
HETATM   18  C   UNL     1      62.483   9.477   3.979  1.00  0.00     0.417 C 
HETATM   19  F   UNL     1      62.515  10.784   4.366  1.00  0.00    -0.166 F 
HETATM   20  F   UNL     1      61.167   9.124   3.975  1.00  0.00    -0.166 F 
HETATM   21  F   UNL     1      62.875   9.471   2.674  1.00  0.00    -0.166 F 
ENDBRANCH   3  18
TORSDOF 4
ENDMDL
MODEL 2
REMARK VINA RESULT:      -5.1      2.194      2.946
REMARK  4 active torsions:
REMARK  status: ('A' for Active; 'I' for Inactive)
REMARK    1  A    between atoms: C_1  and  C_5 
REMARK    2  A    between atoms: C_2  and  C_13 
REMARK    3  A    between atoms: C_3  and  N_4 
REMARK    4  A    between atoms: C_13  and  N_14 
ROOT
HETATM    1  C   UNL     1      64.098   6.934   3.366  1.00  0.00    -0.005 A 
HETATM    2  C   UNL     1      64.340   7.652   4.572  1.00  0.00     0.038 A 
HETATM    3  C   UNL     1      62.588   8.715   2.589  1.00  0.00     0.048 A 
HETATM    4  C   UNL     1      63.230   7.485   2.404  1.00  0.00     0.027 A 
HETATM    5  C   UNL     1      63.681   8.882   4.749  1.00  0.00     0.031 A 
HETATM    6  C   UNL     1      62.816   9.407   3.778  1.00  0.00     0.018 A 
ENDROOT
BRANCH   2   7
HETATM    7  N   UNL     1      65.170   7.123   5.559  1.00  0.00    -0.376 N 
HETATM    8  C   UNL     1      64.604   6.579   6.810  1.00  0.00     0.149 C 
HETATM    9  C   UNL     1      65.660   5.652   7.446  1.00  0.00     0.187 C 
HETATM   10  O   UNL     1      66.908   6.335   7.679  1.00  0.00    -0.388 OA
HETATM   11  C   UNL     1      67.419   6.900   6.458  1.00  0.00     0.187 C 
HETATM   12  C   UNL     1      66.407   7.888   5.845  1.00  0.00     0.149 C 
ENDBRANCH   2   7
BRANCH   1  13
HETATM   13  C   UNL     1      64.605   5.506   3.180  1.00  0.00     0.272 C 
BRANCH  13  14
HETATM   14  N   UNL     1      63.670   4.471   3.655  1.00  0.00    -0.075 N 
HETATM   15  C   UNL     1      64.341   3.541   4.557  1.00  0.00     0.267 C 
HETATM   16  H   UNL     1      63.307   3.955   2.854  1.00  0.00     0.277 HD
HETATM   17  H   UNL     1      62.910   4.924   4.161  1.00  0.00     0.277 HD
ENDBRANCH  13  14
ENDBRANCH   1  13
BRANCH   3  18
HETATM   18  C   UNL     1      61.649   9.260   1.541  1.00  0.00     0.417 C 
HETATM   19  F   UNL     1      60.417   8.676   1.554  1.00  0.00    -0.166 F 
HETATM   20  F   UNL     1      62.123   9.098   0.275  1.00  0.00    -0.166 F 
HETATM   21  F   UNL     1      61.423  10.595   1.688  1.00  0.00    -0.166 F 
ENDBRANCH   3  18
TORSDOF 4
ENDMDL
MODEL 3
REMARK VINA RESULT:      -5.1      1.819      3.093
REMARK  4 active torsions:
REMARK  status: ('A' for Active; 'I' for Inactive)
REMARK    1  A    between atoms: C_1  and  C_5 
REMARK    2  A    between atoms: C_2  and  C_13 
REMARK    3  A    between atoms: C_3  and  N_4 
REMARK    4  A    between atoms: C_13  and  N_14 
ROOT
HETATM    1  C   UNL     1      64.789   7.843   5.019  1.00  0.00    -0.005 A 
HETATM    2  C   UNL     1      64.687   6.761   4.100  1.00  0.00     0.038 A 
HETATM    3  C   UNL     1      63.024   9.058   3.811  1.00  0.00     0.048 A 
HETATM    4  C   UNL     1      63.953   8.964   4.853  1.00  0.00     0.027 A 
HETATM    5  C   UNL     1      63.756   6.873   3.052  1.00  0.00     0.031 A 
HETATM    6  C   UNL     1      62.938   8.002   2.904  1.00  0.00     0.018 A 
ENDROOT
BRANCH   2   7
HETATM    7  N   UNL     1      65.520   5.649   4.217  1.00  0.00    -0.376 N 
HETATM    8  C   UNL     1      66.299   5.164   3.060  1.00  0.00     0.149 C 
HETATM    9  C   UNL     1      67.450   4.288   3.596  1.00  0.00     0.187 C 
HETATM   10  O   UNL     1      66.968   3.199   4.408  1.00  0.00    -0.388 OA
HETATM   11  C   UNL     1      66.171   3.688   5.501  1.00  0.00     0.187 C 
HETATM   12  C   UNL     1      64.970   4.504   4.983  1.00  0.00     0.149 C 
ENDBRANCH   2   7
BRANCH   1  13
HETATM   13  C   UNL     1      65.907   7.896   6.058  1.00  0.00     0.272 C 
BRANCH  13  14
HETATM   14  N   UNL     1      65.588   7.204   7.319  1.00  0.00    -0.075 N 
HETATM   15  C   UNL     1      66.785   6.603   7.898  1.00  0.00     0.267 C 
HETATM   16  H   UNL     1      64.903   6.472   7.135  1.00  0.00     0.277 HD
HETATM   17  H   UNL     1      65.213   7.885   7.979  1.00  0.00     0.277 HD
ENDBRANCH  13  14
ENDBRANCH   1  13
BRANCH   3  18
HETATM   18  C   UNL     1      62.161  10.286   3.656  1.00  0.00     0.417 C 
HETATM   19  F   UNL     1      62.254  10.870   2.427  1.00  0.00    -0.166 F 
HETATM   20  F   UNL     1      62.470  11.262   4.554  1.00  0.00    -0.166 F 
HETATM   21  F   UNL     1      60.837  10.019   3.836  1.00  0.00    -0.166 F 
ENDBRANCH   3  18
TORSDOF 4
ENDMDL
MODEL 4
REMARK VINA RESULT:      -4.8      1.626      3.089
REMARK  4 active torsions:
REMARK  status: ('A' for Active; 'I' for Inactive)
REMARK    1  A    between atoms: C_1  and  C_5 
REMARK    2  A    between atoms: C_2  and  C_13 
REMARK    3  A    between atoms: C_3  and  N_4 
REMARK    4  A    between atoms: C_13  and  N_14 
ROOT
HETATM    1  C   UNL     1      63.218   6.690   5.746  1.00  0.00    -0.005 A 
HETATM    2  C   UNL     1      64.579   7.012   6.012  1.00  0.00     0.038 A 
HETATM    3  C   UNL     1      62.941   8.803   4.516  1.00  0.00     0.048 A 
HETATM    4  C   UNL     1      62.434   7.593   5.002  1.00  0.00     0.027 A 
HETATM    5  C   UNL     1      65.073   8.236   5.526  1.00  0.00     0.031 A 
HETATM    6  C   UNL     1      64.271   9.121   4.792  1.00  0.00     0.018 A 
ENDROOT
BRANCH   2   7
HETATM    7  N   UNL     1      65.375   6.155   6.771  1.00  0.00    -0.376 N 
HETATM    8  C   UNL     1      66.153   6.666   7.919  1.00  0.00     0.149 C 
HETATM    9  C   UNL     1      66.509   5.468   8.822  1.00  0.00     0.187 C 
HETATM   10  O   UNL     1      67.227   4.444   8.105  1.00  0.00    -0.388 OA
HETATM   11  C   UNL     1      66.475   3.995   6.962  1.00  0.00     0.187 C 
HETATM   12  C   UNL     1      66.174   5.167   6.008  1.00  0.00     0.149 C 
ENDBRANCH   2   7
BRANCH   1  13
HETATM   13  C   UNL     1      62.545   5.489   6.406  1.00  0.00     0.272 C 
BRANCH  13  14
HETATM   14  N   UNL     1      61.105   5.372   6.113  1.00  0.00    -0.075 N 
HETATM   15  C   UNL     1      60.382   4.850   7.268  1.00  0.00     0.267 C 
HETATM   16  H   UNL     1      60.974   4.740   5.324  1.00  0.00     0.277 HD
HETATM   17  H   UNL     1      60.741   6.298   5.892  1.00  0.00     0.277 HD
ENDBRANCH  13  14
ENDBRANCH   1  13
BRANCH   3  18
HETATM   18  C   UNL     1      62.061   9.752   3.741  1.00  0.00     0.417 C 
HETATM   19  F   UNL     1      62.086  11.031   4.212  1.00  0.00    -0.166 F 
HETATM   20  F   UNL     1      60.751   9.380   3.749  1.00  0.00    -0.166 F 
HETATM   21  F   UNL     1      62.417   9.838   2.428  1.00  0.00    -0.166 F 
ENDBRANCH   3  18
TORSDOF 4
ENDMDL
MODEL 5
REMARK VINA RESULT:      -4.8      2.262      3.328
REMARK  4 active torsions:
REMARK  status: ('A' for Active; 'I' for Inactive)
REMARK    1  A    between atoms: C_1  and  C_5 
REMARK    2  A    between atoms: C_2  and  C_13 
REMARK    3  A    between atoms: C_3  and  N_4 
REMARK    4  A    between atoms: C_13  and  N_14 
ROOT
HETATM    1  C   UNL     1      64.182   7.614   4.282  1.00  0.00    -0.005 A 
HETATM    2  C   UNL     1      64.360   6.392   3.574  1.00  0.00     0.038 A 
HETATM    3  C   UNL     1      62.696   8.445   2.506  1.00  0.00     0.048 A 
HETATM    4  C   UNL     1      63.352   8.609   3.732  1.00  0.00     0.027 A 
HETATM    5  C   UNL     1      63.702   6.244   2.340  1.00  0.00     0.031 A 
HETATM    6  C   UNL     1      62.885   7.252   1.810  1.00  0.00     0.018 A 
ENDROOT
BRANCH   2   7
HETATM    7  N   UNL     1      65.199   5.397   4.076  1.00  0.00    -0.376 N 
HETATM    8  C   UNL     1      66.522   5.148   3.470  1.00  0.00     0.149 C 
HETATM    9  C   UNL     1      67.380   4.384   4.498  1.00  0.00     0.187 C 
HETATM   10  O   UNL     1      66.751   3.159   4.924  1.00  0.00    -0.388 OA
HETATM   11  C   UNL     1      65.443   3.416   5.466  1.00  0.00     0.187 C 
HETATM   12  C   UNL     1      64.545   4.113   4.425  1.00  0.00     0.149 C 
ENDBRANCH   2   7
BRANCH   1  13
HETATM   13  C   UNL     1      65.015   7.940   5.520  1.00  0.00     0.272 C 
BRANCH  13  14
HETATM   14  N   UNL     1      64.506   7.333   6.763  1.00  0.00    -0.075 N 
HETATM   15  C   UNL     1      65.569   6.623   7.466  1.00  0.00     0.267 C 
HETATM   16  H   UNL     1      63.761   6.676   6.533  1.00  0.00     0.277 HD
HETATM   17  H   UNL     1      64.153   8.075   7.367  1.00  0.00     0.277 HD
ENDBRANCH  13  14
ENDBRANCH   1  13
BRANCH   3  18
HETATM   18  C   UNL     1      61.832   9.546   1.941  1.00  0.00     0.417 C 
HETATM   19  F   UNL     1      61.511  10.511   2.849  1.00  0.00    -0.166 F 
HETATM   20  F   UNL     1      60.646   9.085   1.455  1.00  0.00    -0.166 F 
HETATM   21  F   UNL     1      62.431  10.199   0.907  1.00  0.00    -0.166 F 
ENDBRANCH   3  18
TORSDOF 4
ENDMDL
MODEL 6
REMARK VINA RESULT:      -4.7      4.215      6.088
REMARK  4 active torsions:
REMARK  status: ('A' for Active; 'I' for Inactive)
REMARK    1  A    between atoms: C_1  and  C_5 
REMARK    2  A    between atoms: C_2  and  C_13 
REMARK    3  A    between atoms: C_3  and  N_4 
REMARK    4  A    between atoms: C_13  and  N_14 
ROOT
HETATM    1  C   UNL     1      63.231   8.519   4.575  1.00  0.00    -0.005 A 
HETATM    2  C   UNL     1      62.662   7.215   4.635  1.00  0.00     0.038 A 
HETATM    3  C   UNL     1      65.331   7.663   5.530  1.00  0.00     0.048 A 
HETATM    4  C   UNL     1      64.553   8.710   5.022  1.00  0.00     0.027 A 
HETATM    5  C   UNL     1      63.452   6.175   5.156  1.00  0.00     0.031 A 
HETATM    6  C   UNL     1      64.764   6.391   5.600  1.00  0.00     0.018 A 
ENDROOT
BRANCH   2   7
HETATM    7  N   UNL     1      61.346   6.996   4.229  1.00  0.00    -0.376 N 
HETATM    8  C   UNL     1      60.383   6.318   5.120  1.00  0.00     0.149 C 
HETATM    9  C   UNL     1      58.961   6.659   4.631  1.00  0.00     0.187 C 
HETATM   10  O   UNL     1      58.760   6.291   3.252  1.00  0.00    -0.388 OA
HETATM   11  C   UNL     1      59.738   6.923   2.406  1.00  0.00     0.187 C 
HETATM   12  C   UNL     1      61.167   6.534   2.832  1.00  0.00     0.149 C 
ENDBRANCH   2   7
BRANCH   1  13
HETATM   13  C   UNL     1      62.383   9.737   4.218  1.00  0.00     0.272 C 
BRANCH  13  14
HETATM   14  N   UNL     1      62.248   9.972   2.769  1.00  0.00    -0.075 N 
HETATM   15  C   UNL     1      61.786  11.330   2.504  1.00  0.00     0.267 C 
HETATM   16  H   UNL     1      61.574   9.309   2.385  1.00  0.00     0.277 HD
HETATM   17  H   UNL     1      63.160   9.846   2.332  1.00  0.00     0.277 HD
ENDBRANCH  13  14
ENDBRANCH   1  13
BRANCH   3  18
HETATM   18  C   UNL     1      66.737   7.914   6.018  1.00  0.00     0.417 C 
HETATM   19  F   UNL     1      66.823   8.900   6.956  1.00  0.00    -0.166 F 
HETATM   20  F   UNL     1      67.583   8.282   5.016  1.00  0.00    -0.166 F 
HETATM   21  F   UNL     1      67.294   6.811   6.592  1.00  0.00    -0.166 F 
ENDBRANCH   3  18
TORSDOF 4
ENDMDL
MODEL 7
REMARK VINA RESULT:      -4.5      3.372      4.656
REMARK  4 active torsions:
REMARK  status: ('A' for Active; 'I' for Inactive)
REMARK    1  A    between atoms: C_1  and  C_5 
REMARK    2  A    between atoms: C_2  and  C_13 
REMARK    3  A    between atoms: C_3  and  N_4 
REMARK    4  A    between atoms: C_13  and  N_14 
ROOT
HETATM    1  C   UNL     1      61.989   7.419   5.022  1.00  0.00    -0.005 A 
HETATM    2  C   UNL     1      60.864   6.547   5.014  1.00  0.00     0.038 A 
HETATM    3  C   UNL     1      61.392   8.235   2.778  1.00  0.00     0.048 A 
HETATM    4  C   UNL     1      62.223   8.244   3.904  1.00  0.00     0.027 A 
HETATM    5  C   UNL     1      60.042   6.542   3.873  1.00  0.00     0.031 A 
HETATM    6  C   UNL     1      60.299   7.368   2.770  1.00  0.00     0.018 A 
ENDROOT
BRANCH   2   7
HETATM    7  N   UNL     1      60.619   5.696   6.091  1.00  0.00    -0.376 N 
HETATM    8  C   UNL     1      60.948   4.258   6.008  1.00  0.00     0.149 C 
HETATM    9  C   UNL     1      61.038   3.707   7.445  1.00  0.00     0.187 C 
HETATM   10  O   UNL     1      59.823   3.933   8.188  1.00  0.00    -0.388 OA
HETATM   11  C   UNL     1      59.493   5.334   8.216  1.00  0.00     0.187 C 
HETATM   12  C   UNL     1      59.324   5.887   6.788  1.00  0.00     0.149 C 
ENDBRANCH   2   7
BRANCH   1  13
HETATM   13  C   UNL     1      63.043   7.342   6.123  1.00  0.00     0.272 C 
BRANCH  13  14
HETATM   14  N   UNL     1      64.230   8.181   5.878  1.00  0.00    -0.075 N 
HETATM   15  C   UNL     1      65.456   7.432   6.132  1.00  0.00     0.267 C 
HETATM   16  H   UNL     1      64.200   8.991   6.496  1.00  0.00     0.277 HD
HETATM   17  H   UNL     1      64.225   8.477   4.902  1.00  0.00     0.277 HD
ENDBRANCH  13  14
ENDBRANCH   1  13
BRANCH   3  18
HETATM   18  C   UNL     1      61.690   9.119   1.593  1.00  0.00     0.417 C 
HETATM   19  F   UNL     1      60.629   9.286   0.753  1.00  0.00    -0.166 F 
HETATM   20  F   UNL     1      62.702   8.637   0.819  1.00  0.00    -0.166 F 
HETATM   21  F   UNL     1      62.068  10.376   1.962  1.00  0.00    -0.166 F 
ENDBRANCH   3  18
TORSDOF 4
ENDMDL
MODEL 8
REMARK VINA RESULT:      -4.3      3.902      5.422
REMARK  4 active torsions:
REMARK  status: ('A' for Active; 'I' for Inactive)
REMARK    1  A    between atoms: C_1  and  C_5 
REMARK    2  A    between atoms: C_2  and  C_13 
REMARK    3  A    between atoms: C_3  and  N_4 
REMARK    4  A    between atoms: C_13  and  N_14 
ROOT
HETATM    1  C   UNL     1      60.802   7.793   3.594  1.00  0.00    -0.005 A 
HETATM    2  C   UNL     1      61.603   7.024   4.484  1.00  0.00     0.038 A 
HETATM    3  C   UNL     1      58.762   6.790   4.536  1.00  0.00     0.048 A 
HETATM    4  C   UNL     1      59.401   7.659   3.644  1.00  0.00     0.027 A 
HETATM    5  C   UNL     1      60.948   6.148   5.369  1.00  0.00     0.031 A 
HETATM    6  C   UNL     1      59.552   6.028   5.396  1.00  0.00     0.018 A 
ENDROOT
BRANCH   2   7
HETATM    7  N   UNL     1      62.994   7.110   4.442  1.00  0.00    -0.376 N 
HETATM    8  C   UNL     1      63.811   5.940   4.063  1.00  0.00     0.149 C 
HETATM    9  C   UNL     1      65.201   6.450   3.631  1.00  0.00     0.187 C 
HETATM   10  O   UNL     1      65.835   7.231   4.664  1.00  0.00    -0.388 OA
HETATM   11  C   UNL     1      65.002   8.338   5.054  1.00  0.00     0.187 C 
HETATM   12  C   UNL     1      63.633   7.842   5.561  1.00  0.00     0.149 C 
ENDBRANCH   2   7
BRANCH   1  13
HETATM   13  C   UNL     1      61.431   8.610   2.468  1.00  0.00     0.272 C 
BRANCH  13  14
HETATM   14  N   UNL     1      61.203  10.062   2.580  1.00  0.00    -0.075 N 
HETATM   15  C   UNL     1      61.981  10.626   3.677  1.00  0.00     0.267 C 
HETATM   16  H   UNL     1      60.213  10.233   2.751  1.00  0.00     0.277 HD
HETATM   17  H   UNL     1      61.496  10.506   1.710  1.00  0.00     0.277 HD
ENDBRANCH  13  14
ENDBRANCH   1  13
BRANCH   3  18
HETATM   18  C   UNL     1      57.259   6.661   4.542  1.00  0.00     0.417 C 
HETATM   19  F   UNL     1      56.660   7.175   3.431  1.00  0.00    -0.166 F 
HETATM   20  F   UNL     1      56.681   7.294   5.601  1.00  0.00    -0.166 F 
HETATM   21  F   UNL     1      56.848   5.363   4.614  1.00  0.00    -0.166 F 
ENDBRANCH   3  18
TORSDOF 4
ENDMDL
MODEL 9
REMARK VINA RESULT:      -4.3      4.295      5.882
REMARK  4 active torsions:
REMARK  status: ('A' for Active; 'I' for Inactive)
REMARK    1  A    between atoms: C_1  and  C_5 
REMARK    2  A    between atoms: C_2  and  C_13 
REMARK    3  A    between atoms: C_3  and  N_4 
REMARK    4  A    between atoms: C_13  and  N_14 
ROOT
HETATM    1  C   UNL     1      63.735   7.156   5.833  1.00  0.00    -0.005 A 
HETATM    2  C   UNL     1      63.052   5.919   6.007  1.00  0.00     0.038 A 
HETATM    3  C   UNL     1      65.831   6.128   6.610  1.00  0.00     0.048 A 
HETATM    4  C   UNL     1      65.108   7.229   6.137  1.00  0.00     0.027 A 
HETATM    5  C   UNL     1      63.788   4.823   6.492  1.00  0.00     0.031 A 
HETATM    6  C   UNL     1      65.154   4.922   6.793  1.00  0.00     0.018 A 
ENDROOT
BRANCH   2   7
HETATM    7  N   UNL     1      61.686   5.819   5.744  1.00  0.00    -0.376 N 
HETATM    8  C   UNL     1      60.742   5.403   6.801  1.00  0.00     0.149 C 
HETATM    9  C   UNL     1      59.329   5.855   6.381  1.00  0.00     0.187 C 
HETATM   10  O   UNL     1      58.953   5.328   5.093  1.00  0.00    -0.388 OA
HETATM   11  C   UNL     1      59.911   5.702   4.086  1.00  0.00     0.187 C 
HETATM   12  C   UNL     1      61.318   5.193   4.452  1.00  0.00     0.149 C 
ENDBRANCH   2   7
BRANCH   1  13
HETATM   13  C   UNL     1      62.975   8.441   5.510  1.00  0.00     0.272 C 
BRANCH  13  14
HETATM   14  N   UNL     1      63.809   9.656   5.546  1.00  0.00    -0.075 N 
HETATM   15  C   UNL     1      62.978  10.855   5.526  1.00  0.00     0.267 C 
HETATM   16  H   UNL     1      64.424   9.663   4.733  1.00  0.00     0.277 HD
HETATM   17  H   UNL     1      64.356   9.651   6.406  1.00  0.00     0.277 HD
ENDBRANCH  13  14
ENDBRANCH   1  13
BRANCH   3  18
HETATM   18  C   UNL     1      67.297   6.253   6.944  1.00  0.00     0.417 C 
HETATM   19  F   UNL     1      67.534   6.803   8.169  1.00  0.00    -0.166 F 
HETATM   20  F   UNL     1      67.974   7.029   6.053  1.00  0.00    -0.166 F 
HETATM   21  F   UNL     1      67.934   5.049   6.952  1.00  0.00    -0.166 F 
ENDBRANCH   3  18
TORSDOF 4
ENDMDL
