MODEL 1
REMARK VINA RESULT:      -5.8      0.000      0.000
REMARK  4 active torsions:
REMARK  status: ('A' for Active; 'I' for Inactive)
REMARK    1  A    between atoms: N_1  and  C_2 
REMARK    2  A    between atoms: C_5  and  C_8 
REMARK    3  A    between atoms: C_5  and  O_16 
REMARK    4  A    between atoms: O_16  and  C_19 
ROOT
HETATM    1  N   UNL     1      65.321   6.310   6.042  1.00  0.00    -0.366 N 
HETATM    2  C   UNL     1      63.569   8.327   4.996  1.00  0.00     0.088 C 
HETATM    3  C   UNL     1      65.787   7.115   4.920  1.00  0.00     0.125 C 
HETATM    4  C   UNL     1      63.885   6.155   6.237  1.00  0.00     0.125 C 
HETATM    5  C   UNL     1      65.094   8.472   4.887  1.00  0.00     0.034 C 
HETATM    6  C   UNL     1      63.198   7.518   6.241  1.00  0.00     0.034 C 
ENDROOT
BRANCH   1   7
HETATM    7  C   UNL     1      66.196   5.976   7.061  1.00  0.00     0.119 A 
HETATM    8  N   UNL     1      66.462   4.677   7.331  1.00  0.00    -0.344 N 
HETATM    9  C   UNL     1      67.340   4.415   8.339  1.00  0.00     0.022 A 
ATOM     10  HN  UNL     1      66.022   3.924   6.801  1.00  0.00     0.167 HD
HETATM   11  C   UNL     1      67.914   5.433   9.090  1.00  0.00     0.112 A 
HETATM   12  C   UNL     1      67.718   2.987   8.581  1.00  0.00     0.069 C 
HETATM   13  N   UNL     1      67.660   6.735   8.866  1.00  0.00    -0.370 N 
HETATM   14  C   UNL     1      66.801   6.969   7.844  1.00  0.00     0.136 A 
ATOM     15  HN  UNL     1      68.078   7.483   9.420  1.00  0.00     0.164 HD
ENDBRANCH   1   7
BRANCH   2  16
HETATM   16  C   UNL     1      62.892   9.683   5.018  1.00  0.00     0.263 C 
HETATM   17  O   UNL     1      63.052  10.537   5.883  1.00  0.00    -0.265 OA
BRANCH  16  18
HETATM   18  O   UNL     1      62.113   9.840   3.909  1.00  0.00    -0.322 OA
BRANCH  18  19
HETATM   19  C   UNL     1      61.873  11.194   3.495  1.00  0.00     0.174 C 
HETATM   20  C   UNL     1      61.855  11.298   1.981  1.00  0.00     0.034 C 
ENDBRANCH  18  19
ENDBRANCH  16  18
ENDBRANCH   2  16
TORSDOF 4
ENDMDL
MODEL 2
REMARK VINA RESULT:      -5.4      4.084      7.451
REMARK  4 active torsions:
REMARK  status: ('A' for Active; 'I' for Inactive)
REMARK    1  A    between atoms: N_1  and  C_2 
REMARK    2  A    between atoms: C_5  and  C_8 
REMARK    3  A    between atoms: C_5  and  O_16 
REMARK    4  A    between atoms: O_16  and  C_19 
ROOT
HETATM    1  N   UNL     1      61.868   8.633   2.619  1.00  0.00    -0.366 N 
HETATM    2  C   UNL     1      64.012   8.595   4.525  1.00  0.00     0.088 C 
HETATM    3  C   UNL     1      62.979   7.718   2.390  1.00  0.00     0.125 C 
HETATM    4  C   UNL     1      62.102   9.822   3.428  1.00  0.00     0.125 C 
HETATM    5  C   UNL     1      63.669   7.348   3.696  1.00  0.00     0.034 C 
HETATM    6  C   UNL     1      62.760   9.445   4.752  1.00  0.00     0.034 C 
ENDROOT
BRANCH   1   7
HETATM    7  C   UNL     1      60.572   8.225   2.351  1.00  0.00     0.119 A 
HETATM    8  N   UNL     1      59.711   7.985   3.368  1.00  0.00    -0.344 N 
HETATM    9  C   UNL     1      58.447   7.598   3.038  1.00  0.00     0.022 A 
ATOM     10  HN  UNL     1      59.997   8.089   4.341  1.00  0.00     0.167 HD
HETATM   11  C   UNL     1      58.061   7.418   1.715  1.00  0.00     0.112 A 
HETATM   12  C   UNL     1      57.458   7.426   4.148  1.00  0.00     0.069 C 
HETATM   13  N   UNL     1      58.892   7.627   0.679  1.00  0.00    -0.370 N 
HETATM   14  C   UNL     1      60.136   8.033   1.033  1.00  0.00     0.136 A 
ATOM     15  HN  UNL     1      58.610   7.491  -0.292  1.00  0.00     0.164 HD
ENDBRANCH   1   7
BRANCH   2  16
HETATM   16  C   UNL     1      64.648   8.215   5.847  1.00  0.00     0.263 C 
HETATM   17  O   UNL     1      64.203   7.383   6.629  1.00  0.00    -0.265 OA
BRANCH  16  18
HETATM   18  O   UNL     1      65.816   8.897   6.021  1.00  0.00    -0.322 OA
BRANCH  18  19
HETATM   19  C   UNL     1      66.988   8.094   6.234  1.00  0.00     0.174 C 
HETATM   20  C   UNL     1      67.614   7.695   4.910  1.00  0.00     0.034 C 
ENDBRANCH  18  19
ENDBRANCH  16  18
ENDBRANCH   2  16
TORSDOF 4
ENDMDL
MODEL 3
REMARK VINA RESULT:      -5.3      2.970      6.965
REMARK  4 active torsions:
REMARK  status: ('A' for Active; 'I' for Inactive)
REMARK    1  A    between atoms: N_1  and  C_2 
REMARK    2  A    between atoms: C_5  and  C_8 
REMARK    3  A    between atoms: C_5  and  O_16 
REMARK    4  A    between atoms: O_16  and  C_19 
ROOT
HETATM    1  N   UNL     1      64.810   7.505   4.743  1.00  0.00    -0.366 N 
HETATM    2  C   UNL     1      66.054   6.161   6.952  1.00  0.00     0.088 C 
HETATM    3  C   UNL     1      64.402   6.138   5.037  1.00  0.00     0.125 C 
HETATM    4  C   UNL     1      66.133   7.942   5.169  1.00  0.00     0.125 C 
HETATM    5  C   UNL     1      64.630   5.795   6.504  1.00  0.00     0.034 C 
HETATM    6  C   UNL     1      66.346   7.632   6.648  1.00  0.00     0.034 C 
ENDROOT
BRANCH   1   7
HETATM    7  C   UNL     1      63.863   8.441   4.364  1.00  0.00     0.119 A 
HETATM    8  N   UNL     1      63.248   8.339   3.163  1.00  0.00    -0.344 N 
HETATM    9  C   UNL     1      62.318   9.285   2.855  1.00  0.00     0.022 A 
ATOM     10  HN  UNL     1      63.472   7.584   2.515  1.00  0.00     0.167 HD
HETATM   11  C   UNL     1      62.034  10.338   3.716  1.00  0.00     0.112 A 
HETATM   12  C   UNL     1      61.559   9.127   1.574  1.00  0.00     0.069 C 
HETATM   13  N   UNL     1      62.638  10.486   4.909  1.00  0.00    -0.370 N 
HETATM   14  C   UNL     1      63.542   9.519   5.201  1.00  0.00     0.136 A 
ATOM     15  HN  UNL     1      62.433  11.261   5.540  1.00  0.00     0.164 HD
ENDBRANCH   1   7
BRANCH   2  16
HETATM   16  C   UNL     1      66.255   5.869   8.426  1.00  0.00     0.263 C 
HETATM   17  O   UNL     1      66.265   6.711   9.316  1.00  0.00    -0.265 OA
BRANCH  16  18
HETATM   18  O   UNL     1      66.374   4.525   8.628  1.00  0.00    -0.322 OA
BRANCH  18  19
HETATM   19  C   UNL     1      67.715   4.018   8.713  1.00  0.00     0.174 C 
HETATM   20  C   UNL     1      68.001   3.060   7.571  1.00  0.00     0.034 C 
ENDBRANCH  18  19
ENDBRANCH  16  18
ENDBRANCH   2  16
TORSDOF 4
ENDMDL
MODEL 4
REMARK VINA RESULT:      -5.3      3.262      7.031
REMARK  4 active torsions:
REMARK  status: ('A' for Active; 'I' for Inactive)
REMARK    1  A    between atoms: N_1  and  C_2 
REMARK    2  A    between atoms: C_5  and  C_8 
REMARK    3  A    between atoms: C_5  and  O_16 
REMARK    4  A    between atoms: O_16  and  C_19 
ROOT
HETATM    1  N   UNL     1      63.311   8.737   5.126  1.00  0.00    -0.366 N 
HETATM    2  C   UNL     1      64.820   6.588   6.283  1.00  0.00     0.088 C 
HETATM    3  C   UNL     1      64.712   8.973   5.447  1.00  0.00     0.125 C 
HETATM    4  C   UNL     1      62.596   7.697   5.855  1.00  0.00     0.125 C 
HETATM    5  C   UNL     1      65.508   7.674   5.440  1.00  0.00     0.034 C 
HETATM    6  C   UNL     1      63.376   6.387   5.815  1.00  0.00     0.034 C 
ENDROOT
BRANCH   1   7
HETATM    7  C   UNL     1      62.773   9.256   3.960  1.00  0.00     0.119 A 
HETATM    8  N   UNL     1      62.821   8.540   2.813  1.00  0.00    -0.344 N 
HETATM    9  C   UNL     1      62.264   9.101   1.703  1.00  0.00     0.022 A 
ATOM     10  HN  UNL     1      63.256   7.618   2.779  1.00  0.00     0.167 HD
HETATM   11  C   UNL     1      61.702  10.372   1.731  1.00  0.00     0.112 A 
HETATM   12  C   UNL     1      62.221   8.280   0.453  1.00  0.00     0.069 C 
HETATM   13  N   UNL     1      61.654  11.122   2.846  1.00  0.00    -0.370 N 
HETATM   14  C   UNL     1      62.194  10.532   3.941  1.00  0.00     0.136 A 
ATOM     15  HN  UNL     1      61.246  12.057   2.867  1.00  0.00     0.164 HD
ENDBRANCH   1   7
BRANCH   2  16
HETATM   16  C   UNL     1      65.588   5.283   6.225  1.00  0.00     0.263 C 
HETATM   17  O   UNL     1      65.294   4.323   5.523  1.00  0.00    -0.265 OA
BRANCH  16  18
HETATM   18  O   UNL     1      66.687   5.347   7.030  1.00  0.00    -0.322 OA
BRANCH  18  19
HETATM   19  C   UNL     1      66.431   5.375   8.443  1.00  0.00     0.174 C 
HETATM   20  C   UNL     1      67.311   6.405   9.128  1.00  0.00     0.034 C 
ENDBRANCH  18  19
ENDBRANCH  16  18
ENDBRANCH   2  16
TORSDOF 4
ENDMDL
MODEL 5
REMARK VINA RESULT:      -5.1      1.794      2.317
REMARK  4 active torsions:
REMARK  status: ('A' for Active; 'I' for Inactive)
REMARK    1  A    between atoms: N_1  and  C_2 
REMARK    2  A    between atoms: C_5  and  C_8 
REMARK    3  A    between atoms: C_5  and  O_16 
REMARK    4  A    between atoms: O_16  and  C_19 
ROOT
HETATM    1  N   UNL     1      64.079   6.597   5.531  1.00  0.00    -0.366 N 
HETATM    2  C   UNL     1      62.403   8.421   4.084  1.00  0.00     0.088 C 
HETATM    3  C   UNL     1      64.002   6.463   4.082  1.00  0.00     0.125 C 
HETATM    4  C   UNL     1      62.965   7.224   6.230  1.00  0.00     0.125 C 
HETATM    5  C   UNL     1      63.635   7.785   3.422  1.00  0.00     0.034 C 
HETATM    6  C   UNL     1      62.623   8.567   5.591  1.00  0.00     0.034 C 
ENDROOT
BRANCH   1   7
HETATM    7  C   UNL     1      65.292   6.429   6.176  1.00  0.00     0.119 A 
HETATM    8  N   UNL     1      65.395   6.669   7.504  1.00  0.00    -0.344 N 
HETATM    9  C   UNL     1      66.614   6.474   8.081  1.00  0.00     0.022 A 
ATOM     10  HN  UNL     1      64.593   6.983   8.050  1.00  0.00     0.167 HD
HETATM   11  C   UNL     1      67.720   6.083   7.337  1.00  0.00     0.112 A 
HETATM   12  C   UNL     1      66.717   6.640   9.565  1.00  0.00     0.069 C 
HETATM   13  N   UNL     1      67.663   5.855   6.013  1.00  0.00    -0.370 N 
HETATM   14  C   UNL     1      66.435   6.033   5.468  1.00  0.00     0.136 A 
ATOM     15  HN  UNL     1      68.476   5.571   5.466  1.00  0.00     0.164 HD
ENDBRANCH   1   7
BRANCH   2  16
HETATM   16  C   UNL     1      62.078   9.763   3.458  1.00  0.00     0.263 C 
HETATM   17  O   UNL     1      61.715  10.758   4.075  1.00  0.00    -0.265 OA
BRANCH  16  18
HETATM   18  O   UNL     1      62.296   9.721   2.113  1.00  0.00    -0.322 OA
BRANCH  18  19
HETATM   19  C   UNL     1      61.241   9.150   1.322  1.00  0.00     0.174 C 
HETATM   20  C   UNL     1      61.796   8.139   0.336  1.00  0.00     0.034 C 
ENDBRANCH  18  19
ENDBRANCH  16  18
ENDBRANCH   2  16
TORSDOF 4
ENDMDL
MODEL 6
REMARK VINA RESULT:      -4.9      3.339      7.024
REMARK  4 active torsions:
REMARK  status: ('A' for Active; 'I' for Inactive)
REMARK    1  A    between atoms: N_1  and  C_2 
REMARK    2  A    between atoms: C_5  and  C_8 
REMARK    3  A    between atoms: C_5  and  O_16 
REMARK    4  A    between atoms: O_16  and  C_19 
ROOT
HETATM    1  N   UNL     1      63.311   8.407   5.149  1.00  0.00    -0.366 N 
HETATM    2  C   UNL     1      64.831   6.596   6.774  1.00  0.00     0.088 C 
HETATM    3  C   UNL     1      64.664   8.790   5.529  1.00  0.00     0.125 C 
HETATM    4  C   UNL     1      62.595   7.459   5.993  1.00  0.00     0.125 C 
HETATM    5  C   UNL     1      65.528   7.567   5.809  1.00  0.00     0.034 C 
HETATM    6  C   UNL     1      63.446   6.218   6.242  1.00  0.00     0.034 C 
ENDROOT
BRANCH   1   7
HETATM    7  C   UNL     1      62.848   8.681   3.873  1.00  0.00     0.119 A 
HETATM    8  N   UNL     1      62.464   9.937   3.544  1.00  0.00    -0.344 N 
HETATM    9  C   UNL     1      62.030  10.143   2.270  1.00  0.00     0.022 A 
ATOM     10  HN  UNL     1      62.499  10.697   4.223  1.00  0.00     0.167 HD
HETATM   11  C   UNL     1      61.945   9.105   1.350  1.00  0.00     0.112 A 
HETATM   12  C   UNL     1      61.697  11.545   1.865  1.00  0.00     0.069 C 
HETATM   13  N   UNL     1      62.297   7.841   1.644  1.00  0.00    -0.370 N 
HETATM   14  C   UNL     1      62.747   7.667   2.911  1.00  0.00     0.136 A 
ATOM     15  HN  UNL     1      62.232   7.078   0.971  1.00  0.00     0.164 HD
ENDBRANCH   1   7
BRANCH   2  16
HETATM   16  C   UNL     1      65.672   5.356   7.004  1.00  0.00     0.263 C 
HETATM   17  O   UNL     1      65.347   4.403   7.702  1.00  0.00    -0.265 OA
BRANCH  16  18
HETATM   18  O   UNL     1      66.827   5.430   6.281  1.00  0.00    -0.322 OA
BRANCH  18  19
HETATM   19  C   UNL     1      67.255   4.212   5.653  1.00  0.00     0.174 C 
HETATM   20  C   UNL     1      67.231   4.349   4.141  1.00  0.00     0.034 C 
ENDBRANCH  18  19
ENDBRANCH  16  18
ENDBRANCH   2  16
TORSDOF 4
ENDMDL
MODEL 7
REMARK VINA RESULT:      -4.8      1.923      2.815
REMARK  4 active torsions:
REMARK  status: ('A' for Active; 'I' for Inactive)
REMARK    1  A    between atoms: N_1  and  C_2 
REMARK    2  A    between atoms: C_5  and  C_8 
REMARK    3  A    between atoms: C_5  and  O_16 
REMARK    4  A    between atoms: O_16  and  C_19 
ROOT
HETATM    1  N   UNL     1      65.384   7.239   4.940  1.00  0.00    -0.366 N 
HETATM    2  C   UNL     1      63.187   8.573   3.664  1.00  0.00     0.088 C 
HETATM    3  C   UNL     1      65.189   8.658   5.207  1.00  0.00     0.125 C 
HETATM    4  C   UNL     1      64.862   6.689   3.695  1.00  0.00     0.125 C 
HETATM    5  C   UNL     1      63.733   9.062   5.014  1.00  0.00     0.034 C 
HETATM    6  C   UNL     1      63.393   7.063   3.522  1.00  0.00     0.034 C 
ENDROOT
BRANCH   1   7
HETATM    7  C   UNL     1      65.763   6.389   5.964  1.00  0.00     0.119 A 
HETATM    8  N   UNL     1      66.084   6.890   7.180  1.00  0.00    -0.344 N 
HETATM    9  C   UNL     1      66.437   6.000   8.149  1.00  0.00     0.022 A 
ATOM     10  HN  UNL     1      66.063   7.893   7.363  1.00  0.00     0.167 HD
HETATM   11  C   UNL     1      66.504   4.635   7.898  1.00  0.00     0.112 A 
HETATM   12  C   UNL     1      66.697   6.532   9.524  1.00  0.00     0.069 C 
HETATM   13  N   UNL     1      66.213   4.101   6.698  1.00  0.00    -0.370 N 
HETATM   14  C   UNL     1      65.843   5.005   5.759  1.00  0.00     0.136 A 
ATOM     15  HN  UNL     1      66.266   3.100   6.512  1.00  0.00     0.164 HD
ENDBRANCH   1   7
BRANCH   2  16
HETATM   16  C   UNL     1      61.723   8.931   3.504  1.00  0.00     0.263 C 
HETATM   17  O   UNL     1      61.207   9.973   3.888  1.00  0.00    -0.265 OA
BRANCH  16  18
HETATM   18  O   UNL     1      61.069   7.945   2.825  1.00  0.00    -0.322 OA
BRANCH  18  19
HETATM   19  C   UNL     1      59.753   7.621   3.299  1.00  0.00     0.174 C 
HETATM   20  C   UNL     1      59.826   6.690   4.495  1.00  0.00     0.034 C 
ENDBRANCH  18  19
ENDBRANCH  16  18
ENDBRANCH   2  16
TORSDOF 4
ENDMDL
MODEL 8
REMARK VINA RESULT:      -4.7      1.796      2.319
REMARK  4 active torsions:
REMARK  status: ('A' for Active; 'I' for Inactive)
REMARK    1  A    between atoms: N_1  and  C_2 
REMARK    2  A    between atoms: C_5  and  C_8 
REMARK    3  A    between atoms: C_5  and  O_16 
REMARK    4  A    between atoms: O_16  and  C_19 
ROOT
HETATM    1  N   UNL     1      64.115   6.214   5.832  1.00  0.00    -0.366 N 
HETATM    2  C   UNL     1      62.385   7.220   3.775  1.00  0.00     0.088 C 
HETATM    3  C   UNL     1      63.598   5.275   4.844  1.00  0.00     0.125 C 
HETATM    4  C   UNL     1      63.362   7.435   6.089  1.00  0.00     0.125 C 
HETATM    5  C   UNL     1      63.259   5.979   3.536  1.00  0.00     0.034 C 
HETATM    6  C   UNL     1      63.056   8.158   4.781  1.00  0.00     0.034 C 
ENDROOT
BRANCH   1   7
HETATM    7  C   UNL     1      65.424   6.104   6.269  1.00  0.00     0.119 A 
HETATM    8  N   UNL     1      66.049   4.904   6.250  1.00  0.00    -0.344 N 
HETATM    9  C   UNL     1      67.341   4.866   6.682  1.00  0.00     0.022 A 
ATOM     10  HN  UNL     1      65.573   4.063   5.925  1.00  0.00     0.167 HD
HETATM   11  C   UNL     1      67.984   6.001   7.161  1.00  0.00     0.112 A 
HETATM   12  C   UNL     1      68.075   3.567   6.573  1.00  0.00     0.069 C 
HETATM   13  N   UNL     1      67.390   7.207   7.215  1.00  0.00    -0.370 N 
HETATM   14  C   UNL     1      66.114   7.222   6.758  1.00  0.00     0.136 A 
ATOM     15  HN  UNL     1      67.860   8.039   7.570  1.00  0.00     0.164 HD
ENDBRANCH   1   7
BRANCH   2  16
HETATM   16  C   UNL     1      62.099   7.945   2.476  1.00  0.00     0.263 C 
HETATM   17  O   UNL     1      61.551   7.449   1.498  1.00  0.00    -0.265 OA
BRANCH  16  18
HETATM   18  O   UNL     1      62.494   9.248   2.566  1.00  0.00    -0.322 OA
BRANCH  18  19
HETATM   19  C   UNL     1      61.917  10.148   1.608  1.00  0.00     0.174 C 
HETATM   20  C   UNL     1      61.803  11.547   2.186  1.00  0.00     0.034 C 
ENDBRANCH  18  19
ENDBRANCH  16  18
ENDBRANCH   2  16
TORSDOF 4
ENDMDL
MODEL 9
REMARK VINA RESULT:      -4.7      1.570      2.053
REMARK  4 active torsions:
REMARK  status: ('A' for Active; 'I' for Inactive)
REMARK    1  A    between atoms: N_1  and  C_2 
REMARK    2  A    between atoms: C_5  and  C_8 
REMARK    3  A    between atoms: C_5  and  O_16 
REMARK    4  A    between atoms: O_16  and  C_19 
ROOT
HETATM    1  N   UNL     1      66.712   6.818   5.635  1.00  0.00    -0.366 N 
HETATM    2  C   UNL     1      64.518   7.583   3.950  1.00  0.00     0.088 C 
HETATM    3  C   UNL     1      66.056   8.094   5.892  1.00  0.00     0.125 C 
HETATM    4  C   UNL     1      66.634   6.255   4.293  1.00  0.00     0.125 C 
HETATM    5  C   UNL     1      64.615   8.085   5.400  1.00  0.00     0.034 C 
HETATM    6  C   UNL     1      65.186   6.212   3.816  1.00  0.00     0.034 C 
ENDROOT
BRANCH   1   7
HETATM    7  C   UNL     1      67.113   6.023   6.694  1.00  0.00     0.119 A 
HETATM    8  N   UNL     1      67.331   4.700   6.507  1.00  0.00    -0.344 N 
HETATM    9  C   UNL     1      67.735   3.975   7.588  1.00  0.00     0.022 A 
ATOM     10  HN  UNL     1      67.197   4.264   5.595  1.00  0.00     0.167 HD
HETATM   11  C   UNL     1      67.883   4.554   8.842  1.00  0.00     0.112 A 
HETATM   12  C   UNL     1      68.075   2.533   7.372  1.00  0.00     0.069 C 
HETATM   13  N   UNL     1      67.657   5.860   9.072  1.00  0.00    -0.370 N 
HETATM   14  C   UNL     1      67.278   6.563   7.977  1.00  0.00     0.136 A 
ATOM     15  HN  UNL     1      67.762   6.285   9.994  1.00  0.00     0.164 HD
ENDBRANCH   1   7
BRANCH   2  16
HETATM   16  C   UNL     1      63.076   7.524   3.487  1.00  0.00     0.263 C 
HETATM   17  O   UNL     1      62.304   6.598   3.706  1.00  0.00    -0.265 OA
BRANCH  16  18
HETATM   18  O   UNL     1      62.744   8.674   2.833  1.00  0.00    -0.322 OA
BRANCH  18  19
HETATM   19  C   UNL     1      61.628   9.402   3.368  1.00  0.00     0.174 C 
HETATM   20  C   UNL     1      62.080  10.731   3.945  1.00  0.00     0.034 C 
ENDBRANCH  18  19
ENDBRANCH  16  18
ENDBRANCH   2  16
TORSDOF 4
ENDMDL
