MODEL 1
REMARK VINA RESULT:      -5.5      0.000      0.000
REMARK  3 active torsions:
REMARK  status: ('A' for Active; 'I' for Inactive)
REMARK    1  A    between atoms: C_3  and  C_7 
REMARK    2  A    between atoms: C_9  and  C_14 
REMARK    3  A    between atoms: N_10  and  C_14 
ROOT
HETATM    1  C   UNL     1      63.317   9.020   4.709  1.00  0.00    -0.007 A 
HETATM    2  C   UNL     1      62.897   8.706   3.411  1.00  0.00     0.022 A 
HETATM    3  C   UNL     1      62.173   9.629   2.642  1.00  0.00    -0.032 A 
HETATM    4  C   UNL     1      63.009  10.281   5.239  1.00  0.00     0.014 A 
HETATM    5  C   UNL     1      62.294  11.208   4.483  1.00  0.00     0.002 A 
HETATM    6  C   UNL     1      61.877  10.883   3.191  1.00  0.00     0.009 A 
ENDROOT
BRANCH   1   7
HETATM    7  C   UNL     1      64.030   8.034   5.519  1.00  0.00     0.059 A 
HETATM    8  N   UNL     1      65.258   8.270   6.005  1.00  0.00    -0.299 N 
HETATM    9  N   UNL     1      65.549   7.180   6.730  1.00  0.00    -0.307 N 
ATOM     10  HN  UNL     1      65.840   9.095   5.858  1.00  0.00     0.187 HD
HETATM   11  C   UNL     1      64.565   6.241   6.714  1.00  0.00     0.112 A 
HETATM   12  C   UNL     1      66.781   7.135   7.475  1.00  0.00     0.177 C 
HETATM   13  C   UNL     1      63.563   6.761   5.935  1.00  0.00     0.050 A 
ENDBRANCH   1   7
BRANCH   3  14
HETATM   14  C   UNL     1      61.696   9.259   1.261  1.00  0.00     0.268 C 
BRANCH  14  15
HETATM   15  N   UNL     1      60.315   8.794   1.275  1.00  0.00    -0.075 N 
HETATM   16  H   UNL     1      59.706   9.547   1.595  1.00  0.00     0.274 HD
HETATM   17  H   UNL     1      60.231   7.997   1.905  1.00  0.00     0.274 HD
HETATM   18  H   UNL     1      60.042   8.513   0.333  1.00  0.00     0.274 HD
ENDBRANCH  14  15
ENDBRANCH   3  14
TORSDOF 3
ENDMDL
MODEL 2
REMARK VINA RESULT:      -5.3      1.498      2.572
REMARK  3 active torsions:
REMARK  status: ('A' for Active; 'I' for Inactive)
REMARK    1  A    between atoms: C_3  and  C_7 
REMARK    2  A    between atoms: C_9  and  C_14 
REMARK    3  A    between atoms: N_10  and  C_14 
ROOT
HETATM    1  C   UNL     1      64.381   7.883   4.660  1.00  0.00    -0.007 A 
HETATM    2  C   UNL     1      63.684   9.090   4.795  1.00  0.00     0.022 A 
HETATM    3  C   UNL     1      62.724   9.480   3.850  1.00  0.00    -0.032 A 
HETATM    4  C   UNL     1      64.104   7.055   3.563  1.00  0.00     0.014 A 
HETATM    5  C   UNL     1      63.149   7.429   2.620  1.00  0.00     0.002 A 
HETATM    6  C   UNL     1      62.463   8.636   2.762  1.00  0.00     0.009 A 
ENDROOT
BRANCH   1   7
HETATM    7  C   UNL     1      65.412   7.509   5.626  1.00  0.00     0.059 A 
HETATM    8  N   UNL     1      65.119   7.232   6.906  1.00  0.00    -0.299 N 
HETATM    9  N   UNL     1      66.292   6.880   7.451  1.00  0.00    -0.307 N 
ATOM     10  HN  UNL     1      64.208   7.278   7.361  1.00  0.00     0.187 HD
HETATM   11  C   UNL     1      67.335   6.938   6.580  1.00  0.00     0.112 A 
HETATM   12  C   UNL     1      66.328   6.431   8.820  1.00  0.00     0.177 C 
HETATM   13  C   UNL     1      66.800   7.345   5.383  1.00  0.00     0.050 A 
ENDBRANCH   1   7
BRANCH   3  14
HETATM   14  C   UNL     1      62.011  10.800   3.990  1.00  0.00     0.268 C 
BRANCH  14  15
HETATM   15  N   UNL     1      61.631  11.348   2.694  1.00  0.00    -0.075 N 
HETATM   16  H   UNL     1      62.471  11.589   2.168  1.00  0.00     0.274 HD
HETATM   17  H   UNL     1      61.064  12.184   2.832  1.00  0.00     0.274 HD
HETATM   18  H   UNL     1      61.092  10.653   2.177  1.00  0.00     0.274 HD
ENDBRANCH  14  15
ENDBRANCH   3  14
TORSDOF 3
ENDMDL
MODEL 3
REMARK VINA RESULT:      -5.2      0.989      1.217
REMARK  3 active torsions:
REMARK  status: ('A' for Active; 'I' for Inactive)
REMARK    1  A    between atoms: C_3  and  C_7 
REMARK    2  A    between atoms: C_9  and  C_14 
REMARK    3  A    between atoms: N_10  and  C_14 
ROOT
HETATM    1  C   UNL     1      63.860   8.920   4.677  1.00  0.00    -0.007 A 
HETATM    2  C   UNL     1      63.316   8.458   3.472  1.00  0.00     0.022 A 
HETATM    3  C   UNL     1      62.297   9.168   2.820  1.00  0.00    -0.032 A 
HETATM    4  C   UNL     1      63.378  10.114   5.230  1.00  0.00     0.014 A 
HETATM    5  C   UNL     1      62.369  10.831   4.588  1.00  0.00     0.002 A 
HETATM    6  C   UNL     1      61.831  10.360   3.390  1.00  0.00     0.009 A 
ENDROOT
BRANCH   1   7
HETATM    7  C   UNL     1      64.889   8.148   5.372  1.00  0.00     0.059 A 
HETATM    8  N   UNL     1      64.702   7.671   6.612  1.00  0.00    -0.299 N 
HETATM    9  N   UNL     1      65.820   6.982   6.879  1.00  0.00    -0.307 N 
ATOM     10  HN  UNL     1      63.890   7.802   7.215  1.00  0.00     0.187 HD
HETATM   11  C   UNL     1      66.731   7.012   5.869  1.00  0.00     0.112 A 
HETATM   12  C   UNL     1      65.921   6.254   8.118  1.00  0.00     0.177 C 
HETATM   13  C   UNL     1      66.160   7.764   4.873  1.00  0.00     0.050 A 
ENDBRANCH   1   7
BRANCH   3  14
HETATM   14  C   UNL     1      61.697   8.636   1.545  1.00  0.00     0.268 C 
BRANCH  14  15
HETATM   15  N   UNL     1      60.243   8.741   1.549  1.00  0.00    -0.075 N 
HETATM   16  H   UNL     1      59.897   8.705   0.590  1.00  0.00     0.274 HD
HETATM   17  H   UNL     1      59.967   9.624   1.977  1.00  0.00     0.274 HD
HETATM   18  H   UNL     1      59.849   7.966   2.083  1.00  0.00     0.274 HD
ENDBRANCH  14  15
ENDBRANCH   3  14
TORSDOF 3
ENDMDL
MODEL 4
REMARK VINA RESULT:      -4.8      1.965      6.117
REMARK  3 active torsions:
REMARK  status: ('A' for Active; 'I' for Inactive)
REMARK    1  A    between atoms: C_3  and  C_7 
REMARK    2  A    between atoms: C_9  and  C_14 
REMARK    3  A    between atoms: N_10  and  C_14 
ROOT
HETATM    1  C   UNL     1      65.573   7.532   5.528  1.00  0.00    -0.007 A 
HETATM    2  C   UNL     1      65.483   6.970   6.808  1.00  0.00     0.022 A 
HETATM    3  C   UNL     1      66.542   6.225   7.345  1.00  0.00    -0.032 A 
HETATM    4  C   UNL     1      66.744   7.345   4.782  1.00  0.00     0.014 A 
HETATM    5  C   UNL     1      67.805   6.609   5.307  1.00  0.00     0.002 A 
HETATM    6  C   UNL     1      67.704   6.051   6.582  1.00  0.00     0.009 A 
ENDROOT
BRANCH   1   7
HETATM    7  C   UNL     1      64.445   8.269   4.959  1.00  0.00     0.059 A 
HETATM    8  N   UNL     1      64.051   9.454   5.450  1.00  0.00    -0.299 N 
HETATM    9  N   UNL     1      63.049   9.835   4.646  1.00  0.00    -0.307 N 
ATOM     10  HN  UNL     1      64.429   9.952   6.256  1.00  0.00     0.187 HD
HETATM   11  C   UNL     1      62.767   8.935   3.666  1.00  0.00     0.112 A 
HETATM   12  C   UNL     1      62.440  11.126   4.840  1.00  0.00     0.177 C 
HETATM   13  C   UNL     1      63.654   7.903   3.840  1.00  0.00     0.050 A 
ENDBRANCH   1   7
BRANCH   3  14
HETATM   14  C   UNL     1      66.413   5.595   8.708  1.00  0.00     0.268 C 
BRANCH  14  15
HETATM   15  N   UNL     1      66.812   4.193   8.694  1.00  0.00    -0.075 N 
HETATM   16  H   UNL     1      66.000   3.607   8.884  1.00  0.00     0.274 HD
HETATM   17  H   UNL     1      67.521   4.035   9.411  1.00  0.00     0.274 HD
HETATM   18  H   UNL     1      67.196   3.959   7.779  1.00  0.00     0.274 HD
ENDBRANCH  14  15
ENDBRANCH   3  14
TORSDOF 3
ENDMDL
MODEL 5
REMARK VINA RESULT:      -4.5      2.687      7.154
REMARK  3 active torsions:
REMARK  status: ('A' for Active; 'I' for Inactive)
REMARK    1  A    between atoms: C_3  and  C_7 
REMARK    2  A    between atoms: C_9  and  C_14 
REMARK    3  A    between atoms: N_10  and  C_14 
ROOT
HETATM    1  C   UNL     1      65.992   5.955   7.617  1.00  0.00    -0.007 A 
HETATM    2  C   UNL     1      66.216   4.572   7.608  1.00  0.00     0.022 A 
HETATM    3  C   UNL     1      67.256   4.004   8.358  1.00  0.00    -0.032 A 
HETATM    4  C   UNL     1      66.821   6.775   8.394  1.00  0.00     0.014 A 
HETATM    5  C   UNL     1      67.856   6.221   9.146  1.00  0.00     0.002 A 
HETATM    6  C   UNL     1      68.073   4.843   9.127  1.00  0.00     0.009 A 
ENDROOT
BRANCH   1   7
HETATM    7  C   UNL     1      64.934   6.541   6.796  1.00  0.00     0.059 A 
HETATM    8  N   UNL     1      64.954   7.831   6.427  1.00  0.00    -0.299 N 
HETATM    9  N   UNL     1      63.872   7.976   5.650  1.00  0.00    -0.307 N 
ATOM     10  HN  UNL     1      65.641   8.542   6.681  1.00  0.00     0.187 HD
HETATM   11  C   UNL     1      63.142   6.836   5.518  1.00  0.00     0.112 A 
HETATM   12  C   UNL     1      63.631   9.241   5.003  1.00  0.00     0.177 C 
HETATM   13  C   UNL     1      63.802   5.882   6.252  1.00  0.00     0.050 A 
ENDBRANCH   1   7
BRANCH   3  14
HETATM   14  C   UNL     1      67.507   2.519   8.306  1.00  0.00     0.268 C 
BRANCH  14  15
HETATM   15  N   UNL     1      67.403   1.908   9.625  1.00  0.00    -0.075 N 
HETATM   16  H   UNL     1      68.248   1.370   9.817  1.00  0.00     0.274 HD
HETATM   17  H   UNL     1      66.592   1.291   9.651  1.00  0.00     0.274 HD
HETATM   18  H   UNL     1      67.297   2.639  10.330  1.00  0.00     0.274 HD
ENDBRANCH  14  15
ENDBRANCH   3  14
TORSDOF 3
ENDMDL
MODEL 6
REMARK VINA RESULT:      -4.2      2.173      2.691
REMARK  3 active torsions:
REMARK  status: ('A' for Active; 'I' for Inactive)
REMARK    1  A    between atoms: C_3  and  C_7 
REMARK    2  A    between atoms: C_9  and  C_14 
REMARK    3  A    between atoms: N_10  and  C_14 
ROOT
HETATM    1  C   UNL     1      63.495   7.935   5.017  1.00  0.00    -0.007 A 
HETATM    2  C   UNL     1      62.449   7.003   5.039  1.00  0.00     0.022 A 
HETATM    3  C   UNL     1      61.253   7.243   4.347  1.00  0.00    -0.032 A 
HETATM    4  C   UNL     1      63.337   9.119   4.285  1.00  0.00     0.014 A 
HETATM    5  C   UNL     1      62.155   9.367   3.589  1.00  0.00     0.002 A 
HETATM    6  C   UNL     1      61.118   8.433   3.621  1.00  0.00     0.009 A 
ENDROOT
BRANCH   1   7
HETATM    7  C   UNL     1      64.719   7.696   5.780  1.00  0.00     0.059 A 
HETATM    8  N   UNL     1      64.697   7.138   7.000  1.00  0.00    -0.299 N 
HETATM    9  N   UNL     1      65.988   7.030   7.344  1.00  0.00    -0.307 N 
ATOM     10  HN  UNL     1      63.881   6.858   7.544  1.00  0.00     0.187 HD
HETATM   11  C   UNL     1      66.842   7.514   6.402  1.00  0.00     0.112 A 
HETATM   12  C   UNL     1      66.337   6.383   8.583  1.00  0.00     0.177 C 
HETATM   13  C   UNL     1      66.052   7.957   5.372  1.00  0.00     0.050 A 
ENDBRANCH   1   7
BRANCH   3  14
HETATM   14  C   UNL     1      60.124   6.247   4.413  1.00  0.00     0.268 C 
BRANCH  14  15
HETATM   15  N   UNL     1      60.466   5.099   5.243  1.00  0.00    -0.075 N 
HETATM   16  H   UNL     1      60.778   5.423   6.158  1.00  0.00     0.274 HD
HETATM   17  H   UNL     1      61.213   4.568   4.797  1.00  0.00     0.274 HD
HETATM   18  H   UNL     1      59.644   4.504   5.354  1.00  0.00     0.274 HD
ENDBRANCH  14  15
ENDBRANCH   3  14
TORSDOF 3
ENDMDL
MODEL 7
REMARK VINA RESULT:      -4.2      2.569      5.521
REMARK  3 active torsions:
REMARK  status: ('A' for Active; 'I' for Inactive)
REMARK    1  A    between atoms: C_3  and  C_7 
REMARK    2  A    between atoms: C_9  and  C_14 
REMARK    3  A    between atoms: N_10  and  C_14 
ROOT
HETATM    1  C   UNL     1      65.083   7.764   4.747  1.00  0.00    -0.007 A 
HETATM    2  C   UNL     1      65.537   6.572   4.167  1.00  0.00     0.022 A 
HETATM    3  C   UNL     1      66.704   5.943   4.627  1.00  0.00    -0.032 A 
HETATM    4  C   UNL     1      65.810   8.327   5.805  1.00  0.00     0.014 A 
HETATM    5  C   UNL     1      66.968   7.709   6.273  1.00  0.00     0.002 A 
HETATM    6  C   UNL     1      67.413   6.524   5.686  1.00  0.00     0.009 A 
ENDROOT
BRANCH   1   7
HETATM    7  C   UNL     1      63.892   8.435   4.230  1.00  0.00     0.059 A 
HETATM    8  N   UNL     1      63.302   8.053   3.087  1.00  0.00    -0.299 N 
HETATM    9  N   UNL     1      62.230   8.850   2.979  1.00  0.00    -0.307 N 
ATOM     10  HN  UNL     1      63.602   7.320   2.444  1.00  0.00     0.187 HD
HETATM   11  C   UNL     1      62.115   9.745   3.996  1.00  0.00     0.112 A 
HETATM   12  C   UNL     1      61.309   8.651   1.889  1.00  0.00     0.177 C 
HETATM   13  C   UNL     1      63.179   9.506   4.828  1.00  0.00     0.050 A 
ENDBRANCH   1   7
BRANCH   3  14
HETATM   14  C   UNL     1      67.198   4.683   3.966  1.00  0.00     0.268 C 
BRANCH  14  15
HETATM   15  N   UNL     1      67.471   4.888   2.549  1.00  0.00    -0.075 N 
HETATM   16  H   UNL     1      67.929   4.060   2.168  1.00  0.00     0.274 HD
HETATM   17  H   UNL     1      68.080   5.698   2.434  1.00  0.00     0.274 HD
HETATM   18  H   UNL     1      66.593   5.049   2.055  1.00  0.00     0.274 HD
ENDBRANCH  14  15
ENDBRANCH   3  14
TORSDOF 3
ENDMDL
MODEL 8
REMARK VINA RESULT:      -4.2      9.889     12.052
REMARK  3 active torsions:
REMARK  status: ('A' for Active; 'I' for Inactive)
REMARK    1  A    between atoms: C_3  and  C_7 
REMARK    2  A    between atoms: C_9  and  C_14 
REMARK    3  A    between atoms: N_10  and  C_14 
ROOT
HETATM    1  C   UNL     1      58.204   2.211  11.935  1.00  0.00    -0.007 A 
HETATM    2  C   UNL     1      56.871   1.966  12.288  1.00  0.00     0.022 A 
HETATM    3  C   UNL     1      56.544   1.389  13.523  1.00  0.00    -0.032 A 
HETATM    4  C   UNL     1      59.221   1.875  12.840  1.00  0.00     0.014 A 
HETATM    5  C   UNL     1      58.909   1.304  14.072  1.00  0.00     0.002 A 
HETATM    6  C   UNL     1      57.577   1.062  14.412  1.00  0.00     0.009 A 
ENDROOT
BRANCH   1   7
HETATM    7  C   UNL     1      58.536   2.770  10.626  1.00  0.00     0.059 A 
HETATM    8  N   UNL     1      58.524   4.092  10.396  1.00  0.00    -0.299 N 
HETATM    9  N   UNL     1      58.932   4.216   9.125  1.00  0.00    -0.307 N 
ATOM     10  HN  UNL     1      58.263   4.836  11.043  1.00  0.00     0.187 HD
HETATM   11  C   UNL     1      59.189   3.025   8.519  1.00  0.00     0.112 A 
HETATM   12  C   UNL     1      59.119   5.532   8.568  1.00  0.00     0.177 C 
HETATM   13  C   UNL     1      58.940   2.063   9.465  1.00  0.00     0.050 A 
ENDBRANCH   1   7
BRANCH   3  14
HETATM   14  C   UNL     1      55.107   1.097  13.870  1.00  0.00     0.268 C 
BRANCH  14  15
HETATM   15  N   UNL     1      54.981   0.511  15.198  1.00  0.00    -0.075 N 
HETATM   16  H   UNL     1      55.300  -0.458  15.173  1.00  0.00     0.274 HD
HETATM   17  H   UNL     1      54.005   0.540  15.491  1.00  0.00     0.274 HD
HETATM   18  H   UNL     1      55.551   1.040  15.858  1.00  0.00     0.274 HD
ENDBRANCH  14  15
ENDBRANCH   3  14
TORSDOF 3
ENDMDL
MODEL 9
REMARK VINA RESULT:      -4.0      2.667      5.354
REMARK  3 active torsions:
REMARK  status: ('A' for Active; 'I' for Inactive)
REMARK    1  A    between atoms: C_3  and  C_7 
REMARK    2  A    between atoms: C_9  and  C_14 
REMARK    3  A    between atoms: N_10  and  C_14 
ROOT
HETATM    1  C   UNL     1      62.800   7.700   3.304  1.00  0.00    -0.007 A 
HETATM    2  C   UNL     1      62.513   8.898   3.969  1.00  0.00     0.022 A 
HETATM    3  C   UNL     1      63.421   9.454   4.882  1.00  0.00    -0.032 A 
HETATM    4  C   UNL     1      64.019   7.055   3.557  1.00  0.00     0.014 A 
HETATM    5  C   UNL     1      64.932   7.600   4.458  1.00  0.00     0.002 A 
HETATM    6  C   UNL     1      64.634   8.793   5.118  1.00  0.00     0.009 A 
ENDROOT
BRANCH   1   7
HETATM    7  C   UNL     1      61.827   7.105   2.390  1.00  0.00     0.059 A 
HETATM    8  N   UNL     1      60.687   7.732   2.061  1.00  0.00    -0.299 N 
HETATM    9  N   UNL     1      60.098   6.917   1.175  1.00  0.00    -0.307 N 
ATOM     10  HN  UNL     1      60.345   8.629   2.408  1.00  0.00     0.187 HD
HETATM   11  C   UNL     1      60.802   5.779   0.933  1.00  0.00     0.112 A 
HETATM   12  C   UNL     1      58.871   7.330   0.542  1.00  0.00     0.177 C 
HETATM   13  C   UNL     1      61.932   5.866   1.707  1.00  0.00     0.050 A 
ENDBRANCH   1   7
BRANCH   3  14
HETATM   14  C   UNL     1      63.078  10.724   5.617  1.00  0.00     0.268 C 
BRANCH  14  15
HETATM   15  N   UNL     1      62.374  11.670   4.761  1.00  0.00    -0.075 N 
HETATM   16  H   UNL     1      62.376  11.325   3.801  1.00  0.00     0.274 HD
HETATM   17  H   UNL     1      62.843  12.575   4.797  1.00  0.00     0.274 HD
HETATM   18  H   UNL     1      61.413  11.771   5.085  1.00  0.00     0.274 HD
ENDBRANCH  14  15
ENDBRANCH   3  14
TORSDOF 3
ENDMDL
