MODEL 1
REMARK VINA RESULT:      -4.2      0.000      0.000
REMARK  0 active torsions:
REMARK  status: ('A' for Active; 'I' for Inactive)
ROOT
HETATM    1  C   UNL     1      63.925   9.165   5.120  1.00  0.00     0.135 A 
HETATM    2  N   UNL     1      64.932   8.485   5.810  1.00  0.00    -0.372 N 
HETATM    3  N   UNL     1      63.508  10.327   5.657  1.00  0.00    -0.350 N 
ATOM      4  HN  UNL     1      63.893  10.676   6.534  1.00  0.00     0.166 HD
HETATM    5  C   UNL     1      63.406   8.659   3.915  1.00  0.00     0.112 A 
HETATM    6  O   UNL     1      63.765   7.448   3.371  1.00  0.00    -0.346 OA
HETATM    7  C   UNL     1      64.913   7.064   5.525  1.00  0.00     0.148 C 
HETATM    8  C   UNL     1      62.558  11.012   4.981  1.00  0.00     0.090 A 
HETATM    9  C   UNL     1      64.923   6.874   4.004  1.00  0.00     0.195 C 
HETATM   10  C   UNL     1      62.417   9.377   3.254  1.00  0.00     0.042 A 
HETATM   11  C   UNL     1      61.986  10.585   3.792  1.00  0.00     0.020 A 
HETATM   12  H   UNL     1      65.576   8.918   6.417  1.00  0.00     0.161 HD
ENDROOT
TORSDOF 0
ENDMDL
MODEL 2
REMARK VINA RESULT:      -4.0      1.754      2.206
REMARK  0 active torsions:
REMARK  status: ('A' for Active; 'I' for Inactive)
ROOT
HETATM    1  C   UNL     1      62.975   8.905   3.632  1.00  0.00     0.135 A 
HETATM    2  N   UNL     1      63.326   7.629   3.181  1.00  0.00    -0.372 N 
HETATM    3  N   UNL     1      62.256   9.665   2.784  1.00  0.00    -0.350 N 
ATOM      4  HN  UNL     1      62.005   9.331   1.853  1.00  0.00     0.166 HD
HETATM    5  C   UNL     1      63.339   9.343   4.917  1.00  0.00     0.112 A 
HETATM    6  O   UNL     1      64.122   8.618   5.784  1.00  0.00    -0.346 OA
HETATM    7  C   UNL     1      64.513   7.132   3.849  1.00  0.00     0.148 C 
HETATM    8  C   UNL     1      61.880  10.888   3.220  1.00  0.00     0.090 A 
HETATM    9  C   UNL     1      64.305   7.255   5.362  1.00  0.00     0.195 C 
HETATM   10  C   UNL     1      62.953  10.613   5.329  1.00  0.00     0.042 A 
HETATM   11  C   UNL     1      62.201  11.403   4.467  1.00  0.00     0.020 A 
HETATM   12  H   UNL     1      62.829   7.129   2.493  1.00  0.00     0.161 HD
ENDROOT
TORSDOF 0
ENDMDL
MODEL 3
REMARK VINA RESULT:      -4.0      2.310      3.280
REMARK  0 active torsions:
REMARK  status: ('A' for Active; 'I' for Inactive)
ROOT
HETATM    1  C   UNL     1      62.009   9.790   2.588  1.00  0.00     0.135 A 
HETATM    2  N   UNL     1      61.483   9.551   1.315  1.00  0.00    -0.372 N 
HETATM    3  N   UNL     1      61.699  10.973   3.152  1.00  0.00    -0.350 N 
ATOM      4  HN  UNL     1      61.132  11.664   2.662  1.00  0.00     0.166 HD
HETATM    5  C   UNL     1      62.794   8.824   3.239  1.00  0.00     0.112 A 
HETATM    6  O   UNL     1      63.178   7.633   2.670  1.00  0.00    -0.346 OA
HETATM    7  C   UNL     1      62.281   8.592   0.577  1.00  0.00     0.148 C 
HETATM    8  C   UNL     1      62.173  11.205   4.398  1.00  0.00     0.090 A 
HETATM    9  C   UNL     1      62.473   7.347   1.448  1.00  0.00     0.195 C 
HETATM   10  C   UNL     1      63.281   9.098   4.512  1.00  0.00     0.042 A 
HETATM   11  C   UNL     1      62.960  10.312   5.110  1.00  0.00     0.020 A 
HETATM   12  H   UNL     1      60.670   9.981   0.963  1.00  0.00     0.161 HD
ENDROOT
TORSDOF 0
ENDMDL
MODEL 4
REMARK VINA RESULT:      -4.0      0.841      3.308
REMARK  0 active torsions:
REMARK  status: ('A' for Active; 'I' for Inactive)
ROOT
HETATM    1  C   UNL     1      63.898   9.050   5.106  1.00  0.00     0.135 A 
HETATM    2  N   UNL     1      63.188  10.153   5.589  1.00  0.00    -0.372 N 
HETATM    3  N   UNL     1      64.978   8.674   5.818  1.00  0.00    -0.350 N 
ATOM      4  HN  UNL     1      65.271   9.185   6.650  1.00  0.00     0.166 HD
HETATM    5  C   UNL     1      63.476   8.368   3.953  1.00  0.00     0.112 A 
HETATM    6  O   UNL     1      62.416   8.760   3.171  1.00  0.00    -0.346 OA
HETATM    7  C   UNL     1      62.450  10.820   4.535  1.00  0.00     0.148 C 
HETATM    8  C   UNL     1      65.655   7.588   5.380  1.00  0.00     0.090 A 
HETATM    9  C   UNL     1      61.609   9.775   3.795  1.00  0.00     0.195 C 
HETATM   10  C   UNL     1      64.204   7.266   3.519  1.00  0.00     0.042 A 
HETATM   11  C   UNL     1      65.314   6.860   4.251  1.00  0.00     0.020 A 
HETATM   12  H   UNL     1      63.188  10.442   6.531  1.00  0.00     0.161 HD
ENDROOT
TORSDOF 0
ENDMDL
MODEL 5
REMARK VINA RESULT:      -3.9      2.107      2.745
REMARK  0 active torsions:
REMARK  status: ('A' for Active; 'I' for Inactive)
ROOT
HETATM    1  C   UNL     1      64.850   7.589   4.302  1.00  0.00     0.135 A 
HETATM    2  N   UNL     1      65.974   6.772   4.453  1.00  0.00    -0.372 N 
HETATM    3  N   UNL     1      63.983   7.243   3.332  1.00  0.00    -0.350 N 
ATOM      4  HN  UNL     1      64.154   6.441   2.726  1.00  0.00     0.166 HD
HETATM    5  C   UNL     1      64.641   8.693   5.147  1.00  0.00     0.112 A 
HETATM    6  O   UNL     1      65.534   9.109   6.106  1.00  0.00    -0.346 OA
HETATM    7  C   UNL     1      67.078   7.485   5.065  1.00  0.00     0.148 C 
HETATM    8  C   UNL     1      62.874   8.005   3.197  1.00  0.00     0.090 A 
HETATM    9  C   UNL     1      66.575   8.146   6.352  1.00  0.00     0.195 C 
HETATM   10  C   UNL     1      63.500   9.467   4.971  1.00  0.00     0.042 A 
HETATM   11  C   UNL     1      62.591   9.114   3.980  1.00  0.00     0.020 A 
HETATM   12  H   UNL     1      66.012   5.827   4.178  1.00  0.00     0.161 HD
ENDROOT
TORSDOF 0
ENDMDL
MODEL 6
REMARK VINA RESULT:      -3.9     12.414     13.191
REMARK  0 active torsions:
REMARK  status: ('A' for Active; 'I' for Inactive)
ROOT
HETATM    1  C   UNL     1      56.669   2.158  13.791  1.00  0.00     0.135 A 
HETATM    2  N   UNL     1      55.430   2.219  14.437  1.00  0.00    -0.372 N 
HETATM    3  N   UNL     1      57.700   1.681  14.514  1.00  0.00    -0.350 N 
ATOM      4  HN  UNL     1      57.583   1.404  15.489  1.00  0.00     0.166 HD
HETATM    5  C   UNL     1      56.804   2.552  12.449  1.00  0.00     0.112 A 
HETATM    6  O   UNL     1      55.788   3.098  11.701  1.00  0.00    -0.346 OA
HETATM    7  C   UNL     1      54.565   3.220  13.845  1.00  0.00     0.148 C 
HETATM    8  C   UNL     1      58.896   1.584  13.892  1.00  0.00     0.090 A 
HETATM    9  C   UNL     1      54.502   2.973  12.334  1.00  0.00     0.195 C 
HETATM   10  C   UNL     1      58.051   2.457  11.842  1.00  0.00     0.042 A 
HETATM   11  C   UNL     1      59.121   1.956  12.575  1.00  0.00     0.020 A 
HETATM   12  H   UNL     1      55.176   1.652  15.202  1.00  0.00     0.161 HD
ENDROOT
TORSDOF 0
ENDMDL
MODEL 7
REMARK VINA RESULT:      -3.8      2.918      5.297
REMARK  0 active torsions:
REMARK  status: ('A' for Active; 'I' for Inactive)
ROOT
HETATM    1  C   UNL     1      66.413   7.256   7.262  1.00  0.00     0.135 A 
HETATM    2  N   UNL     1      66.155   8.444   6.572  1.00  0.00    -0.372 N 
HETATM    3  N   UNL     1      67.435   7.281   8.139  1.00  0.00    -0.350 N 
ATOM      4  HN  UNL     1      68.002   8.118   8.270  1.00  0.00     0.166 HD
HETATM    5  C   UNL     1      65.619   6.114   7.057  1.00  0.00     0.112 A 
HETATM    6  O   UNL     1      64.608   6.036   6.128  1.00  0.00    -0.346 OA
HETATM    7  C   UNL     1      65.483   8.198   5.311  1.00  0.00     0.148 C 
HETATM    8  C   UNL     1      67.674   6.148   8.837  1.00  0.00     0.090 A 
HETATM    9  C   UNL     1      64.257   7.318   5.578  1.00  0.00     0.195 C 
HETATM   10  C   UNL     1      65.902   4.960   7.778  1.00  0.00     0.042 A 
HETATM   11  C   UNL     1      66.947   4.976   8.694  1.00  0.00     0.020 A 
HETATM   12  H   UNL     1      66.399   9.340   6.902  1.00  0.00     0.161 HD
ENDROOT
TORSDOF 0
ENDMDL
MODEL 8
REMARK VINA RESULT:      -3.8      3.308      4.696
REMARK  0 active torsions:
REMARK  status: ('A' for Active; 'I' for Inactive)
ROOT
HETATM    1  C   UNL     1      66.134   6.943   7.281  1.00  0.00     0.135 A 
HETATM    2  N   UNL     1      67.268   7.224   8.049  1.00  0.00    -0.372 N 
HETATM    3  N   UNL     1      65.676   7.940   6.500  1.00  0.00    -0.350 N 
ATOM      4  HN  UNL     1      66.123   8.857   6.491  1.00  0.00     0.166 HD
HETATM    5  C   UNL     1      65.533   5.673   7.317  1.00  0.00     0.112 A 
HETATM    6  O   UNL     1      65.937   4.653   8.146  1.00  0.00    -0.346 OA
HETATM    7  C   UNL     1      67.345   6.375   9.222  1.00  0.00     0.148 C 
HETATM    8  C   UNL     1      64.600   7.672   5.727  1.00  0.00     0.090 A 
HETATM    9  C   UNL     1      67.204   4.916   8.775  1.00  0.00     0.195 C 
HETATM   10  C   UNL     1      64.417   5.434   6.523  1.00  0.00     0.042 A 
HETATM   11  C   UNL     1      63.942   6.451   5.704  1.00  0.00     0.020 A 
HETATM   12  H   UNL     1      67.933   7.913   7.821  1.00  0.00     0.161 HD
ENDROOT
TORSDOF 0
ENDMDL
MODEL 9
REMARK VINA RESULT:      -3.7      4.116      6.173
REMARK  0 active torsions:
REMARK  status: ('A' for Active; 'I' for Inactive)
ROOT
HETATM    1  C   UNL     1      66.149   5.014   7.252  1.00  0.00     0.135 A 
HETATM    2  N   UNL     1      65.282   4.532   6.267  1.00  0.00    -0.372 N 
HETATM    3  N   UNL     1      67.178   4.214   7.590  1.00  0.00    -0.350 N 
ATOM      4  HN  UNL     1      67.299   3.295   7.164  1.00  0.00     0.166 HD
HETATM    5  C   UNL     1      65.955   6.282   7.828  1.00  0.00     0.112 A 
HETATM    6  O   UNL     1      64.884   7.098   7.550  1.00  0.00    -0.346 OA
HETATM    7  C   UNL     1      63.965   5.130   6.372  1.00  0.00     0.148 C 
HETATM    8  C   UNL     1      68.044   4.682   8.517  1.00  0.00     0.090 A 
HETATM    9  C   UNL     1      64.126   6.653   6.411  1.00  0.00     0.195 C 
HETATM   10  C   UNL     1      66.852   6.727   8.791  1.00  0.00     0.042 A 
HETATM   11  C   UNL     1      67.925   5.915   9.141  1.00  0.00     0.020 A 
HETATM   12  H   UNL     1      65.534   3.867   5.585  1.00  0.00     0.161 HD
ENDROOT
TORSDOF 0
ENDMDL
