MODEL 1
REMARK VINA RESULT:      -3.4      0.000      0.000
REMARK  1 active torsions:
REMARK  status: ('A' for Active; 'I' for Inactive)
REMARK    1  A    between atoms: C_2  and  O_5 
ROOT
HETATM    1  S   UNL     1      62.604   8.095   2.154  1.00  0.00    -0.169 SA
HETATM    2  C   UNL     1      61.798  10.779   3.701  1.00  0.00     0.119 C 
HETATM    3  C   UNL     1      61.948  10.784   2.181  1.00  0.00     0.042 C 
HETATM    4  C   UNL     1      62.668   9.724   4.383  1.00  0.00     0.042 C 
HETATM    5  C   UNL     1      61.567   9.455   1.546  1.00  0.00     0.076 C 
HETATM    6  C   UNL     1      62.329   8.312   3.937  1.00  0.00     0.076 C 
ENDROOT
BRANCH   2   7
HETATM    7  O   UNL     1      62.142  12.067   4.208  1.00  0.00    -0.396 OA
HETATM    8  H   UNL     1      62.583  11.969   5.067  1.00  0.00     0.210 HD
ENDBRANCH   2   7
TORSDOF 1
ENDMDL
MODEL 2
REMARK VINA RESULT:      -3.3      1.671      1.989
REMARK  1 active torsions:
REMARK  status: ('A' for Active; 'I' for Inactive)
REMARK    1  A    between atoms: C_2  and  O_5 
ROOT
HETATM    1  S   UNL     1      62.546   8.506   2.869  1.00  0.00    -0.169 SA
HETATM    2  C   UNL     1      63.231  10.235   5.474  1.00  0.00     0.119 C 
HETATM    3  C   UNL     1      62.422  10.851   4.335  1.00  0.00     0.042 C 
HETATM    4  C   UNL     1      64.180   9.133   5.005  1.00  0.00     0.042 C 
HETATM    5  C   UNL     1      61.554   9.833   3.610  1.00  0.00     0.076 C 
HETATM    6  C   UNL     1      63.448   7.972   4.353  1.00  0.00     0.076 C 
ENDROOT
BRANCH   2   7
HETATM    7  O   UNL     1      63.986  11.260   6.117  1.00  0.00    -0.396 OA
HETATM    8  H   UNL     1      63.570  12.120   5.951  1.00  0.00     0.210 HD
ENDBRANCH   2   7
TORSDOF 1
ENDMDL
MODEL 3
REMARK VINA RESULT:      -3.0      1.384      2.483
REMARK  1 active torsions:
REMARK  status: ('A' for Active; 'I' for Inactive)
REMARK    1  A    between atoms: C_2  and  O_5 
ROOT
HETATM    1  S   UNL     1      61.784   8.715   2.898  1.00  0.00    -0.169 SA
HETATM    2  C   UNL     1      63.247  10.666   4.971  1.00  0.00     0.119 C 
HETATM    3  C   UNL     1      63.244   9.158   5.208  1.00  0.00     0.042 C 
HETATM    4  C   UNL     1      62.033  11.149   4.179  1.00  0.00     0.042 C 
HETATM    5  C   UNL     1      63.245   8.357   3.915  1.00  0.00     0.076 C 
HETATM    6  C   UNL     1      61.952  10.521   2.797  1.00  0.00     0.076 C 
ENDROOT
BRANCH   2   7
HETATM    7  O   UNL     1      63.279  11.336   6.230  1.00  0.00    -0.396 OA
HETATM    8  H   UNL     1      63.051  12.271   6.105  1.00  0.00     0.210 HD
ENDBRANCH   2   7
TORSDOF 1
ENDMDL
MODEL 4
REMARK VINA RESULT:      -3.0      1.102      2.363
REMARK  1 active torsions:
REMARK  status: ('A' for Active; 'I' for Inactive)
REMARK    1  A    between atoms: C_2  and  O_5 
ROOT
HETATM    1  S   UNL     1      62.596   7.097   1.713  1.00  0.00    -0.169 SA
HETATM    2  C   UNL     1      62.132  10.008   2.959  1.00  0.00     0.119 C 
HETATM    3  C   UNL     1      62.437   8.823   3.871  1.00  0.00     0.042 C 
HETATM    4  C   UNL     1      61.432   9.600   1.664  1.00  0.00     0.042 C 
HETATM    5  C   UNL     1      63.342   7.790   3.215  1.00  0.00     0.076 C 
HETATM    6  C   UNL     1      62.267   8.647   0.825  1.00  0.00     0.076 C 
ENDROOT
BRANCH   2   7
HETATM    7  O   UNL     1      61.310  10.938   3.661  1.00  0.00    -0.396 OA
HETATM    8  H   UNL     1      61.868  11.517   4.204  1.00  0.00     0.210 HD
ENDBRANCH   2   7
TORSDOF 1
ENDMDL
MODEL 5
REMARK VINA RESULT:      -2.8      6.037      6.908
REMARK  1 active torsions:
REMARK  status: ('A' for Active; 'I' for Inactive)
REMARK    1  A    between atoms: C_2  and  O_5 
ROOT
HETATM    1  S   UNL     1      67.259   4.712   6.602  1.00  0.00    -0.169 SA
HETATM    2  C   UNL     1      66.820   7.876   6.403  1.00  0.00     0.119 C 
HETATM    3  C   UNL     1      66.592   7.152   7.728  1.00  0.00     0.042 C 
HETATM    4  C   UNL     1      66.583   6.984   5.186  1.00  0.00     0.042 C 
HETATM    5  C   UNL     1      67.507   5.949   7.907  1.00  0.00     0.076 C 
HETATM    6  C   UNL     1      67.510   5.781   5.155  1.00  0.00     0.076 C 
ENDROOT
BRANCH   2   7
HETATM    7  O   UNL     1      65.949   9.004   6.332  1.00  0.00    -0.396 OA
HETATM    8  H   UNL     1      65.561   9.168   7.206  1.00  0.00     0.210 HD
ENDBRANCH   2   7
TORSDOF 1
ENDMDL
MODEL 6
REMARK VINA RESULT:      -2.7     13.098     14.012
REMARK  1 active torsions:
REMARK  status: ('A' for Active; 'I' for Inactive)
REMARK    1  A    between atoms: C_2  and  O_5 
ROOT
HETATM    1  S   UNL     1      55.740   0.575  12.451  1.00  0.00    -0.169 SA
HETATM    2  C   UNL     1      58.412   1.897  13.616  1.00  0.00     0.119 C 
HETATM    3  C   UNL     1      57.857   2.350  12.268  1.00  0.00     0.042 C 
HETATM    4  C   UNL     1      58.052   0.451  13.955  1.00  0.00     0.042 C 
HETATM    5  C   UNL     1      56.339   2.270  12.198  1.00  0.00     0.076 C 
HETATM    6  C   UNL     1      56.552   0.228  14.038  1.00  0.00     0.076 C 
ENDROOT
BRANCH   2   7
HETATM    7  O   UNL     1      59.832   2.035  13.606  1.00  0.00    -0.396 OA
HETATM    8  H   UNL     1      60.236   1.243  13.993  1.00  0.00     0.210 HD
ENDBRANCH   2   7
TORSDOF 1
ENDMDL
MODEL 7
REMARK VINA RESULT:      -2.7      1.439      1.622
REMARK  1 active torsions:
REMARK  status: ('A' for Active; 'I' for Inactive)
REMARK    1  A    between atoms: C_2  and  O_5 
ROOT
HETATM    1  S   UNL     1      63.232   6.881   2.398  1.00  0.00    -0.169 SA
HETATM    2  C   UNL     1      61.565   9.313   3.643  1.00  0.00     0.119 C 
HETATM    3  C   UNL     1      61.260   8.817   2.232  1.00  0.00     0.042 C 
HETATM    4  C   UNL     1      63.015   9.077   4.059  1.00  0.00     0.042 C 
HETATM    5  C   UNL     1      61.503   7.324   2.066  1.00  0.00     0.076 C 
HETATM    6  C   UNL     1      63.390   7.604   4.057  1.00  0.00     0.076 C 
ENDROOT
BRANCH   2   7
HETATM    7  O   UNL     1      61.279  10.708   3.719  1.00  0.00    -0.396 OA
HETATM    8  H   UNL     1      61.554  11.140   2.895  1.00  0.00     0.210 HD
ENDBRANCH   2   7
TORSDOF 1
ENDMDL
MODEL 8
REMARK VINA RESULT:      -2.6      2.640      3.771
REMARK  1 active torsions:
REMARK  status: ('A' for Active; 'I' for Inactive)
REMARK    1  A    between atoms: C_2  and  O_5 
ROOT
HETATM    1  S   UNL     1      61.723   7.078   4.665  1.00  0.00    -0.169 SA
HETATM    2  C   UNL     1      64.501   8.595   5.143  1.00  0.00     0.119 C 
HETATM    3  C   UNL     1      64.188   7.308   5.903  1.00  0.00     0.042 C 
HETATM    4  C   UNL     1      63.248   9.379   4.754  1.00  0.00     0.042 C 
HETATM    5  C   UNL     1      63.325   6.345   5.103  1.00  0.00     0.076 C 
HETATM    6  C   UNL     1      62.323   8.586   3.847  1.00  0.00     0.076 C 
ENDROOT
BRANCH   2   7
HETATM    7  O   UNL     1      65.338   9.422   5.949  1.00  0.00    -0.396 OA
HETATM    8  H   UNL     1      66.268   9.240   5.742  1.00  0.00     0.210 HD
ENDBRANCH   2   7
TORSDOF 1
ENDMDL
MODEL 9
REMARK VINA RESULT:      -2.6      6.724      7.195
REMARK  1 active torsions:
REMARK  status: ('A' for Active; 'I' for Inactive)
REMARK    1  A    between atoms: C_2  and  O_5 
ROOT
HETATM    1  S   UNL     1      57.370   6.815   5.365  1.00  0.00    -0.169 SA
HETATM    2  C   UNL     1      58.006   6.290   8.458  1.00  0.00     0.119 C 
HETATM    3  C   UNL     1      57.010   7.373   8.053  1.00  0.00     0.042 C 
HETATM    4  C   UNL     1      59.071   6.030   7.394  1.00  0.00     0.042 C 
HETATM    5  C   UNL     1      56.251   7.031   6.779  1.00  0.00     0.076 C 
HETATM    6  C   UNL     1      58.476   5.562   6.076  1.00  0.00     0.076 C 
ENDROOT
BRANCH   2   7
HETATM    7  O   UNL     1      58.645   6.674   9.673  1.00  0.00    -0.396 OA
HETATM    8  H   UNL     1      58.417   6.042  10.373  1.00  0.00     0.210 HD
ENDBRANCH   2   7
TORSDOF 1
ENDMDL
