MODEL 1
REMARK VINA RESULT:      -3.5      0.000      0.000
REMARK  2 active torsions:
REMARK  status: ('A' for Active; 'I' for Inactive)
REMARK    1  A    between atoms: N_1  and  C_4 
REMARK    2  A    between atoms: C_4  and  C_6 
ROOT
HETATM    1  S   UNL     1      59.806   7.281   2.437  1.00  0.00    -0.169 SA
HETATM    2  C   UNL     1      62.390   9.061   1.684  1.00  0.00     0.075 C 
HETATM    3  C   UNL     1      60.054   8.285   0.947  1.00  0.00     0.075 C 
HETATM    4  C   UNL     1      60.895   8.179   3.578  1.00  0.00     0.075 C 
HETATM    5  C   UNL     1      61.534   8.407   0.589  1.00  0.00     0.028 C 
HETATM    6  C   UNL     1      62.311   8.303   3.017  1.00  0.00     0.028 C 
ENDROOT
BRANCH   2   7
HETATM    7  C   UNL     1      61.931  10.495   1.889  1.00  0.00    -0.073 C 
BRANCH   7   8
HETATM    8  N   UNL     1      61.551  11.685   2.060  1.00  0.00    -0.369 N 
ATOM      9  HN2 UNL     1      61.858  10.722   1.922  1.00  0.00     0.165 HD
ATOM     10  HN1 UNL     1      61.243  12.647   2.197  1.00  0.00     0.165 HD
ENDBRANCH   7   8
ENDBRANCH   2   7
TORSDOF 2
ENDMDL
MODEL 2
REMARK VINA RESULT:      -3.3      2.178      2.828
REMARK  2 active torsions:
REMARK  status: ('A' for Active; 'I' for Inactive)
REMARK    1  A    between atoms: N_1  and  C_4 
REMARK    2  A    between atoms: C_4  and  C_6 
ROOT
HETATM    1  S   UNL     1      62.766   8.934   4.042  1.00  0.00    -0.169 SA
HETATM    2  C   UNL     1      61.795   8.886   0.966  1.00  0.00     0.075 C 
HETATM    3  C   UNL     1      62.359   7.478   3.041  1.00  0.00     0.075 C 
HETATM    4  C   UNL     1      61.746  10.170   3.190  1.00  0.00     0.075 C 
HETATM    5  C   UNL     1      62.614   7.727   1.555  1.00  0.00     0.028 C 
HETATM    6  C   UNL     1      62.055  10.213   1.694  1.00  0.00     0.028 C 
ENDROOT
BRANCH   2   7
HETATM    7  C   UNL     1      60.316   8.546   1.044  1.00  0.00    -0.073 C 
BRANCH   7   8
HETATM    8  N   UNL     1      59.090   8.264   1.108  1.00  0.00    -0.369 N 
ATOM      9  HN2 UNL     1      60.082   8.492   1.056  1.00  0.00     0.165 HD
ATOM     10  HN1 UNL     1      58.097   8.036   1.160  1.00  0.00     0.165 HD
ENDBRANCH   7   8
ENDBRANCH   2   7
TORSDOF 2
ENDMDL
MODEL 3
REMARK VINA RESULT:      -3.3      3.858      4.500
REMARK  2 active torsions:
REMARK  status: ('A' for Active; 'I' for Inactive)
REMARK    1  A    between atoms: N_1  and  C_4 
REMARK    2  A    between atoms: C_4  and  C_6 
ROOT
HETATM    1  S   UNL     1      64.045   6.479   6.411  1.00  0.00    -0.169 SA
HETATM    2  C   UNL     1      63.457   8.937   4.406  1.00  0.00     0.075 C 
HETATM    3  C   UNL     1      62.484   7.376   6.200  1.00  0.00     0.075 C 
HETATM    4  C   UNL     1      65.202   7.778   5.893  1.00  0.00     0.075 C 
HETATM    5  C   UNL     1      62.347   7.946   4.790  1.00  0.00     0.028 C 
HETATM    6  C   UNL     1      64.856   8.312   4.504  1.00  0.00     0.028 C 
ENDROOT
BRANCH   2   7
HETATM    7  C   UNL     1      63.381  10.153   5.314  1.00  0.00    -0.073 C 
BRANCH   7   8
HETATM    8  N   UNL     1      63.317  11.161   6.067  1.00  0.00    -0.369 N 
ATOM      9  HN2 UNL     1      63.368  10.345   5.458  1.00  0.00     0.165 HD
ATOM     10  HN1 UNL     1      63.266  11.977   6.677  1.00  0.00     0.165 HD
ENDBRANCH   7   8
ENDBRANCH   2   7
TORSDOF 2
ENDMDL
MODEL 4
REMARK VINA RESULT:      -3.1     12.803     13.899
REMARK  2 active torsions:
REMARK  status: ('A' for Active; 'I' for Inactive)
REMARK    1  A    between atoms: N_1  and  C_4 
REMARK    2  A    between atoms: C_4  and  C_6 
ROOT
HETATM    1  S   UNL     1      58.011  -1.246  13.376  1.00  0.00    -0.169 SA
HETATM    2  C   UNL     1      59.488   1.622  13.319  1.00  0.00     0.075 C 
HETATM    3  C   UNL     1      59.128  -0.610  12.096  1.00  0.00     0.075 C 
HETATM    4  C   UNL     1      57.385   0.328  14.027  1.00  0.00     0.075 C 
HETATM    5  C   UNL     1      60.133   0.387  12.670  1.00  0.00     0.028 C 
HETATM    6  C   UNL     1      58.527   1.248  14.456  1.00  0.00     0.028 C 
ENDROOT
BRANCH   2   7
HETATM    7  C   UNL     1      58.737   2.410  12.258  1.00  0.00    -0.073 C 
BRANCH   7   8
HETATM    8  N   UNL     1      58.114   3.064  11.379  1.00  0.00    -0.369 N 
ATOM      9  HN2 UNL     1      58.618   2.535  12.091  1.00  0.00     0.165 HD
ATOM     10  HN1 UNL     1      57.610   3.593  10.668  1.00  0.00     0.165 HD
ENDBRANCH   7   8
ENDBRANCH   2   7
TORSDOF 2
ENDMDL
MODEL 5
REMARK VINA RESULT:      -3.1      4.932      5.707
REMARK  2 active torsions:
REMARK  status: ('A' for Active; 'I' for Inactive)
REMARK    1  A    between atoms: N_1  and  C_4 
REMARK    2  A    between atoms: C_4  and  C_6 
ROOT
HETATM    1  S   UNL     1      65.949   6.441   7.319  1.00  0.00    -0.169 SA
HETATM    2  C   UNL     1      64.884   7.839   4.614  1.00  0.00     0.075 C 
HETATM    3  C   UNL     1      64.256   6.429   6.669  1.00  0.00     0.075 C 
HETATM    4  C   UNL     1      66.539   7.986   6.573  1.00  0.00     0.075 C 
HETATM    5  C   UNL     1      64.237   6.551   5.146  1.00  0.00     0.028 C 
HETATM    6  C   UNL     1      66.347   7.983   5.057  1.00  0.00     0.028 C 
ENDROOT
BRANCH   2   7
HETATM    7  C   UNL     1      64.087   9.039   5.099  1.00  0.00    -0.073 C 
BRANCH   7   8
HETATM    8  N   UNL     1      63.427  10.033   5.502  1.00  0.00    -0.369 N 
ATOM      9  HN2 UNL     1      63.961   9.228   5.176  1.00  0.00     0.165 HD
ATOM     10  HN1 UNL     1      62.892  10.839   5.828  1.00  0.00     0.165 HD
ENDBRANCH   7   8
ENDBRANCH   2   7
TORSDOF 2
ENDMDL
MODEL 6
REMARK VINA RESULT:      -3.0     12.968     14.045
REMARK  2 active torsions:
REMARK  status: ('A' for Active; 'I' for Inactive)
REMARK    1  A    between atoms: N_1  and  C_4 
REMARK    2  A    between atoms: C_4  and  C_6 
ROOT
HETATM    1  S   UNL     1      56.314   0.906  12.825  1.00  0.00    -0.169 SA
HETATM    2  C   UNL     1      59.401   1.768  13.200  1.00  0.00     0.075 C 
HETATM    3  C   UNL     1      57.455   0.368  14.128  1.00  0.00     0.075 C 
HETATM    4  C   UNL     1      57.518   1.286  11.521  1.00  0.00     0.075 C 
HETATM    5  C   UNL     1      58.523   1.423  14.413  1.00  0.00     0.028 C 
HETATM    6  C   UNL     1      58.576   2.274  12.009  1.00  0.00     0.028 C 
ENDROOT
BRANCH   2   7
HETATM    7  C   UNL     1      60.188   0.536  12.784  1.00  0.00    -0.073 C 
BRANCH   7   8
HETATM    8  N   UNL     1      60.841  -0.485  12.440  1.00  0.00    -0.369 N 
ATOM      9  HN2 UNL     1      60.312   0.341  12.719  1.00  0.00     0.165 HD
ATOM     10  HN1 UNL     1      61.369  -1.312  12.161  1.00  0.00     0.165 HD
ENDBRANCH   7   8
ENDBRANCH   2   7
TORSDOF 2
ENDMDL
MODEL 7
REMARK VINA RESULT:      -2.9      6.121      6.995
REMARK  2 active torsions:
REMARK  status: ('A' for Active; 'I' for Inactive)
REMARK    1  A    between atoms: N_1  and  C_4 
REMARK    2  A    between atoms: C_4  and  C_6 
ROOT
HETATM    1  S   UNL     1      67.161   4.878   5.827  1.00  0.00    -0.169 SA
HETATM    2  C   UNL     1      66.890   8.054   6.328  1.00  0.00     0.075 C 
HETATM    3  C   UNL     1      67.212   6.196   4.582  1.00  0.00     0.075 C 
HETATM    4  C   UNL     1      66.165   5.712   7.094  1.00  0.00     0.075 C 
HETATM    5  C   UNL     1      67.736   7.505   5.169  1.00  0.00     0.028 C 
HETATM    6  C   UNL     1      66.775   7.056   7.489  1.00  0.00     0.028 C 
ENDROOT
BRANCH   2   7
HETATM    7  C   UNL     1      65.501   8.398   5.815  1.00  0.00    -0.073 C 
BRANCH   7   8
HETATM    8  N   UNL     1      64.350   8.684   5.391  1.00  0.00    -0.369 N 
ATOM      9  HN2 UNL     1      65.282   8.453   5.735  1.00  0.00     0.165 HD
ATOM     10  HN1 UNL     1      63.418   8.915   5.047  1.00  0.00     0.165 HD
ENDBRANCH   7   8
ENDBRANCH   2   7
TORSDOF 2
ENDMDL
MODEL 8
REMARK VINA RESULT:      -2.9     12.584     13.415
REMARK  2 active torsions:
REMARK  status: ('A' for Active; 'I' for Inactive)
REMARK    1  A    between atoms: N_1  and  C_4 
REMARK    2  A    between atoms: C_4  and  C_6 
ROOT
HETATM    1  S   UNL     1      56.791   0.541  10.755  1.00  0.00    -0.169 SA
HETATM    2  C   UNL     1      59.276   1.729  12.434  1.00  0.00     0.075 C 
HETATM    3  C   UNL     1      56.904   2.168  11.548  1.00  0.00     0.075 C 
HETATM    4  C   UNL     1      57.950  -0.379  11.806  1.00  0.00     0.075 C 
HETATM    5  C   UNL     1      58.349   2.655  11.631  1.00  0.00     0.028 C 
HETATM    6  C   UNL     1      59.315   0.305  11.863  1.00  0.00     0.028 C 
ENDROOT
BRANCH   2   7
HETATM    7  C   UNL     1      58.809   1.684  13.880  1.00  0.00    -0.073 C 
BRANCH   7   8
HETATM    8  N   UNL     1      58.422   1.645  15.078  1.00  0.00    -0.369 N 
ATOM      9  HN2 UNL     1      58.736   1.676  14.108  1.00  0.00     0.165 HD
ATOM     10  HN1 UNL     1      58.109   1.615  16.049  1.00  0.00     0.165 HD
ENDBRANCH   7   8
ENDBRANCH   2   7
TORSDOF 2
ENDMDL
MODEL 9
REMARK VINA RESULT:      -2.9     13.130     14.459
REMARK  2 active torsions:
REMARK  status: ('A' for Active; 'I' for Inactive)
REMARK    1  A    between atoms: N_1  and  C_4 
REMARK    2  A    between atoms: C_4  and  C_6 
ROOT
HETATM    1  S   UNL     1      59.175   0.841  10.975  1.00  0.00    -0.169 SA
HETATM    2  C   UNL     1      58.714   0.447  14.143  1.00  0.00     0.075 C 
HETATM    3  C   UNL     1      58.733   2.114  12.188  1.00  0.00     0.075 C 
HETATM    4  C   UNL     1      58.490  -0.614  11.815  1.00  0.00     0.075 C 
HETATM    5  C   UNL     1      59.255   1.770  13.581  1.00  0.00     0.028 C 
HETATM    6  C   UNL     1      59.037  -0.748  13.235  1.00  0.00     0.028 C 
ENDROOT
BRANCH   2   7
HETATM    7  C   UNL     1      57.208   0.556  14.320  1.00  0.00    -0.073 C 
BRANCH   7   8
HETATM    8  N   UNL     1      55.960   0.646  14.467  1.00  0.00    -0.369 N 
ATOM      9  HN2 UNL     1      56.970   0.573  14.348  1.00  0.00     0.165 HD
ATOM     10  HN1 UNL     1      54.949   0.719  14.586  1.00  0.00     0.165 HD
ENDBRANCH   7   8
ENDBRANCH   2   7
TORSDOF 2
ENDMDL
