MODEL 1
REMARK VINA RESULT:      -5.7      0.000      0.000
REMARK  3 active torsions:
REMARK  status: ('A' for Active; 'I' for Inactive)
REMARK    1  A    between atoms: C_3  and  C_7 
REMARK    2  A    between atoms: C_6  and  C_8 
REMARK    3  A    between atoms: C_8  and  N_9 
ROOT
HETATM    1  N   UNL     1      62.867   8.029   6.203  1.00  0.00    -0.260 N 
ATOM      2  HN  UNL     1      61.882   8.199   6.407  1.00  0.00     0.195 HD
HETATM    3  C   UNL     1      63.543   8.426   5.110  1.00  0.00     0.067 A 
HETATM    4  C   UNL     1      64.893   7.987   5.187  1.00  0.00     0.069 A 
HETATM    5  O   UNL     1      63.769   7.344   6.994  1.00  0.00    -0.240 OA
HETATM    6  C   UNL     1      64.981   7.315   6.381  1.00  0.00     0.104 A 
ENDROOT
BRANCH   3   7
HETATM    7  C   UNL     1      62.910   9.188   4.037  1.00  0.00    -0.007 A 
HETATM    8  C   UNL     1      62.466  10.501   4.260  1.00  0.00     0.014 A 
HETATM    9  C   UNL     1      61.872  11.236   3.231  1.00  0.00     0.001 A 
HETATM   10  C   UNL     1      61.720  10.669   1.967  1.00  0.00     0.000 A 
HETATM   11  C   UNL     1      62.153   9.366   1.732  1.00  0.00     0.001 A 
HETATM   12  C   UNL     1      62.742   8.627   2.763  1.00  0.00     0.014 A 
ENDBRANCH   3   7
BRANCH   6  13
HETATM   13  C   UNL     1      66.071   6.604   7.081  1.00  0.00     0.296 C 
BRANCH  13  14
HETATM   14  N   UNL     1      67.073   7.549   7.569  1.00  0.00    -0.073 N 
HETATM   15  H   UNL     1      67.779   7.047   8.108  1.00  0.00     0.274 HD
HETATM   16  H   UNL     1      66.623   8.246   8.163  1.00  0.00     0.274 HD
HETATM   17  H   UNL     1      67.517   8.013   6.777  1.00  0.00     0.274 HD
ENDBRANCH  13  14
ENDBRANCH   6  13
TORSDOF 3
ENDMDL
MODEL 2
REMARK VINA RESULT:      -4.9      1.643      2.073
REMARK  3 active torsions:
REMARK  status: ('A' for Active; 'I' for Inactive)
REMARK    1  A    between atoms: C_3  and  C_7 
REMARK    2  A    between atoms: C_6  and  C_8 
REMARK    3  A    between atoms: C_8  and  N_9 
ROOT
HETATM    1  N   UNL     1      63.725   9.575   5.218  1.00  0.00    -0.260 N 
ATOM      2  HN  UNL     1      63.060  10.337   5.358  1.00  0.00     0.195 HD
HETATM    3  C   UNL     1      63.617   8.563   4.339  1.00  0.00     0.067 A 
HETATM    4  C   UNL     1      64.739   7.698   4.452  1.00  0.00     0.069 A 
HETATM    5  O   UNL     1      64.914   9.382   5.893  1.00  0.00    -0.240 OA
HETATM    6  C   UNL     1      65.517   8.253   5.438  1.00  0.00     0.104 A 
ENDROOT
BRANCH   3   7
HETATM    7  C   UNL     1      62.474   8.433   3.438  1.00  0.00    -0.007 A 
HETATM    8  C   UNL     1      62.475   9.073   2.189  1.00  0.00     0.014 A 
HETATM    9  C   UNL     1      61.389   8.938   1.320  1.00  0.00     0.001 A 
HETATM   10  C   UNL     1      60.293   8.160   1.689  1.00  0.00     0.000 A 
HETATM   11  C   UNL     1      60.278   7.522   2.927  1.00  0.00     0.001 A 
HETATM   12  C   UNL     1      61.361   7.660   3.800  1.00  0.00     0.014 A 
ENDBRANCH   3   7
BRANCH   6  13
HETATM   13  C   UNL     1      66.803   7.879   6.064  1.00  0.00     0.296 C 
BRANCH  13  14
HETATM   14  N   UNL     1      67.022   8.643   7.290  1.00  0.00    -0.073 N 
HETATM   15  H   UNL     1      67.958   9.048   7.275  1.00  0.00     0.274 HD
HETATM   16  H   UNL     1      66.932   8.024   8.097  1.00  0.00     0.274 HD
HETATM   17  H   UNL     1      66.329   9.388   7.354  1.00  0.00     0.274 HD
ENDBRANCH  13  14
ENDBRANCH   6  13
TORSDOF 3
ENDMDL
MODEL 3
REMARK VINA RESULT:      -4.7      1.587      2.157
REMARK  3 active torsions:
REMARK  status: ('A' for Active; 'I' for Inactive)
REMARK    1  A    between atoms: C_3  and  C_7 
REMARK    2  A    between atoms: C_6  and  C_8 
REMARK    3  A    between atoms: C_8  and  N_9 
ROOT
HETATM    1  N   UNL     1      65.502   8.025   5.476  1.00  0.00    -0.260 N 
ATOM      2  HN  UNL     1      66.106   8.770   5.127  1.00  0.00     0.195 HD
HETATM    3  C   UNL     1      64.165   7.950   5.357  1.00  0.00     0.067 A 
HETATM    4  C   UNL     1      63.687   6.767   5.983  1.00  0.00     0.069 A 
HETATM    5  O   UNL     1      65.898   6.895   6.164  1.00  0.00    -0.240 OA
HETATM    6  C   UNL     1      64.808   6.145   6.472  1.00  0.00     0.104 A 
ENDROOT
BRANCH   3   7
HETATM    7  C   UNL     1      63.385   8.981   4.677  1.00  0.00    -0.007 A 
HETATM    8  C   UNL     1      62.851   8.746   3.401  1.00  0.00     0.014 A 
HETATM    9  C   UNL     1      62.093   9.727   2.755  1.00  0.00     0.001 A 
HETATM   10  C   UNL     1      61.857  10.950   3.380  1.00  0.00     0.000 A 
HETATM   11  C   UNL     1      62.383  11.198   4.646  1.00  0.00     0.001 A 
HETATM   12  C   UNL     1      63.147  10.220   5.290  1.00  0.00     0.014 A 
ENDBRANCH   3   7
BRANCH   6  13
HETATM   13  C   UNL     1      65.043   4.897   7.229  1.00  0.00     0.296 C 
BRANCH  13  14
HETATM   14  N   UNL     1      65.968   5.131   8.335  1.00  0.00    -0.073 N 
HETATM   15  H   UNL     1      65.721   6.001   8.807  1.00  0.00     0.274 HD
HETATM   16  H   UNL     1      66.921   5.199   7.974  1.00  0.00     0.274 HD
HETATM   17  H   UNL     1      65.909   4.358   8.997  1.00  0.00     0.274 HD
ENDBRANCH  13  14
ENDBRANCH   6  13
TORSDOF 3
ENDMDL
MODEL 4
REMARK VINA RESULT:      -4.4      2.272      5.643
REMARK  3 active torsions:
REMARK  status: ('A' for Active; 'I' for Inactive)
REMARK    1  A    between atoms: C_3  and  C_7 
REMARK    2  A    between atoms: C_6  and  C_8 
REMARK    3  A    between atoms: C_8  and  N_9 
ROOT
HETATM    1  N   UNL     1      63.835   7.739   3.577  1.00  0.00    -0.260 N 
ATOM      2  HN  UNL     1      64.099   6.875   3.103  1.00  0.00     0.195 HD
HETATM    3  C   UNL     1      64.378   8.239   4.702  1.00  0.00     0.067 A 
HETATM    4  C   UNL     1      63.733   9.456   5.054  1.00  0.00     0.069 A 
HETATM    5  O   UNL     1      62.850   8.627   3.190  1.00  0.00    -0.240 OA
HETATM    6  C   UNL     1      62.786   9.651   4.080  1.00  0.00     0.104 A 
ENDROOT
BRANCH   3   7
HETATM    7  C   UNL     1      65.465   7.565   5.408  1.00  0.00    -0.007 A 
HETATM    8  C   UNL     1      66.771   7.588   4.895  1.00  0.00     0.014 A 
HETATM    9  C   UNL     1      67.814   6.955   5.576  1.00  0.00     0.001 A 
HETATM   10  C   UNL     1      67.564   6.298   6.779  1.00  0.00     0.000 A 
HETATM   11  C   UNL     1      66.272   6.265   7.298  1.00  0.00     0.001 A 
HETATM   12  C   UNL     1      65.226   6.892   6.614  1.00  0.00     0.014 A 
ENDBRANCH   3   7
BRANCH   6  13
HETATM   13  C   UNL     1      61.769  10.695   3.831  1.00  0.00     0.296 C 
BRANCH  13  14
HETATM   14  N   UNL     1      61.662  10.980   2.402  1.00  0.00    -0.073 N 
HETATM   15  H   UNL     1      60.774  11.448   2.215  1.00  0.00     0.274 HD
HETATM   16  H   UNL     1      61.703  10.106   1.876  1.00  0.00     0.274 HD
HETATM   17  H   UNL     1      62.431  11.585   2.118  1.00  0.00     0.274 HD
ENDBRANCH  13  14
ENDBRANCH   6  13
TORSDOF 3
ENDMDL
MODEL 5
REMARK VINA RESULT:      -4.2      2.017      2.423
REMARK  3 active torsions:
REMARK  status: ('A' for Active; 'I' for Inactive)
REMARK    1  A    between atoms: C_3  and  C_7 
REMARK    2  A    between atoms: C_6  and  C_8 
REMARK    3  A    between atoms: C_8  and  N_9 
ROOT
HETATM    1  N   UNL     1      61.597   6.809   4.306  1.00  0.00    -0.260 N 
ATOM      2  HN  UNL     1      60.596   6.966   4.186  1.00  0.00     0.195 HD
HETATM    3  C   UNL     1      62.591   7.651   3.971  1.00  0.00     0.067 A 
HETATM    4  C   UNL     1      63.849   7.070   4.284  1.00  0.00     0.069 A 
HETATM    5  O   UNL     1      62.200   5.689   4.845  1.00  0.00    -0.240 OA
HETATM    6  C   UNL     1      63.549   5.845   4.825  1.00  0.00     0.104 A 
ENDROOT
BRANCH   3   7
HETATM    7  C   UNL     1      62.333   8.956   3.365  1.00  0.00    -0.007 A 
HETATM    8  C   UNL     1      62.230   9.088   1.972  1.00  0.00     0.014 A 
HETATM    9  C   UNL     1      61.970  10.333   1.392  1.00  0.00     0.001 A 
HETATM   10  C   UNL     1      61.808  11.457   2.199  1.00  0.00     0.000 A 
HETATM   11  C   UNL     1      61.911  11.341   3.583  1.00  0.00     0.001 A 
HETATM   12  C   UNL     1      62.177  10.098   4.164  1.00  0.00     0.014 A 
ENDBRANCH   3   7
BRANCH   6  13
HETATM   13  C   UNL     1      64.362   4.728   5.353  1.00  0.00     0.296 C 
BRANCH  13  14
HETATM   14  N   UNL     1      64.658   4.930   6.769  1.00  0.00    -0.073 N 
HETATM   15  H   UNL     1      64.361   5.865   7.049  1.00  0.00     0.274 HD
HETATM   16  H   UNL     1      65.662   4.832   6.924  1.00  0.00     0.274 HD
HETATM   17  H   UNL     1      64.159   4.235   7.323  1.00  0.00     0.274 HD
ENDBRANCH  13  14
ENDBRANCH   6  13
TORSDOF 3
ENDMDL
MODEL 6
REMARK VINA RESULT:      -4.1     12.846     14.156
REMARK  3 active torsions:
REMARK  status: ('A' for Active; 'I' for Inactive)
REMARK    1  A    between atoms: C_3  and  C_7 
REMARK    2  A    between atoms: C_6  and  C_8 
REMARK    3  A    between atoms: C_8  and  N_9 
ROOT
HETATM    1  N   UNL     1      55.207   1.306  14.574  1.00  0.00    -0.260 N 
ATOM      2  HN  UNL     1      55.234   0.427  15.092  1.00  0.00     0.195 HD
HETATM    3  C   UNL     1      56.175   1.807  13.786  1.00  0.00     0.067 A 
HETATM    4  C   UNL     1      55.767   3.058  13.250  1.00  0.00     0.069 A 
HETATM    5  O   UNL     1      54.169   2.217  14.546  1.00  0.00    -0.240 OA
HETATM    6  C   UNL     1      54.509   3.269  13.757  1.00  0.00     0.104 A 
ENDROOT
BRANCH   3   7
HETATM    7  C   UNL     1      57.441   1.111  13.570  1.00  0.00    -0.007 A 
HETATM    8  C   UNL     1      58.585   1.819  13.171  1.00  0.00     0.014 A 
HETATM    9  C   UNL     1      59.801   1.156  12.977  1.00  0.00     0.001 A 
HETATM   10  C   UNL     1      59.885  -0.219  13.184  1.00  0.00     0.000 A 
HETATM   11  C   UNL     1      58.757  -0.935  13.577  1.00  0.00     0.001 A 
HETATM   12  C   UNL     1      57.539  -0.275  13.765  1.00  0.00     0.014 A 
ENDBRANCH   3   7
BRANCH   6  13
HETATM   13  C   UNL     1      53.516   4.356  13.622  1.00  0.00     0.296 C 
BRANCH  13  14
HETATM   14  N   UNL     1      53.706   5.360  14.666  1.00  0.00    -0.073 N 
HETATM   15  H   UNL     1      54.656   5.295  15.031  1.00  0.00     0.274 HD
HETATM   16  H   UNL     1      53.039   5.196  15.422  1.00  0.00     0.274 HD
HETATM   17  H   UNL     1      53.554   6.289  14.275  1.00  0.00     0.274 HD
ENDBRANCH  13  14
ENDBRANCH   6  13
TORSDOF 3
ENDMDL
MODEL 7
REMARK VINA RESULT:      -4.0      1.852      6.049
REMARK  3 active torsions:
REMARK  status: ('A' for Active; 'I' for Inactive)
REMARK    1  A    between atoms: C_3  and  C_7 
REMARK    2  A    between atoms: C_6  and  C_8 
REMARK    3  A    between atoms: C_8  and  N_9 
ROOT
HETATM    1  N   UNL     1      63.551   6.513   6.146  1.00  0.00    -0.260 N 
ATOM      2  HN  UNL     1      63.297   5.631   6.592  1.00  0.00     0.195 HD
HETATM    3  C   UNL     1      64.747   7.125   6.194  1.00  0.00     0.067 A 
HETATM    4  C   UNL     1      64.703   8.340   5.458  1.00  0.00     0.069 A 
HETATM    5  O   UNL     1      62.731   7.316   5.376  1.00  0.00    -0.240 OA
HETATM    6  C   UNL     1      63.422   8.413   4.969  1.00  0.00     0.104 A 
ENDROOT
BRANCH   3   7
HETATM    7  C   UNL     1      65.880   6.564   6.926  1.00  0.00    -0.007 A 
HETATM    8  C   UNL     1      66.954   5.979   6.239  1.00  0.00     0.014 A 
HETATM    9  C   UNL     1      68.045   5.454   6.938  1.00  0.00     0.001 A 
HETATM   10  C   UNL     1      68.074   5.512   8.330  1.00  0.00     0.000 A 
HETATM   11  C   UNL     1      67.013   6.087   9.025  1.00  0.00     0.001 A 
HETATM   12  C   UNL     1      65.919   6.607   8.327  1.00  0.00     0.014 A 
ENDBRANCH   3   7
BRANCH   6  13
HETATM   13  C   UNL     1      62.692   9.397   4.142  1.00  0.00     0.296 C 
BRANCH  13  14
HETATM   14  N   UNL     1      62.646  10.697   4.808  1.00  0.00    -0.073 N 
HETATM   15  H   UNL     1      62.863  10.580   5.798  1.00  0.00     0.274 HD
HETATM   16  H   UNL     1      61.712  11.096   4.709  1.00  0.00     0.274 HD
HETATM   17  H   UNL     1      63.330  11.321   4.382  1.00  0.00     0.274 HD
ENDBRANCH  13  14
ENDBRANCH   6  13
TORSDOF 3
ENDMDL
MODEL 8
REMARK VINA RESULT:      -3.9     11.560     12.321
REMARK  3 active torsions:
REMARK  status: ('A' for Active; 'I' for Inactive)
REMARK    1  A    between atoms: C_3  and  C_7 
REMARK    2  A    between atoms: C_6  and  C_8 
REMARK    3  A    between atoms: C_8  and  N_9 
ROOT
HETATM    1  N   UNL     1      61.334   0.082  10.742  1.00  0.00    -0.260 N 
ATOM      2  HN  UNL     1      60.597   0.413  10.119  1.00  0.00     0.195 HD
HETATM    3  C   UNL     1      61.241  -0.106  12.071  1.00  0.00     0.067 A 
HETATM    4  C   UNL     1      62.483  -0.565  12.585  1.00  0.00     0.069 A 
HETATM    5  O   UNL     1      62.624  -0.261  10.388  1.00  0.00    -0.240 OA
HETATM    6  C   UNL     1      63.313  -0.643  11.495  1.00  0.00     0.104 A 
ENDROOT
BRANCH   3   7
HETATM    7  C   UNL     1      60.008   0.156  12.809  1.00  0.00    -0.007 A 
HETATM    8  C   UNL     1      59.118  -0.888  13.104  1.00  0.00     0.014 A 
HETATM    9  C   UNL     1      57.944  -0.642  13.823  1.00  0.00     0.001 A 
HETATM   10  C   UNL     1      57.651   0.649  14.257  1.00  0.00     0.000 A 
HETATM   11  C   UNL     1      58.525   1.696  13.969  1.00  0.00     0.001 A 
HETATM   12  C   UNL     1      59.695   1.452  13.245  1.00  0.00     0.014 A 
ENDBRANCH   3   7
BRANCH   6  13
HETATM   13  C   UNL     1      64.726  -1.032  11.305  1.00  0.00     0.296 C 
BRANCH  13  14
HETATM   14  N   UNL     1      65.593   0.143  11.331  1.00  0.00    -0.073 N 
HETATM   15  H   UNL     1      66.504  -0.115  11.711  1.00  0.00     0.274 HD
HETATM   16  H   UNL     1      65.172   0.864  11.918  1.00  0.00     0.274 HD
HETATM   17  H   UNL     1      65.710   0.501  10.383  1.00  0.00     0.274 HD
ENDBRANCH  13  14
ENDBRANCH   6  13
TORSDOF 3
ENDMDL
MODEL 9
REMARK VINA RESULT:      -3.8     11.985     13.591
REMARK  3 active torsions:
REMARK  status: ('A' for Active; 'I' for Inactive)
REMARK    1  A    between atoms: C_3  and  C_7 
REMARK    2  A    between atoms: C_6  and  C_8 
REMARK    3  A    between atoms: C_8  and  N_9 
ROOT
HETATM    1  N   UNL     1      56.751   2.528  11.613  1.00  0.00    -0.260 N 
ATOM      2  HN  UNL     1      57.299   2.435  10.758  1.00  0.00     0.195 HD
HETATM    3  C   UNL     1      56.966   1.897  12.781  1.00  0.00     0.067 A 
HETATM    4  C   UNL     1      55.980   2.281  13.730  1.00  0.00     0.069 A 
HETATM    5  O   UNL     1      55.640   3.328  11.799  1.00  0.00    -0.240 OA
HETATM    6  C   UNL     1      55.176   3.174  13.066  1.00  0.00     0.104 A 
ENDROOT
BRANCH   3   7
HETATM    7  C   UNL     1      58.069   0.957  12.967  1.00  0.00    -0.007 A 
HETATM    8  C   UNL     1      57.860  -0.268  13.618  1.00  0.00     0.014 A 
HETATM    9  C   UNL     1      58.911  -1.174  13.785  1.00  0.00     0.001 A 
HETATM   10  C   UNL     1      60.180  -0.866  13.298  1.00  0.00     0.000 A 
HETATM   11  C   UNL     1      60.402   0.348  12.652  1.00  0.00     0.001 A 
HETATM   12  C   UNL     1      59.353   1.257  12.491  1.00  0.00     0.014 A 
ENDBRANCH   3   7
BRANCH   6  13
HETATM   13  C   UNL     1      53.974   3.948  13.440  1.00  0.00     0.296 C 
BRANCH  13  14
HETATM   14  N   UNL     1      54.268   4.858  14.545  1.00  0.00    -0.073 N 
HETATM   15  H   UNL     1      53.925   4.455  15.417  1.00  0.00     0.274 HD
HETATM   16  H   UNL     1      53.806   5.753  14.380  1.00  0.00     0.274 HD
HETATM   17  H   UNL     1      55.275   5.000  14.609  1.00  0.00     0.274 HD
ENDBRANCH  13  14
ENDBRANCH   6  13
TORSDOF 3
ENDMDL
