MODEL 1
REMARK VINA RESULT:      -4.6      0.000      0.000
REMARK  1 active torsions:
REMARK  status: ('A' for Active; 'I' for Inactive)
REMARK    1  A    between atoms: C_2  and  C_8 
ROOT
HETATM    1  C   UNL     1      61.347   8.863   2.729  1.00  0.00     0.147 A 
HETATM    2  C   UNL     1      62.566  10.092   4.458  1.00  0.00     0.100 A 
HETATM    3  S   UNL     1      62.237   8.442   4.155  1.00  0.00    -0.046 SA
HETATM    4  N   UNL     1      61.268  10.160   2.518  1.00  0.00    -0.345 N 
ATOM      5  HN  UNL     1      60.775  10.590   1.735  1.00  0.00     0.167 HD
HETATM    6  C   UNL     1      61.943  10.859   3.499  1.00  0.00     0.116 A 
HETATM    7  N   UNL     1      60.806   7.935   1.900  1.00  0.00    -0.361 N 
HETATM    8  C   UNL     1      60.072   8.330   0.709  1.00  0.00     0.125 C 
HETATM    9  C   UNL     1      60.527   6.564   2.287  1.00  0.00     0.125 C 
HETATM   10  C   UNL     1      59.719   6.003   1.117  1.00  0.00     0.021 C 
HETATM   11  C   UNL     1      59.028   7.230   0.542  1.00  0.00     0.021 C 
ENDROOT
BRANCH   2  12
HETATM   12  C   UNL     1      63.383  10.481   5.567  1.00  0.00     0.218 C 
HETATM   13  O   UNL     1      63.172  11.333   6.418  1.00  0.00    -0.643 OA
HETATM   14  O   UNL     1      64.519   9.745   5.628  1.00  0.00    -0.643 OA
ENDBRANCH   2  12
TORSDOF 1
ENDMDL
MODEL 2
REMARK VINA RESULT:      -4.5      3.121      3.889
REMARK  1 active torsions:
REMARK  status: ('A' for Active; 'I' for Inactive)
REMARK    1  A    between atoms: C_2  and  C_8 
ROOT
HETATM    1  C   UNL     1      63.947   7.746   3.582  1.00  0.00     0.147 A 
HETATM    2  C   UNL     1      65.562   7.515   5.405  1.00  0.00     0.100 A 
HETATM    3  S   UNL     1      64.343   8.645   5.009  1.00  0.00    -0.046 SA
HETATM    4  N   UNL     1      64.709   6.688   3.395  1.00  0.00    -0.345 N 
ATOM      5  HN  UNL     1      64.629   6.049   2.603  1.00  0.00     0.167 HD
HETATM    6  C   UNL     1      65.631   6.561   4.414  1.00  0.00     0.116 A 
HETATM    7  N   UNL     1      62.930   8.092   2.752  1.00  0.00    -0.361 N 
HETATM    8  C   UNL     1      62.627   7.306   1.568  1.00  0.00     0.125 C 
HETATM    9  C   UNL     1      62.346   9.420   2.694  1.00  0.00     0.125 C 
HETATM   10  C   UNL     1      61.432   9.371   1.471  1.00  0.00     0.021 C 
HETATM   11  C   UNL     1      62.091   8.333   0.576  1.00  0.00     0.021 C 
ENDROOT
BRANCH   2  12
HETATM   12  C   UNL     1      66.316   7.649   6.615  1.00  0.00     0.218 C 
HETATM   13  O   UNL     1      66.690   6.781   7.390  1.00  0.00    -0.643 OA
HETATM   14  O   UNL     1      66.641   8.942   6.854  1.00  0.00    -0.643 OA
ENDBRANCH   2  12
TORSDOF 1
ENDMDL
MODEL 3
REMARK VINA RESULT:      -4.4      4.268      5.829
REMARK  1 active torsions:
REMARK  status: ('A' for Active; 'I' for Inactive)
REMARK    1  A    between atoms: C_2  and  C_8 
ROOT
HETATM    1  C   UNL     1      64.754   7.915   5.191  1.00  0.00     0.147 A 
HETATM    2  C   UNL     1      62.959   9.214   4.152  1.00  0.00     0.100 A 
HETATM    3  S   UNL     1      63.697   7.706   3.832  1.00  0.00    -0.046 SA
HETATM    4  N   UNL     1      64.589   9.061   5.817  1.00  0.00    -0.345 N 
ATOM      5  HN  UNL     1      65.129   9.360   6.630  1.00  0.00     0.167 HD
HETATM    6  C   UNL     1      63.587   9.804   5.227  1.00  0.00     0.116 A 
HETATM    7  N   UNL     1      65.648   6.970   5.579  1.00  0.00    -0.361 N 
HETATM    8  C   UNL     1      66.511   7.182   6.729  1.00  0.00     0.125 C 
HETATM    9  C   UNL     1      66.132   5.907   4.717  1.00  0.00     0.125 C 
HETATM   10  C   UNL     1      67.270   5.272   5.514  1.00  0.00     0.021 C 
HETATM   11  C   UNL     1      67.781   6.415   6.377  1.00  0.00     0.021 C 
ENDROOT
BRANCH   2  12
HETATM   12  C   UNL     1      61.861   9.672   3.355  1.00  0.00     0.218 C 
HETATM   13  O   UNL     1      61.247   9.082   2.478  1.00  0.00    -0.643 OA
HETATM   14  O   UNL     1      61.497  10.932   3.693  1.00  0.00    -0.643 OA
ENDBRANCH   2  12
TORSDOF 1
ENDMDL
MODEL 4
REMARK VINA RESULT:      -4.4      3.468      4.685
REMARK  1 active torsions:
REMARK  status: ('A' for Active; 'I' for Inactive)
REMARK    1  A    between atoms: C_2  and  C_8 
ROOT
HETATM    1  C   UNL     1      63.063   7.672   4.749  1.00  0.00     0.147 A 
HETATM    2  C   UNL     1      62.215   9.803   3.899  1.00  0.00     0.100 A 
HETATM    3  S   UNL     1      63.474   9.342   4.959  1.00  0.00    -0.046 SA
HETATM    4  N   UNL     1      62.022   7.478   3.967  1.00  0.00    -0.345 N 
ATOM      5  HN  UNL     1      61.631   6.563   3.739  1.00  0.00     0.167 HD
HETATM    6  C   UNL     1      61.532   8.679   3.495  1.00  0.00     0.116 A 
HETATM    7  N   UNL     1      63.768   6.663   5.322  1.00  0.00    -0.361 N 
HETATM    8  C   UNL     1      63.393   5.274   5.115  1.00  0.00     0.125 C 
HETATM    9  C   UNL     1      64.638   6.832   6.472  1.00  0.00     0.125 C 
HETATM   10  C   UNL     1      64.999   5.404   6.878  1.00  0.00     0.021 C 
HETATM   11  C   UNL     1      63.801   4.589   6.416  1.00  0.00     0.021 C 
ENDROOT
BRANCH   2  12
HETATM   12  C   UNL     1      62.015  11.181   3.560  1.00  0.00     0.218 C 
HETATM   13  O   UNL     1      61.940  11.698   2.454  1.00  0.00    -0.643 OA
HETATM   14  O   UNL     1      61.878  11.948   4.667  1.00  0.00    -0.643 OA
ENDBRANCH   2  12
TORSDOF 1
ENDMDL
MODEL 5
REMARK VINA RESULT:      -4.4      4.990      6.015
REMARK  1 active torsions:
REMARK  status: ('A' for Active; 'I' for Inactive)
REMARK    1  A    between atoms: C_2  and  C_8 
ROOT
HETATM    1  C   UNL     1      64.956   7.182   6.180  1.00  0.00     0.147 A 
HETATM    2  C   UNL     1      66.414   6.047   7.783  1.00  0.00     0.100 A 
HETATM    3  S   UNL     1      65.002   5.616   6.922  1.00  0.00    -0.046 SA
HETATM    4  N   UNL     1      65.915   7.988   6.584  1.00  0.00    -0.345 N 
ATOM      5  HN  UNL     1      66.038   8.949   6.264  1.00  0.00     0.167 HD
HETATM    6  C   UNL     1      66.733   7.356   7.499  1.00  0.00     0.116 A 
HETATM    7  N   UNL     1      64.028   7.528   5.252  1.00  0.00    -0.361 N 
HETATM    8  C   UNL     1      64.028   8.851   4.648  1.00  0.00     0.125 C 
HETATM    9  C   UNL     1      62.758   6.846   5.079  1.00  0.00     0.125 C 
HETATM   10  C   UNL     1      61.987   7.736   4.105  1.00  0.00     0.021 C 
HETATM   11  C   UNL     1      62.554   9.123   4.366  1.00  0.00     0.021 C 
ENDROOT
BRANCH   2  12
HETATM   12  C   UNL     1      67.072   5.096   8.628  1.00  0.00     0.218 C 
HETATM   13  O   UNL     1      66.865   3.896   8.745  1.00  0.00    -0.643 OA
HETATM   14  O   UNL     1      68.060   5.677   9.351  1.00  0.00    -0.643 OA
ENDBRANCH   2  12
TORSDOF 1
ENDMDL
MODEL 6
REMARK VINA RESULT:      -4.3      4.523      6.305
REMARK  1 active torsions:
REMARK  status: ('A' for Active; 'I' for Inactive)
REMARK    1  A    between atoms: C_2  and  C_8 
ROOT
HETATM    1  C   UNL     1      64.492   7.169   6.066  1.00  0.00     0.147 A 
HETATM    2  C   UNL     1      62.966   8.634   4.837  1.00  0.00     0.100 A 
HETATM    3  S   UNL     1      64.649   8.623   5.135  1.00  0.00    -0.046 SA
HETATM    4  N   UNL     1      63.250   6.745   6.179  1.00  0.00    -0.345 N 
ATOM      5  HN  UNL     1      62.968   5.914   6.699  1.00  0.00     0.167 HD
HETATM    6  C   UNL     1      62.384   7.576   5.498  1.00  0.00     0.116 A 
HETATM    7  N   UNL     1      65.557   6.522   6.604  1.00  0.00    -0.361 N 
HETATM    8  C   UNL     1      65.382   5.301   7.373  1.00  0.00     0.125 C 
HETATM    9  C   UNL     1      66.847   7.142   6.843  1.00  0.00     0.125 C 
HETATM   10  C   UNL     1      67.613   6.105   7.663  1.00  0.00     0.021 C 
HETATM   11  C   UNL     1      66.514   5.350   8.395  1.00  0.00     0.021 C 
ENDROOT
BRANCH   2  12
HETATM   12  C   UNL     1      62.379   9.641   4.004  1.00  0.00     0.218 C 
HETATM   13  O   UNL     1      61.876  10.708   4.324  1.00  0.00    -0.643 OA
HETATM   14  O   UNL     1      62.449   9.301   2.694  1.00  0.00    -0.643 OA
ENDBRANCH   2  12
TORSDOF 1
ENDMDL
MODEL 7
REMARK VINA RESULT:      -4.2      2.174      2.574
REMARK  1 active torsions:
REMARK  status: ('A' for Active; 'I' for Inactive)
REMARK    1  A    between atoms: C_2  and  C_8 
ROOT
HETATM    1  C   UNL     1      63.061   8.391   3.145  1.00  0.00     0.147 A 
HETATM    2  C   UNL     1      64.587   8.320   5.056  1.00  0.00     0.100 A 
HETATM    3  S   UNL     1      64.292   7.309   3.710  1.00  0.00    -0.046 SA
HETATM    4  N   UNL     1      62.858   9.422   3.939  1.00  0.00    -0.345 N 
ATOM      5  HN  UNL     1      62.167  10.154   3.772  1.00  0.00     0.167 HD
HETATM    6  C   UNL     1      63.708   9.379   5.026  1.00  0.00     0.116 A 
HETATM    7  N   UNL     1      62.390   8.199   1.981  1.00  0.00    -0.361 N 
HETATM    8  C   UNL     1      61.369   9.135   1.540  1.00  0.00     0.125 C 
HETATM    9  C   UNL     1      62.293   6.920   1.301  1.00  0.00     0.125 C 
HETATM   10  C   UNL     1      61.262   7.161   0.200  1.00  0.00     0.021 C 
HETATM   11  C   UNL     1      60.382   8.261   0.772  1.00  0.00     0.021 C 
ENDROOT
BRANCH   2  12
HETATM   12  C   UNL     1      65.624   8.004   5.992  1.00  0.00     0.218 C 
HETATM   13  O   UNL     1      66.378   8.758   6.590  1.00  0.00    -0.643 OA
HETATM   14  O   UNL     1      65.706   6.669   6.207  1.00  0.00    -0.643 OA
ENDBRANCH   2  12
TORSDOF 1
ENDMDL
MODEL 8
REMARK VINA RESULT:      -4.2      4.240      5.486
REMARK  1 active torsions:
REMARK  status: ('A' for Active; 'I' for Inactive)
REMARK    1  A    between atoms: C_2  and  C_8 
ROOT
HETATM    1  C   UNL     1      64.786   8.002   5.016  1.00  0.00     0.147 A 
HETATM    2  C   UNL     1      66.419   6.352   5.790  1.00  0.00     0.100 A 
HETATM    3  S   UNL     1      65.498   6.561   4.366  1.00  0.00    -0.046 SA
HETATM    4  N   UNL     1      65.185   8.283   6.239  1.00  0.00    -0.345 N 
ATOM      5  HN  UNL     1      64.864   9.084   6.783  1.00  0.00     0.167 HD
HETATM    6  C   UNL     1      66.096   7.347   6.686  1.00  0.00     0.116 A 
HETATM    7  N   UNL     1      63.919   8.775   4.315  1.00  0.00    -0.361 N 
HETATM    8  C   UNL     1      63.350   9.980   4.895  1.00  0.00     0.125 C 
HETATM    9  C   UNL     1      63.166   8.311   3.164  1.00  0.00     0.125 C 
HETATM   10  C   UNL     1      62.177   9.442   2.886  1.00  0.00     0.021 C 
HETATM   11  C   UNL     1      61.970  10.078   4.252  1.00  0.00     0.021 C 
ENDROOT
BRANCH   2  12
HETATM   12  C   UNL     1      67.353   5.272   5.903  1.00  0.00     0.218 C 
HETATM   13  O   UNL     1      67.568   4.356   5.122  1.00  0.00    -0.643 OA
HETATM   14  O   UNL     1      68.074   5.359   7.046  1.00  0.00    -0.643 OA
ENDBRANCH   2  12
TORSDOF 1
ENDMDL
MODEL 9
REMARK VINA RESULT:      -4.0      1.836      2.107
REMARK  1 active torsions:
REMARK  status: ('A' for Active; 'I' for Inactive)
REMARK    1  A    between atoms: C_2  and  C_8 
ROOT
HETATM    1  C   UNL     1      60.832   7.944   3.784  1.00  0.00     0.147 A 
HETATM    2  C   UNL     1      62.891   9.014   4.559  1.00  0.00     0.100 A 
HETATM    3  S   UNL     1      62.166   7.483   4.789  1.00  0.00    -0.046 SA
HETATM    4  N   UNL     1      60.907   9.181   3.339  1.00  0.00    -0.345 N 
ATOM      5  HN  UNL     1      60.207   9.627   2.745  1.00  0.00     0.167 HD
HETATM    6  C   UNL     1      62.061   9.794   3.785  1.00  0.00     0.116 A 
HETATM    7  N   UNL     1      59.820   7.096   3.470  1.00  0.00    -0.361 N 
HETATM    8  C   UNL     1      58.722   7.520   2.618  1.00  0.00     0.125 C 
HETATM    9  C   UNL     1      59.495   5.903   4.232  1.00  0.00     0.125 C 
HETATM   10  C   UNL     1      58.166   5.435   3.640  1.00  0.00     0.021 C 
HETATM   11  C   UNL     1      57.530   6.719   3.133  1.00  0.00     0.021 C 
ENDROOT
BRANCH   2  12
HETATM   12  C   UNL     1      64.171   9.308   5.131  1.00  0.00     0.218 C 
HETATM   13  O   UNL     1      65.226   8.703   5.010  1.00  0.00    -0.643 OA
HETATM   14  O   UNL     1      64.131  10.439   5.876  1.00  0.00    -0.643 OA
ENDBRANCH   2  12
TORSDOF 1
ENDMDL
