MODEL 1
REMARK VINA RESULT:      -6.6      0.000      0.000
REMARK  3 active torsions:
REMARK  status: ('A' for Active; 'I' for Inactive)
REMARK    1  A    between atoms: C_1  and  C_2 
REMARK    2  A    between atoms: C_5  and  C_6 
REMARK    3  A    between atoms: C_8  and  C_9 
ROOT
HETATM    1  C   UNL     1      65.918   6.438   7.483  1.00  0.00     0.063 A 
HETATM    2  N   UNL     1      65.551   8.023   5.699  1.00  0.00    -0.364 N 
ATOM      3  HN  UNL     1      65.822   8.881   5.221  1.00  0.00     0.165 HD
HETATM    4  C   UNL     1      64.502   7.283   5.257  1.00  0.00     0.042 A 
HETATM    5  C   UNL     1      66.226   7.595   6.790  1.00  0.00     0.104 A 
HETATM    6  C   UNL     1      64.865   5.661   6.996  1.00  0.00     0.020 A 
HETATM    7  C   UNL     1      64.154   6.083   5.873  1.00  0.00     0.031 A 
ENDROOT
BRANCH   4   8
HETATM    8  C   UNL     1      63.742   7.868   4.134  1.00  0.00    -0.009 A 
HETATM    9  C   UNL     1      63.309   9.208   4.181  1.00  0.00     0.032 A 
HETATM   10  C   UNL     1      62.514   9.756   3.164  1.00  0.00     0.041 A 
HETATM   11  C   UNL     1      62.157   8.968   2.065  1.00  0.00     0.018 A 
HETATM   12  C   UNL     1      62.583   7.646   1.988  1.00  0.00     0.002 A 
HETATM   13  C   UNL     1      63.365   7.104   3.013  1.00  0.00     0.014 A 
BRANCH  10  14
HETATM   14  C   UNL     1      62.007  11.146   3.225  1.00  0.00     0.209 C 
HETATM   15  O   UNL     1      61.729  11.758   4.239  1.00  0.00    -0.644 OA
HETATM   16  O   UNL     1      61.892  11.717   2.013  1.00  0.00    -0.644 OA
ENDBRANCH  10  14
ENDBRANCH   4   8
BRANCH   1  17
HETATM   17  C   UNL     1      66.677   6.053   8.714  1.00  0.00     0.418 C 
HETATM   18  F   UNL     1      67.965   6.493   8.724  1.00  0.00    -0.166 F 
HETATM   19  F   UNL     1      66.741   4.705   8.889  1.00  0.00    -0.166 F 
HETATM   20  F   UNL     1      66.107   6.549   9.849  1.00  0.00    -0.166 F 
ENDBRANCH   1  17
TORSDOF 3
ENDMDL
MODEL 2
REMARK VINA RESULT:      -6.5      1.593      2.209
REMARK  3 active torsions:
REMARK  status: ('A' for Active; 'I' for Inactive)
REMARK    1  A    between atoms: C_1  and  C_2 
REMARK    2  A    between atoms: C_5  and  C_6 
REMARK    3  A    between atoms: C_8  and  C_9 
ROOT
HETATM    1  C   UNL     1      65.854   6.857   7.202  1.00  0.00     0.063 A 
HETATM    2  N   UNL     1      65.378   8.756   5.790  1.00  0.00    -0.364 N 
ATOM      3  HN  UNL     1      65.668   9.653   5.401  1.00  0.00     0.165 HD
HETATM    4  C   UNL     1      64.176   8.214   5.466  1.00  0.00     0.042 A 
HETATM    5  C   UNL     1      66.180   8.079   6.642  1.00  0.00     0.104 A 
HETATM    6  C   UNL     1      64.636   6.287   6.830  1.00  0.00     0.020 A 
HETATM    7  C   UNL     1      63.791   6.967   5.954  1.00  0.00     0.031 A 
ENDROOT
BRANCH   4   8
HETATM    8  C   UNL     1      63.306   9.059   4.623  1.00  0.00    -0.009 A 
HETATM    9  C   UNL     1      62.891   8.618   3.351  1.00  0.00     0.032 A 
HETATM   10  C   UNL     1      62.135   9.439   2.503  1.00  0.00     0.041 A 
HETATM   11  C   UNL     1      61.764  10.719   2.929  1.00  0.00     0.018 A 
HETATM   12  C   UNL     1      62.150  11.173   4.186  1.00  0.00     0.002 A 
HETATM   13  C   UNL     1      62.914  10.352   5.020  1.00  0.00     0.014 A 
BRANCH  10  14
HETATM   14  C   UNL     1      61.736   9.010   1.142  1.00  0.00     0.209 C 
HETATM   15  O   UNL     1      62.489   8.832   0.204  1.00  0.00    -0.644 OA
HETATM   16  O   UNL     1      60.413   8.800   1.025  1.00  0.00    -0.644 OA
ENDBRANCH  10  14
ENDBRANCH   4   8
BRANCH   1  17
HETATM   17  C   UNL     1      66.771   6.188   8.179  1.00  0.00     0.418 C 
HETATM   18  F   UNL     1      68.015   5.943   7.684  1.00  0.00    -0.166 F 
HETATM   19  F   UNL     1      66.295   4.987   8.606  1.00  0.00    -0.166 F 
HETATM   20  F   UNL     1      66.959   6.935   9.304  1.00  0.00    -0.166 F 
ENDBRANCH   1  17
TORSDOF 3
ENDMDL
MODEL 3
REMARK VINA RESULT:      -5.8      5.243      7.463
REMARK  3 active torsions:
REMARK  status: ('A' for Active; 'I' for Inactive)
REMARK    1  A    between atoms: C_1  and  C_2 
REMARK    2  A    between atoms: C_5  and  C_6 
REMARK    3  A    between atoms: C_8  and  C_9 
ROOT
HETATM    1  C   UNL     1      63.281   8.451   4.939  1.00  0.00     0.063 A 
HETATM    2  N   UNL     1      65.444   8.170   5.975  1.00  0.00    -0.364 N 
ATOM      3  HN  UNL     1      66.395   8.507   6.123  1.00  0.00     0.165 HD
HETATM    4  C   UNL     1      65.010   7.031   6.574  1.00  0.00     0.042 A 
HETATM    5  C   UNL     1      64.585   8.846   5.179  1.00  0.00     0.104 A 
HETATM    6  C   UNL     1      62.830   7.303   5.592  1.00  0.00     0.020 A 
HETATM    7  C   UNL     1      63.698   6.588   6.418  1.00  0.00     0.031 A 
ENDROOT
BRANCH   4   8
HETATM    8  C   UNL     1      66.032   6.286   7.335  1.00  0.00    -0.009 A 
HETATM    9  C   UNL     1      66.219   4.905   7.124  1.00  0.00     0.032 A 
HETATM   10  C   UNL     1      67.124   4.163   7.896  1.00  0.00     0.041 A 
HETATM   11  C   UNL     1      67.877   4.804   8.886  1.00  0.00     0.018 A 
HETATM   12  C   UNL     1      67.720   6.169   9.105  1.00  0.00     0.002 A 
HETATM   13  C   UNL     1      66.806   6.898   8.339  1.00  0.00     0.014 A 
BRANCH  10  14
HETATM   14  C   UNL     1      67.294   2.702   7.723  1.00  0.00     0.209 C 
HETATM   15  O   UNL     1      68.004   2.162   6.896  1.00  0.00    -0.644 OA
HETATM   16  O   UNL     1      66.582   1.982   8.608  1.00  0.00    -0.644 OA
ENDBRANCH  10  14
ENDBRANCH   4   8
BRANCH   1  17
HETATM   17  C   UNL     1      62.402   9.221   4.004  1.00  0.00     0.418 C 
HETATM   18  F   UNL     1      61.132   8.738   3.921  1.00  0.00    -0.166 F 
HETATM   19  F   UNL     1      62.880   9.236   2.730  1.00  0.00    -0.166 F 
HETATM   20  F   UNL     1      62.278  10.528   4.371  1.00  0.00    -0.166 F 
ENDBRANCH   1  17
TORSDOF 3
ENDMDL
MODEL 4
REMARK VINA RESULT:      -5.7      5.138      7.092
REMARK  3 active torsions:
REMARK  status: ('A' for Active; 'I' for Inactive)
REMARK    1  A    between atoms: C_1  and  C_2 
REMARK    2  A    between atoms: C_5  and  C_6 
REMARK    3  A    between atoms: C_8  and  C_9 
ROOT
HETATM    1  C   UNL     1      63.076   9.115   3.882  1.00  0.00     0.063 A 
HETATM    2  N   UNL     1      64.234   7.001   3.735  1.00  0.00    -0.364 N 
ATOM      3  HN  UNL     1      64.376   6.112   3.257  1.00  0.00     0.165 HD
HETATM    4  C   UNL     1      64.963   7.323   4.834  1.00  0.00     0.042 A 
HETATM    5  C   UNL     1      63.317   7.889   3.288  1.00  0.00     0.104 A 
HETATM    6  C   UNL     1      63.860   9.456   4.986  1.00  0.00     0.020 A 
HETATM    7  C   UNL     1      64.812   8.556   5.465  1.00  0.00     0.031 A 
ENDROOT
BRANCH   4   8
HETATM    8  C   UNL     1      65.863   6.263   5.331  1.00  0.00    -0.009 A 
HETATM    9  C   UNL     1      66.222   6.207   6.693  1.00  0.00     0.032 A 
HETATM   10  C   UNL     1      67.141   5.260   7.168  1.00  0.00     0.041 A 
HETATM   11  C   UNL     1      67.703   4.335   6.282  1.00  0.00     0.018 A 
HETATM   12  C   UNL     1      67.354   4.361   4.935  1.00  0.00     0.002 A 
HETATM   13  C   UNL     1      66.446   5.316   4.468  1.00  0.00     0.014 A 
BRANCH  10  14
HETATM   14  C   UNL     1      67.570   5.223   8.585  1.00  0.00     0.209 C 
HETATM   15  O   UNL     1      68.075   6.142   9.200  1.00  0.00    -0.644 OA
HETATM   16  O   UNL     1      67.324   4.039   9.176  1.00  0.00    -0.644 OA
ENDBRANCH  10  14
ENDBRANCH   4   8
BRANCH   1  17
HETATM   17  C   UNL     1      62.007  10.025   3.364  1.00  0.00     0.418 C 
HETATM   18  F   UNL     1      62.042  11.275   3.904  1.00  0.00    -0.166 F 
HETATM   19  F   UNL     1      60.755   9.550   3.601  1.00  0.00    -0.166 F 
HETATM   20  F   UNL     1      62.090  10.203   2.015  1.00  0.00    -0.166 F 
ENDBRANCH   1  17
TORSDOF 3
ENDMDL
MODEL 5
REMARK VINA RESULT:      -5.5      1.677      2.251
REMARK  3 active torsions:
REMARK  status: ('A' for Active; 'I' for Inactive)
REMARK    1  A    between atoms: C_1  and  C_2 
REMARK    2  A    between atoms: C_5  and  C_6 
REMARK    3  A    between atoms: C_8  and  C_9 
ROOT
HETATM    1  C   UNL     1      66.100   4.452   6.543  1.00  0.00     0.063 A 
HETATM    2  N   UNL     1      65.956   6.538   5.337  1.00  0.00    -0.364 N 
ATOM      3  HN  UNL     1      66.414   7.377   4.979  1.00  0.00     0.165 HD
HETATM    4  C   UNL     1      64.633   6.325   5.124  1.00  0.00     0.042 A 
HETATM    5  C   UNL     1      66.653   5.613   6.035  1.00  0.00     0.104 A 
HETATM    6  C   UNL     1      64.748   4.220   6.283  1.00  0.00     0.020 A 
HETATM    7  C   UNL     1      64.009   5.160   5.566  1.00  0.00     0.031 A 
ENDROOT
BRANCH   4   8
HETATM    8  C   UNL     1      63.912   7.427   4.456  1.00  0.00    -0.009 A 
HETATM    9  C   UNL     1      63.729   8.664   5.107  1.00  0.00     0.032 A 
HETATM   10  C   UNL     1      62.975   9.692   4.524  1.00  0.00     0.041 A 
HETATM   11  C   UNL     1      62.406   9.502   3.260  1.00  0.00     0.018 A 
HETATM   12  C   UNL     1      62.583   8.295   2.591  1.00  0.00     0.002 A 
HETATM   13  C   UNL     1      63.325   7.271   3.185  1.00  0.00     0.014 A 
BRANCH  10  14
HETATM   14  C   UNL     1      62.729  10.978   5.217  1.00  0.00     0.209 C 
HETATM   15  O   UNL     1      63.143  11.281   6.320  1.00  0.00    -0.644 OA
HETATM   16  O   UNL     1      61.994  11.836   4.488  1.00  0.00    -0.644 OA
ENDBRANCH  10  14
ENDBRANCH   4   8
BRANCH   1  17
HETATM   17  C   UNL     1      66.921   3.497   7.351  1.00  0.00     0.418 C 
HETATM   18  F   UNL     1      66.268   2.346   7.671  1.00  0.00    -0.166 F 
HETATM   19  F   UNL     1      67.336   4.032   8.531  1.00  0.00    -0.166 F 
HETATM   20  F   UNL     1      68.054   3.111   6.699  1.00  0.00    -0.166 F 
ENDBRANCH   1  17
TORSDOF 3
ENDMDL
MODEL 6
REMARK VINA RESULT:      -5.5      5.159      7.129
REMARK  3 active torsions:
REMARK  status: ('A' for Active; 'I' for Inactive)
REMARK    1  A    between atoms: C_1  and  C_2 
REMARK    2  A    between atoms: C_5  and  C_6 
REMARK    3  A    between atoms: C_8  and  C_9 
ROOT
HETATM    1  C   UNL     1      62.318   8.206   2.727  1.00  0.00     0.063 A 
HETATM    2  N   UNL     1      64.292   6.900   3.201  1.00  0.00    -0.364 N 
ATOM      3  HN  UNL     1      64.921   6.139   2.946  1.00  0.00     0.165 HD
HETATM    4  C   UNL     1      64.523   7.650   4.309  1.00  0.00     0.042 A 
HETATM    5  C   UNL     1      63.208   7.186   2.445  1.00  0.00     0.104 A 
HETATM    6  C   UNL     1      62.587   9.000   3.844  1.00  0.00     0.020 A 
HETATM    7  C   UNL     1      63.698   8.723   4.639  1.00  0.00     0.031 A 
ENDROOT
BRANCH   4   8
HETATM    8  C   UNL     1      65.657   7.211   5.147  1.00  0.00    -0.009 A 
HETATM    9  C   UNL     1      65.441   6.749   6.461  1.00  0.00     0.032 A 
HETATM   10  C   UNL     1      66.510   6.407   7.301  1.00  0.00     0.041 A 
HETATM   11  C   UNL     1      67.822   6.506   6.826  1.00  0.00     0.018 A 
HETATM   12  C   UNL     1      68.061   6.947   5.529  1.00  0.00     0.002 A 
HETATM   13  C   UNL     1      66.990   7.297   4.702  1.00  0.00     0.014 A 
BRANCH  10  14
HETATM   14  C   UNL     1      66.302   5.971   8.701  1.00  0.00     0.209 C 
HETATM   15  O   UNL     1      66.212   6.703   9.668  1.00  0.00    -0.644 OA
HETATM   16  O   UNL     1      66.194   4.635   8.824  1.00  0.00    -0.644 OA
ENDBRANCH  10  14
ENDBRANCH   4   8
BRANCH   1  17
HETATM   17  C   UNL     1      61.109   8.432   1.873  1.00  0.00     0.418 C 
HETATM   18  F   UNL     1      61.042   9.683   1.338  1.00  0.00    -0.166 F 
HETATM   19  F   UNL     1      59.946   8.255   2.556  1.00  0.00    -0.166 F 
HETATM   20  F   UNL     1      61.056   7.573   0.817  1.00  0.00    -0.166 F 
ENDBRANCH   1  17
TORSDOF 3
ENDMDL
MODEL 7
REMARK VINA RESULT:      -5.4      5.329      7.288
REMARK  3 active torsions:
REMARK  status: ('A' for Active; 'I' for Inactive)
REMARK    1  A    between atoms: C_1  and  C_2 
REMARK    2  A    between atoms: C_5  and  C_6 
REMARK    3  A    between atoms: C_8  and  C_9 
ROOT
HETATM    1  C   UNL     1      62.924   8.839   3.544  1.00  0.00     0.063 A 
HETATM    2  N   UNL     1      64.285   8.568   5.519  1.00  0.00    -0.364 N 
ATOM      3  HN  UNL     1      64.597   8.922   6.424  1.00  0.00     0.165 HD
HETATM    4  C   UNL     1      64.756   7.391   5.034  1.00  0.00     0.042 A 
HETATM    5  C   UNL     1      63.394   9.261   4.775  1.00  0.00     0.104 A 
HETATM    6  C   UNL     1      63.381   7.608   3.072  1.00  0.00     0.020 A 
HETATM    7  C   UNL     1      64.301   6.876   3.822  1.00  0.00     0.031 A 
ENDROOT
BRANCH   4   8
HETATM    8  C   UNL     1      65.809   6.747   5.844  1.00  0.00    -0.009 A 
HETATM    9  C   UNL     1      66.310   5.478   5.492  1.00  0.00     0.032 A 
HETATM   10  C   UNL     1      67.248   4.813   6.295  1.00  0.00     0.041 A 
HETATM   11  C   UNL     1      67.716   5.424   7.462  1.00  0.00     0.018 A 
HETATM   12  C   UNL     1      67.246   6.682   7.825  1.00  0.00     0.002 A 
HETATM   13  C   UNL     1      66.303   7.332   7.026  1.00  0.00     0.014 A 
BRANCH  10  14
HETATM   14  C   UNL     1      67.744   3.457   5.965  1.00  0.00     0.209 C 
HETATM   15  O   UNL     1      68.075   2.606   6.770  1.00  0.00    -0.644 OA
HETATM   16  O   UNL     1      67.783   3.218   4.642  1.00  0.00    -0.644 OA
ENDBRANCH  10  14
ENDBRANCH   4   8
BRANCH   1  17
HETATM   17  C   UNL     1      61.976   9.684   2.751  1.00  0.00     0.418 C 
HETATM   18  F   UNL     1      61.721  10.898   3.313  1.00  0.00    -0.166 F 
HETATM   19  F   UNL     1      60.765   9.090   2.578  1.00  0.00    -0.166 F 
HETATM   20  F   UNL     1      62.444   9.947   1.498  1.00  0.00    -0.166 F 
ENDBRANCH   1  17
TORSDOF 3
ENDMDL
MODEL 8
REMARK VINA RESULT:      -5.3      5.276      7.233
REMARK  3 active torsions:
REMARK  status: ('A' for Active; 'I' for Inactive)
REMARK    1  A    between atoms: C_1  and  C_2 
REMARK    2  A    between atoms: C_5  and  C_6 
REMARK    3  A    between atoms: C_8  and  C_9 
ROOT
HETATM    1  C   UNL     1      62.506   8.580   2.423  1.00  0.00     0.063 A 
HETATM    2  N   UNL     1      63.204   6.381   3.134  1.00  0.00    -0.364 N 
ATOM      3  HN  UNL     1      63.349   5.395   2.917  1.00  0.00     0.165 HD
HETATM    4  C   UNL     1      63.490   6.869   4.367  1.00  0.00     0.042 A 
HETATM    5  C   UNL     1      62.722   7.232   2.200  1.00  0.00     0.104 A 
HETATM    6  C   UNL     1      62.843   9.083   3.681  1.00  0.00     0.020 A 
HETATM    7  C   UNL     1      63.342   8.224   4.660  1.00  0.00     0.031 A 
ENDROOT
BRANCH   4   8
HETATM    8  C   UNL     1      63.904   5.865   5.368  1.00  0.00    -0.009 A 
HETATM    9  C   UNL     1      64.835   6.195   6.373  1.00  0.00     0.032 A 
HETATM   10  C   UNL     1      65.304   5.233   7.280  1.00  0.00     0.041 A 
HETATM   11  C   UNL     1      64.828   3.920   7.203  1.00  0.00     0.018 A 
HETATM   12  C   UNL     1      63.899   3.572   6.227  1.00  0.00     0.002 A 
HETATM   13  C   UNL     1      63.447   4.534   5.320  1.00  0.00     0.014 A 
BRANCH  10  14
HETATM   14  C   UNL     1      66.320   5.551   8.308  1.00  0.00     0.209 C 
HETATM   15  O   UNL     1      66.669   6.668   8.642  1.00  0.00    -0.644 OA
HETATM   16  O   UNL     1      66.840   4.455   8.890  1.00  0.00    -0.644 OA
ENDBRANCH  10  14
ENDBRANCH   4   8
BRANCH   1  17
HETATM   17  C   UNL     1      61.920   9.452   1.357  1.00  0.00     0.418 C 
HETATM   18  F   UNL     1      60.678   9.065   0.953  1.00  0.00    -0.166 F 
HETATM   19  F   UNL     1      62.684   9.490   0.233  1.00  0.00    -0.166 F 
HETATM   20  F   UNL     1      61.790  10.747   1.764  1.00  0.00    -0.166 F 
ENDBRANCH   1  17
TORSDOF 3
ENDMDL
MODEL 9
REMARK VINA RESULT:      -5.2      6.294      7.836
REMARK  3 active torsions:
REMARK  status: ('A' for Active; 'I' for Inactive)
REMARK    1  A    between atoms: C_1  and  C_2 
REMARK    2  A    between atoms: C_5  and  C_6 
REMARK    3  A    between atoms: C_8  and  C_9 
ROOT
HETATM    1  C   UNL     1      57.259   6.703   2.209  1.00  0.00     0.063 A 
HETATM    2  N   UNL     1      59.051   6.814   3.823  1.00  0.00    -0.364 N 
ATOM      3  HN  UNL     1      59.394   6.627   4.765  1.00  0.00     0.165 HD
HETATM    4  C   UNL     1      59.850   7.402   2.897  1.00  0.00     0.042 A 
HETATM    5  C   UNL     1      57.789   6.484   3.468  1.00  0.00     0.104 A 
HETATM    6  C   UNL     1      58.102   7.269   1.250  1.00  0.00     0.020 A 
HETATM    7  C   UNL     1      59.407   7.618   1.594  1.00  0.00     0.031 A 
ENDROOT
BRANCH   4   8
HETATM    8  C   UNL     1      61.174   7.838   3.386  1.00  0.00    -0.009 A 
HETATM    9  C   UNL     1      61.322   9.071   4.052  1.00  0.00     0.032 A 
HETATM   10  C   UNL     1      62.582   9.541   4.449  1.00  0.00     0.041 A 
HETATM   11  C   UNL     1      63.720   8.766   4.199  1.00  0.00     0.018 A 
HETATM   12  C   UNL     1      63.598   7.539   3.555  1.00  0.00     0.002 A 
HETATM   13  C   UNL     1      62.339   7.084   3.152  1.00  0.00     0.014 A 
BRANCH  10  14
HETATM   14  C   UNL     1      62.761  10.858   5.102  1.00  0.00     0.209 C 
HETATM   15  O   UNL     1      63.502  11.093   6.037  1.00  0.00    -0.644 OA
HETATM   16  O   UNL     1      62.019  11.829   4.538  1.00  0.00    -0.644 OA
ENDBRANCH  10  14
ENDBRANCH   4   8
BRANCH   1  17
HETATM   17  C   UNL     1      55.836   6.359   1.901  1.00  0.00     0.418 C 
HETATM   18  F   UNL     1      54.983   6.571   2.941  1.00  0.00    -0.166 F 
HETATM   19  F   UNL     1      55.677   5.055   1.547  1.00  0.00    -0.166 F 
HETATM   20  F   UNL     1      55.341   7.089   0.862  1.00  0.00    -0.166 F 
ENDBRANCH   1  17
TORSDOF 3
ENDMDL
