MODEL 1
REMARK VINA RESULT:      -4.3      0.000      0.000
REMARK  4 active torsions:
REMARK  status: ('A' for Active; 'I' for Inactive)
REMARK    1  A    between atoms: C_1  and  C_4 
REMARK    2  A    between atoms: C_1  and  O_5 
REMARK    3  A    between atoms: C_4  and  C_6 
REMARK    4  A    between atoms: O_5  and  C_9 
ROOT
HETATM    1  O   UNL     1      61.401  10.578   3.820  1.00  0.00    -0.391 OA
HETATM    2  C   UNL     1      63.727   8.960   4.358  1.00  0.00    -0.001 C 
HETATM    3  C   UNL     1      61.940   9.771   2.774  1.00  0.00     0.168 C 
HETATM    4  C   UNL     1      62.418  11.099   4.674  1.00  0.00     0.168 C 
HETATM    5  C   UNL     1      63.165   9.967   5.372  1.00  0.00     0.031 C 
HETATM    6  C   UNL     1      62.646   8.547   3.348  1.00  0.00     0.031 C 
ENDROOT
BRANCH   2   7
HETATM    7  C   UNL     1      64.416   7.746   5.000  1.00  0.00     0.115 C 
BRANCH   7   8
HETATM    8  C   UNL     1      65.755   8.000   5.659  1.00  0.00     0.259 C 
HETATM    9  O   UNL     1      66.763   8.337   5.046  1.00  0.00    -0.265 OA
BRANCH   8  10
HETATM   10  O   UNL     1      65.670   7.822   7.003  1.00  0.00    -0.322 OA
BRANCH  10  11
HETATM   11  C   UNL     1      65.927   6.496   7.496  1.00  0.00     0.174 C 
HETATM   12  C   UNL     1      67.104   6.485   8.457  1.00  0.00     0.034 C 
ENDBRANCH  10  11
ENDBRANCH   8  10
ENDBRANCH   7   8
ENDBRANCH   2   7
TORSDOF 4
ENDMDL
MODEL 2
REMARK VINA RESULT:      -4.3      1.712      5.384
REMARK  4 active torsions:
REMARK  status: ('A' for Active; 'I' for Inactive)
REMARK    1  A    between atoms: C_1  and  C_4 
REMARK    2  A    between atoms: C_1  and  O_5 
REMARK    3  A    between atoms: C_4  and  C_6 
REMARK    4  A    between atoms: O_5  and  C_9 
ROOT
HETATM    1  O   UNL     1      64.794   5.594   6.004  1.00  0.00    -0.391 OA
HETATM    2  C   UNL     1      63.797   8.245   5.463  1.00  0.00    -0.001 C 
HETATM    3  C   UNL     1      63.417   5.877   6.242  1.00  0.00     0.168 C 
HETATM    4  C   UNL     1      65.630   6.714   6.290  1.00  0.00     0.168 C 
HETATM    5  C   UNL     1      65.288   7.887   5.378  1.00  0.00     0.031 C 
HETATM    6  C   UNL     1      62.928   6.987   5.318  1.00  0.00     0.031 C 
ENDROOT
BRANCH   2   7
HETATM    7  C   UNL     1      63.367   9.363   4.500  1.00  0.00     0.115 C 
BRANCH   7   8
HETATM    8  C   UNL     1      62.809  10.620   5.132  1.00  0.00     0.259 C 
HETATM    9  O   UNL     1      63.199  11.077   6.201  1.00  0.00    -0.265 OA
BRANCH   8  10
HETATM   10  O   UNL     1      61.844  11.164   4.345  1.00  0.00    -0.322 OA
BRANCH  10  11
HETATM   11  C   UNL     1      61.783  10.702   2.985  1.00  0.00     0.174 C 
HETATM   12  C   UNL     1      61.792  11.865   2.007  1.00  0.00     0.034 C 
ENDBRANCH  10  11
ENDBRANCH   8  10
ENDBRANCH   7   8
ENDBRANCH   2   7
TORSDOF 4
ENDMDL
MODEL 3
REMARK VINA RESULT:      -4.2      1.448      2.392
REMARK  4 active torsions:
REMARK  status: ('A' for Active; 'I' for Inactive)
REMARK    1  A    between atoms: C_1  and  C_4 
REMARK    2  A    between atoms: C_1  and  O_5 
REMARK    3  A    between atoms: C_4  and  C_6 
REMARK    4  A    between atoms: O_5  and  C_9 
ROOT
HETATM    1  O   UNL     1      62.158  11.456   2.692  1.00  0.00    -0.391 OA
HETATM    2  C   UNL     1      62.423   8.908   4.013  1.00  0.00    -0.001 C 
HETATM    3  C   UNL     1      61.961  11.385   4.103  1.00  0.00     0.168 C 
HETATM    4  C   UNL     1      61.692  10.286   2.024  1.00  0.00     0.168 C 
HETATM    5  C   UNL     1      62.471   9.059   2.486  1.00  0.00     0.031 C 
HETATM    6  C   UNL     1      62.767  10.237   4.701  1.00  0.00     0.031 C 
ENDROOT
BRANCH   2   7
HETATM    7  C   UNL     1      63.264   7.740   4.553  1.00  0.00     0.115 C 
BRANCH   7   8
HETATM    8  C   UNL     1      63.478   7.699   6.051  1.00  0.00     0.259 C 
HETATM    9  O   UNL     1      62.569   7.598   6.868  1.00  0.00    -0.265 OA
BRANCH   8  10
HETATM   10  O   UNL     1      64.802   7.770   6.348  1.00  0.00    -0.322 OA
BRANCH  10  11
HETATM   11  C   UNL     1      65.351   6.685   7.114  1.00  0.00     0.174 C 
HETATM   12  C   UNL     1      65.936   5.613   6.210  1.00  0.00     0.034 C 
ENDBRANCH  10  11
ENDBRANCH   8  10
ENDBRANCH   7   8
ENDBRANCH   2   7
TORSDOF 4
ENDMDL
MODEL 4
REMARK VINA RESULT:      -4.1      2.325      3.311
REMARK  4 active torsions:
REMARK  status: ('A' for Active; 'I' for Inactive)
REMARK    1  A    between atoms: C_1  and  C_4 
REMARK    2  A    between atoms: C_1  and  O_5 
REMARK    3  A    between atoms: C_4  and  C_6 
REMARK    4  A    between atoms: O_5  and  C_9 
ROOT
HETATM    1  O   UNL     1      62.227  11.177   2.874  1.00  0.00    -0.391 OA
HETATM    2  C   UNL     1      62.603   8.697   4.295  1.00  0.00    -0.001 C 
HETATM    3  C   UNL     1      62.068  11.161   4.291  1.00  0.00     0.168 C 
HETATM    4  C   UNL     1      61.779   9.966   2.269  1.00  0.00     0.168 C 
HETATM    5  C   UNL     1      62.607   8.783   2.761  1.00  0.00     0.031 C 
HETATM    6  C   UNL     1      62.924  10.065   4.916  1.00  0.00     0.031 C 
ENDROOT
BRANCH   2   7
HETATM    7  C   UNL     1      63.492   7.579   4.860  1.00  0.00     0.115 C 
BRANCH   7   8
HETATM    8  C   UNL     1      63.376   7.311   6.346  1.00  0.00     0.259 C 
HETATM    9  O   UNL     1      64.334   7.295   7.113  1.00  0.00    -0.265 OA
BRANCH   8  10
HETATM   10  O   UNL     1      62.079   7.116   6.698  1.00  0.00    -0.322 OA
BRANCH  10  11
HETATM   11  C   UNL     1      61.541   5.801   6.477  1.00  0.00     0.174 C 
HETATM   12  C   UNL     1      60.193   5.636   7.159  1.00  0.00     0.034 C 
ENDBRANCH  10  11
ENDBRANCH   8  10
ENDBRANCH   7   8
ENDBRANCH   2   7
TORSDOF 4
ENDMDL
MODEL 5
REMARK VINA RESULT:      -4.0      1.694      5.360
REMARK  4 active torsions:
REMARK  status: ('A' for Active; 'I' for Inactive)
REMARK    1  A    between atoms: C_1  and  C_4 
REMARK    2  A    between atoms: C_1  and  O_5 
REMARK    3  A    between atoms: C_4  and  C_6 
REMARK    4  A    between atoms: O_5  and  C_9 
ROOT
HETATM    1  O   UNL     1      67.379   6.363   5.031  1.00  0.00    -0.391 OA
HETATM    2  C   UNL     1      65.143   8.173   4.837  1.00  0.00    -0.001 C 
HETATM    3  C   UNL     1      67.437   7.611   5.720  1.00  0.00     0.168 C 
HETATM    4  C   UNL     1      66.686   6.467   3.789  1.00  0.00     0.168 C 
HETATM    5  C   UNL     1      65.235   6.878   4.017  1.00  0.00     0.031 C 
HETATM    6  C   UNL     1      66.036   8.090   6.084  1.00  0.00     0.031 C 
ENDROOT
BRANCH   2   7
HETATM    7  C   UNL     1      63.705   8.595   5.179  1.00  0.00     0.115 C 
BRANCH   7   8
HETATM    8  C   UNL     1      63.450  10.082   5.304  1.00  0.00     0.259 C 
HETATM    9  O   UNL     1      64.120  10.833   6.006  1.00  0.00    -0.265 OA
BRANCH   8  10
HETATM   10  O   UNL     1      62.403  10.456   4.523  1.00  0.00    -0.322 OA
BRANCH  10  11
HETATM   11  C   UNL     1      61.918   9.482   3.583  1.00  0.00     0.174 C 
HETATM   12  C   UNL     1      61.934  10.029   2.166  1.00  0.00     0.034 C 
ENDBRANCH  10  11
ENDBRANCH   8  10
ENDBRANCH   7   8
ENDBRANCH   2   7
TORSDOF 4
ENDMDL
MODEL 6
REMARK VINA RESULT:      -3.9      1.923      2.442
REMARK  4 active torsions:
REMARK  status: ('A' for Active; 'I' for Inactive)
REMARK    1  A    between atoms: C_1  and  C_4 
REMARK    2  A    between atoms: C_1  and  O_5 
REMARK    3  A    between atoms: C_4  and  C_6 
REMARK    4  A    between atoms: O_5  and  C_9 
ROOT
HETATM    1  O   UNL     1      61.362   9.536   1.314  1.00  0.00    -0.391 OA
HETATM    2  C   UNL     1      62.994   9.103   3.651  1.00  0.00    -0.001 C 
HETATM    3  C   UNL     1      62.298   8.460   1.314  1.00  0.00     0.168 C 
HETATM    4  C   UNL     1      61.846  10.669   2.032  1.00  0.00     0.168 C 
HETATM    5  C   UNL     1      62.068  10.319   3.500  1.00  0.00     0.031 C 
HETATM    6  C   UNL     1      62.540   7.958   2.734  1.00  0.00     0.031 C 
ENDROOT
BRANCH   2   7
HETATM    7  C   UNL     1      63.187   8.642   5.104  1.00  0.00     0.115 C 
BRANCH   7   8
HETATM    8  C   UNL     1      64.604   8.311   5.523  1.00  0.00     0.259 C 
HETATM    9  O   UNL     1      65.423   9.151   5.883  1.00  0.00    -0.265 OA
BRANCH   8  10
HETATM   10  O   UNL     1      64.822   6.971   5.462  1.00  0.00    -0.322 OA
BRANCH  10  11
HETATM   11  C   UNL     1      65.997   6.540   4.754  1.00  0.00     0.174 C 
HETATM   12  C   UNL     1      65.635   5.906   3.421  1.00  0.00     0.034 C 
ENDBRANCH  10  11
ENDBRANCH   8  10
ENDBRANCH   7   8
ENDBRANCH   2   7
TORSDOF 4
ENDMDL
MODEL 7
REMARK VINA RESULT:      -3.9      2.015      3.135
REMARK  4 active torsions:
REMARK  status: ('A' for Active; 'I' for Inactive)
REMARK    1  A    between atoms: C_1  and  C_4 
REMARK    2  A    between atoms: C_1  and  O_5 
REMARK    3  A    between atoms: C_4  and  C_6 
REMARK    4  A    between atoms: O_5  and  C_9 
ROOT
HETATM    1  O   UNL     1      60.700   7.748   1.068  1.00  0.00    -0.391 OA
HETATM    2  C   UNL     1      62.395   8.828   3.135  1.00  0.00    -0.001 C 
HETATM    3  C   UNL     1      61.150   6.888   2.114  1.00  0.00     0.168 C 
HETATM    4  C   UNL     1      61.681   8.720   0.713  1.00  0.00     0.168 C 
HETATM    5  C   UNL     1      61.982   9.635   1.895  1.00  0.00     0.031 C 
HETATM    6  C   UNL     1      61.405   7.682   3.391  1.00  0.00     0.031 C 
ENDROOT
BRANCH   2   7
HETATM    7  C   UNL     1      62.626   9.686   4.389  1.00  0.00     0.115 C 
BRANCH   7   8
HETATM    8  C   UNL     1      63.400   9.036   5.517  1.00  0.00     0.259 C 
HETATM    9  O   UNL     1      62.884   8.343   6.388  1.00  0.00    -0.265 OA
BRANCH   8  10
HETATM   10  O   UNL     1      64.726   9.313   5.411  1.00  0.00    -0.322 OA
BRANCH  10  11
HETATM   11  C   UNL     1      65.611   8.188   5.269  1.00  0.00     0.174 C 
HETATM   12  C   UNL     1      66.590   8.108   6.428  1.00  0.00     0.034 C 
ENDBRANCH  10  11
ENDBRANCH   8  10
ENDBRANCH   7   8
ENDBRANCH   2   7
TORSDOF 4
ENDMDL
MODEL 8
REMARK VINA RESULT:      -3.9      2.973      5.830
REMARK  4 active torsions:
REMARK  status: ('A' for Active; 'I' for Inactive)
REMARK    1  A    between atoms: C_1  and  C_4 
REMARK    2  A    between atoms: C_1  and  O_5 
REMARK    3  A    between atoms: C_4  and  C_6 
REMARK    4  A    between atoms: O_5  and  C_9 
ROOT
HETATM    1  O   UNL     1      66.767   4.562   8.753  1.00  0.00    -0.391 OA
HETATM    2  C   UNL     1      67.491   6.461   6.708  1.00  0.00    -0.001 C 
HETATM    3  C   UNL     1      67.202   5.864   9.141  1.00  0.00     0.168 C 
HETATM    4  C   UNL     1      67.446   4.093   7.590  1.00  0.00     0.168 C 
HETATM    5  C   UNL     1      67.153   4.996   6.397  1.00  0.00     0.031 C 
HETATM    6  C   UNL     1      66.883   6.884   8.054  1.00  0.00     0.031 C 
ENDROOT
BRANCH   2   7
HETATM    7  C   UNL     1      67.135   7.438   5.577  1.00  0.00     0.115 C 
BRANCH   7   8
HETATM    8  C   UNL     1      65.773   8.095   5.656  1.00  0.00     0.259 C 
HETATM    9  O   UNL     1      65.591   9.242   6.052  1.00  0.00    -0.265 OA
BRANCH   8  10
HETATM   10  O   UNL     1      64.807   7.248   5.215  1.00  0.00    -0.322 OA
BRANCH  10  11
HETATM   11  C   UNL     1      63.737   6.956   6.131  1.00  0.00     0.174 C 
HETATM   12  C   UNL     1      63.459   5.464   6.193  1.00  0.00     0.034 C 
ENDBRANCH  10  11
ENDBRANCH   8  10
ENDBRANCH   7   8
ENDBRANCH   2   7
TORSDOF 4
ENDMDL
MODEL 9
REMARK VINA RESULT:      -3.9      1.866      5.579
REMARK  4 active torsions:
REMARK  status: ('A' for Active; 'I' for Inactive)
REMARK    1  A    between atoms: C_1  and  C_4 
REMARK    2  A    between atoms: C_1  and  O_5 
REMARK    3  A    between atoms: C_4  and  C_6 
REMARK    4  A    between atoms: O_5  and  C_9 
ROOT
HETATM    1  O   UNL     1      64.685   7.324   6.646  1.00  0.00    -0.391 OA
HETATM    2  C   UNL     1      63.026   8.492   4.598  1.00  0.00    -0.001 C 
HETATM    3  C   UNL     1      65.302   8.067   5.597  1.00  0.00     0.168 C 
HETATM    4  C   UNL     1      63.544   6.600   6.192  1.00  0.00     0.168 C 
HETATM    5  C   UNL     1      62.471   7.556   5.681  1.00  0.00     0.031 C 
HETATM    6  C   UNL     1      64.348   9.127   5.056  1.00  0.00     0.031 C 
ENDROOT
BRANCH   2   7
HETATM    7  C   UNL     1      62.019   9.542   4.103  1.00  0.00     0.115 C 
BRANCH   7   8
HETATM    8  C   UNL     1      62.137   9.959   2.653  1.00  0.00     0.259 C 
HETATM    9  O   UNL     1      61.884  11.088   2.244  1.00  0.00    -0.265 OA
BRANCH   8  10
HETATM   10  O   UNL     1      62.576   8.923   1.890  1.00  0.00    -0.322 OA
BRANCH  10  11
HETATM   11  C   UNL     1      61.906   8.718   0.634  1.00  0.00     0.174 C 
HETATM   12  C   UNL     1      60.485   8.221   0.843  1.00  0.00     0.034 C 
ENDBRANCH  10  11
ENDBRANCH   8  10
ENDBRANCH   7   8
ENDBRANCH   2   7
TORSDOF 4
ENDMDL
