MODEL 1
REMARK VINA RESULT:      -3.8      0.000      0.000
REMARK  3 active torsions:
REMARK  status: ('A' for Active; 'I' for Inactive)
REMARK    1  A    between atoms: O_2  and  C_6 
REMARK    2  A    between atoms: C_3  and  C_7 
REMARK    3  A    between atoms: C_6  and  C_7 
ROOT
HETATM    1  O   UNL     1      62.237  11.499   3.365  1.00  0.00    -0.391 OA
HETATM    2  C   UNL     1      62.182   8.839   2.190  1.00  0.00    -0.009 C 
HETATM    3  C   UNL     1      61.613  11.300   2.097  1.00  0.00     0.168 C 
HETATM    4  C   UNL     1      62.118  10.364   4.221  1.00  0.00     0.168 C 
HETATM    5  C   UNL     1      62.260  10.131   1.364  1.00  0.00     0.031 C 
HETATM    6  C   UNL     1      62.756   9.128   3.589  1.00  0.00     0.031 C 
ENDROOT
BRANCH   2   7
HETATM    7  C   UNL     1      60.759   8.251   2.296  1.00  0.00     0.031 C 
BRANCH   7   8
HETATM    8  C   UNL     1      60.045   8.105   0.955  1.00  0.00     0.164 C 
BRANCH   8   9
HETATM    9  O   UNL     1      58.739   8.662   1.046  1.00  0.00    -0.401 OA
HETATM   10  H   UNL     1      58.655   9.393   0.415  1.00  0.00     0.209 HD
ENDBRANCH   8   9
ENDBRANCH   7   8
ENDBRANCH   2   7
TORSDOF 3
ENDMDL
MODEL 2
REMARK VINA RESULT:      -3.6      1.136      3.898
REMARK  3 active torsions:
REMARK  status: ('A' for Active; 'I' for Inactive)
REMARK    1  A    between atoms: O_2  and  C_6 
REMARK    2  A    between atoms: C_3  and  C_7 
REMARK    3  A    between atoms: C_6  and  C_7 
ROOT
HETATM    1  O   UNL     1      59.959   7.400   1.828  1.00  0.00    -0.391 OA
HETATM    2  C   UNL     1      62.337   9.026   2.228  1.00  0.00    -0.009 C 
HETATM    3  C   UNL     1      60.344   7.774   3.150  1.00  0.00     0.168 C 
HETATM    4  C   UNL     1      60.296   8.389   0.855  1.00  0.00     0.168 C 
HETATM    5  C   UNL     1      61.853   7.966   3.229  1.00  0.00     0.031 C 
HETATM    6  C   UNL     1      61.801   8.649   0.835  1.00  0.00     0.031 C 
ENDROOT
BRANCH   2   7
HETATM    7  C   UNL     1      61.928  10.467   2.598  1.00  0.00     0.031 C 
BRANCH   7   8
HETATM    8  C   UNL     1      62.129  10.812   4.071  1.00  0.00     0.164 C 
BRANCH   8   9
HETATM    9  O   UNL     1      62.040  12.221   4.247  1.00  0.00    -0.401 OA
HETATM   10  H   UNL     1      62.866  12.636   3.952  1.00  0.00     0.209 HD
ENDBRANCH   8   9
ENDBRANCH   7   8
ENDBRANCH   2   7
TORSDOF 3
ENDMDL
MODEL 3
REMARK VINA RESULT:      -3.5      2.460      4.454
REMARK  3 active torsions:
REMARK  status: ('A' for Active; 'I' for Inactive)
REMARK    1  A    between atoms: O_2  and  C_6 
REMARK    2  A    between atoms: C_3  and  C_7 
REMARK    3  A    between atoms: C_6  and  C_7 
ROOT
HETATM    1  O   UNL     1      62.840   7.623   1.991  1.00  0.00    -0.391 OA
HETATM    2  C   UNL     1      62.518   8.505   4.744  1.00  0.00    -0.009 C 
HETATM    3  C   UNL     1      62.385   8.948   2.258  1.00  0.00     0.168 C 
HETATM    4  C   UNL     1      63.743   7.139   2.986  1.00  0.00     0.168 C 
HETATM    5  C   UNL     1      61.637   8.995   3.585  1.00  0.00     0.031 C 
HETATM    6  C   UNL     1      63.085   7.125   4.364  1.00  0.00     0.031 C 
ENDROOT
BRANCH   2   7
HETATM    7  C   UNL     1      63.656   9.479   5.117  1.00  0.00     0.031 C 
BRANCH   7   8
HETATM    8  C   UNL     1      63.174  10.842   5.603  1.00  0.00     0.164 C 
BRANCH   8   9
HETATM    9  O   UNL     1      64.226  11.499   6.300  1.00  0.00    -0.401 OA
HETATM   10  H   UNL     1      63.858  11.994   7.048  1.00  0.00     0.209 HD
ENDBRANCH   8   9
ENDBRANCH   7   8
ENDBRANCH   2   7
TORSDOF 3
ENDMDL
MODEL 4
REMARK VINA RESULT:      -3.4      2.789      4.190
REMARK  3 active torsions:
REMARK  status: ('A' for Active; 'I' for Inactive)
REMARK    1  A    between atoms: O_2  and  C_6 
REMARK    2  A    between atoms: C_3  and  C_7 
REMARK    3  A    between atoms: C_6  and  C_7 
ROOT
HETATM    1  O   UNL     1      62.050  11.053   4.189  1.00  0.00    -0.391 OA
HETATM    2  C   UNL     1      63.506   8.566   4.582  1.00  0.00    -0.009 C 
HETATM    3  C   UNL     1      61.527   9.838   3.656  1.00  0.00     0.168 C 
HETATM    4  C   UNL     1      62.773  10.856   5.404  1.00  0.00     0.168 C 
HETATM    5  C   UNL     1      62.658   8.867   3.337  1.00  0.00     0.031 C 
HETATM    6  C   UNL     1      63.951   9.906   5.194  1.00  0.00     0.031 C 
ENDROOT
BRANCH   2   7
HETATM    7  C   UNL     1      62.783   7.699   5.634  1.00  0.00     0.031 C 
BRANCH   7   8
HETATM    8  C   UNL     1      63.655   6.605   6.244  1.00  0.00     0.164 C 
BRANCH   8   9
HETATM    9  O   UNL     1      64.460   7.159   7.279  1.00  0.00    -0.401 OA
HETATM   10  H   UNL     1      64.475   8.125   7.195  1.00  0.00     0.209 HD
ENDBRANCH   8   9
ENDBRANCH   7   8
ENDBRANCH   2   7
TORSDOF 3
ENDMDL
MODEL 5
REMARK VINA RESULT:      -3.4      3.027      4.536
REMARK  3 active torsions:
REMARK  status: ('A' for Active; 'I' for Inactive)
REMARK    1  A    between atoms: O_2  and  C_6 
REMARK    2  A    between atoms: C_3  and  C_7 
REMARK    3  A    between atoms: C_6  and  C_7 
ROOT
HETATM    1  O   UNL     1      63.865   6.677   6.344  1.00  0.00    -0.391 OA
HETATM    2  C   UNL     1      63.110   8.514   4.220  1.00  0.00    -0.009 C 
HETATM    3  C   UNL     1      64.808   7.639   5.876  1.00  0.00     0.168 C 
HETATM    4  C   UNL     1      62.519   7.146   6.278  1.00  0.00     0.168 C 
HETATM    5  C   UNL     1      64.537   7.981   4.416  1.00  0.00     0.031 C 
HETATM    6  C   UNL     1      62.131   7.503   4.844  1.00  0.00     0.031 C 
ENDROOT
BRANCH   2   7
HETATM    7  C   UNL     1      62.885   9.924   4.804  1.00  0.00     0.031 C 
BRANCH   7   8
HETATM    8  C   UNL     1      62.059  10.844   3.911  1.00  0.00     0.164 C 
BRANCH   8   9
HETATM    9  O   UNL     1      62.110  12.173   4.416  1.00  0.00    -0.401 OA
HETATM   10  H   UNL     1      62.785  12.228   5.110  1.00  0.00     0.209 HD
ENDBRANCH   8   9
ENDBRANCH   7   8
ENDBRANCH   2   7
TORSDOF 3
ENDMDL
MODEL 6
REMARK VINA RESULT:      -3.3      6.938      8.584
REMARK  3 active torsions:
REMARK  status: ('A' for Active; 'I' for Inactive)
REMARK    1  A    between atoms: O_2  and  C_6 
REMARK    2  A    between atoms: C_3  and  C_7 
REMARK    3  A    between atoms: C_6  and  C_7 
ROOT
HETATM    1  O   UNL     1      67.254   4.238   8.871  1.00  0.00    -0.391 OA
HETATM    2  C   UNL     1      66.048   6.682   7.855  1.00  0.00    -0.009 C 
HETATM    3  C   UNL     1      66.653   4.242   7.578  1.00  0.00     0.168 C 
HETATM    4  C   UNL     1      67.839   5.495   9.212  1.00  0.00     0.168 C 
HETATM    5  C   UNL     1      65.533   5.275   7.517  1.00  0.00     0.031 C 
HETATM    6  C   UNL     1      66.794   6.608   9.200  1.00  0.00     0.031 C 
ENDROOT
BRANCH   2   7
HETATM    7  C   UNL     1      66.951   7.294   6.764  1.00  0.00     0.031 C 
BRANCH   7   8
HETATM    8  C   UNL     1      66.186   7.926   5.605  1.00  0.00     0.164 C 
BRANCH   8   9
HETATM    9  O   UNL     1      65.562   9.127   6.043  1.00  0.00    -0.401 OA
HETATM   10  H   UNL     1      66.235   9.729   6.397  1.00  0.00     0.209 HD
ENDBRANCH   8   9
ENDBRANCH   7   8
ENDBRANCH   2   7
TORSDOF 3
ENDMDL
MODEL 7
REMARK VINA RESULT:      -3.3      1.829      3.958
REMARK  3 active torsions:
REMARK  status: ('A' for Active; 'I' for Inactive)
REMARK    1  A    between atoms: O_2  and  C_6 
REMARK    2  A    between atoms: C_3  and  C_7 
REMARK    3  A    between atoms: C_6  and  C_7 
ROOT
HETATM    1  O   UNL     1      60.807   8.713   1.180  1.00  0.00    -0.391 OA
HETATM    2  C   UNL     1      62.032   9.294   3.753  1.00  0.00    -0.009 C 
HETATM    3  C   UNL     1      61.941   9.575   1.242  1.00  0.00     0.168 C 
HETATM    4  C   UNL     1      60.830   7.698   2.183  1.00  0.00     0.168 C 
HETATM    5  C   UNL     1      61.991  10.292   2.586  1.00  0.00     0.031 C 
HETATM    6  C   UNL     1      60.861   8.309   3.582  1.00  0.00     0.031 C 
ENDROOT
BRANCH   2   7
HETATM    7  C   UNL     1      63.370   8.534   3.877  1.00  0.00     0.031 C 
BRANCH   7   8
HETATM    8  C   UNL     1      63.875   8.393   5.309  1.00  0.00     0.164 C 
BRANCH   8   9
HETATM    9  O   UNL     1      64.808   9.429   5.591  1.00  0.00    -0.401 OA
HETATM   10  H   UNL     1      65.085   9.849   4.761  1.00  0.00     0.209 HD
ENDBRANCH   8   9
ENDBRANCH   7   8
ENDBRANCH   2   7
TORSDOF 3
ENDMDL
MODEL 8
REMARK VINA RESULT:      -3.3     12.834     13.690
REMARK  3 active torsions:
REMARK  status: ('A' for Active; 'I' for Inactive)
REMARK    1  A    between atoms: O_2  and  C_6 
REMARK    2  A    between atoms: C_3  and  C_7 
REMARK    3  A    between atoms: C_6  and  C_7 
ROOT
HETATM    1  O   UNL     1      58.668  -0.691  13.806  1.00  0.00    -0.391 OA
HETATM    2  C   UNL     1      59.113   2.014  12.835  1.00  0.00    -0.009 C 
HETATM    3  C   UNL     1      57.897   0.385  14.338  1.00  0.00     0.168 C 
HETATM    4  C   UNL     1      59.019  -0.493  12.437  1.00  0.00     0.168 C 
HETATM    5  C   UNL     1      58.687   1.687  14.274  1.00  0.00     0.031 C 
HETATM    6  C   UNL     1      59.836   0.784  12.257  1.00  0.00     0.031 C 
ENDROOT
BRANCH   2   7
HETATM    7  C   UNL     1      57.945   2.439  11.920  1.00  0.00     0.031 C 
BRANCH   7   8
HETATM    8  C   UNL     1      58.379   2.919  10.539  1.00  0.00     0.164 C 
BRANCH   8   9
HETATM    9  O   UNL     1      58.595   4.325  10.568  1.00  0.00    -0.401 OA
HETATM   10  H   UNL     1      57.919   4.744  11.124  1.00  0.00     0.209 HD
ENDBRANCH   8   9
ENDBRANCH   7   8
ENDBRANCH   2   7
TORSDOF 3
ENDMDL
MODEL 9
REMARK VINA RESULT:      -3.2      3.055      4.387
REMARK  3 active torsions:
REMARK  status: ('A' for Active; 'I' for Inactive)
REMARK    1  A    between atoms: O_2  and  C_6 
REMARK    2  A    between atoms: C_3  and  C_7 
REMARK    3  A    between atoms: C_6  and  C_7 
ROOT
HETATM    1  O   UNL     1      64.572   6.298   5.826  1.00  0.00    -0.391 OA
HETATM    2  C   UNL     1      63.394   8.828   5.007  1.00  0.00    -0.009 C 
HETATM    3  C   UNL     1      63.157   6.403   5.680  1.00  0.00     0.168 C 
HETATM    4  C   UNL     1      65.284   7.132   4.912  1.00  0.00     0.168 C 
HETATM    5  C   UNL     1      62.700   7.832   5.947  1.00  0.00     0.031 C 
HETATM    6  C   UNL     1      64.914   8.601   5.106  1.00  0.00     0.031 C 
ENDROOT
BRANCH   2   7
HETATM    7  C   UNL     1      62.923   8.734   3.541  1.00  0.00     0.031 C 
BRANCH   7   8
HETATM    8  C   UNL     1      61.447   9.064   3.339  1.00  0.00     0.164 C 
BRANCH   8   9
HETATM    9  O   UNL     1      61.200  10.408   3.734  1.00  0.00    -0.401 OA
HETATM   10  H   UNL     1      61.829  10.997   3.288  1.00  0.00     0.209 HD
ENDBRANCH   8   9
ENDBRANCH   7   8
ENDBRANCH   2   7
TORSDOF 3
ENDMDL
