MODEL 1
REMARK VINA RESULT:      -3.9      0.000      0.000
REMARK  3 active torsions:
REMARK  status: ('A' for Active; 'I' for Inactive)
REMARK    1  A    between atoms: C_1  and  C_7 
REMARK    2  A    between atoms: C_2  and  O_6 
REMARK    3  A    between atoms: C_7  and  N_8 
ROOT
HETATM    1  C   UNL     1      63.273   9.612   4.796  1.00  0.00     0.041 A 
HETATM    2  C   UNL     1      64.388   8.822   5.013  1.00  0.00     0.083 A 
HETATM    3  S   UNL     1      62.297   8.982   3.530  1.00  0.00    -0.102 SA
HETATM    4  C   UNL     1      64.420   7.686   4.151  1.00  0.00     0.045 A 
HETATM    5  C   UNL     1      63.345   7.658   3.290  1.00  0.00     0.053 A 
ENDROOT
BRANCH   1   6
HETATM    6  C   UNL     1      62.848  10.863   5.499  1.00  0.00     0.278 C 
BRANCH   6   7
HETATM    7  N   UNL     1      63.941  11.409   6.299  1.00  0.00    -0.075 N 
HETATM    8  H   UNL     1      63.702  12.353   6.602  1.00  0.00     0.274 HD
HETATM    9  H   UNL     1      64.792  11.438   5.736  1.00  0.00     0.274 HD
HETATM   10  H   UNL     1      64.093  10.818   7.116  1.00  0.00     0.274 HD
ENDBRANCH   6   7
ENDBRANCH   1   6
BRANCH   2  11
HETATM   11  O   UNL     1      65.275   9.160   5.986  1.00  0.00    -0.355 OA
HETATM   12  C   UNL     1      66.270   8.176   6.244  1.00  0.00     0.210 C 
ENDBRANCH   2  11
TORSDOF 3
ENDMDL
MODEL 2
REMARK VINA RESULT:      -3.6      2.459      3.417
REMARK  3 active torsions:
REMARK  status: ('A' for Active; 'I' for Inactive)
REMARK    1  A    between atoms: C_1  and  C_7 
REMARK    2  A    between atoms: C_2  and  O_6 
REMARK    3  A    between atoms: C_7  and  N_8 
ROOT
HETATM    1  C   UNL     1      62.798   9.472   4.535  1.00  0.00     0.041 A 
HETATM    2  C   UNL     1      61.968  10.043   3.588  1.00  0.00     0.083 A 
HETATM    3  S   UNL     1      62.634   7.762   4.559  1.00  0.00    -0.102 SA
HETATM    4  C   UNL     1      61.218   9.067   2.868  1.00  0.00     0.045 A 
HETATM    5  C   UNL     1      61.481   7.787   3.303  1.00  0.00     0.053 A 
ENDROOT
BRANCH   1   6
HETATM    6  C   UNL     1      63.762  10.131   5.471  1.00  0.00     0.278 C 
BRANCH   6   7
HETATM    7  N   UNL     1      63.196  11.359   6.022  1.00  0.00    -0.075 N 
HETATM    8  H   UNL     1      63.938  12.047   6.153  1.00  0.00     0.274 HD
HETATM    9  H   UNL     1      62.757  11.158   6.921  1.00  0.00     0.274 HD
HETATM   10  H   UNL     1      62.498  11.731   5.378  1.00  0.00     0.274 HD
ENDBRANCH   6   7
ENDBRANCH   1   6
BRANCH   2  11
HETATM   11  O   UNL     1      61.967  11.393   3.418  1.00  0.00    -0.355 OA
HETATM   12  C   UNL     1      61.770  11.818   2.075  1.00  0.00     0.210 C 
ENDBRANCH   2  11
TORSDOF 3
ENDMDL
MODEL 3
REMARK VINA RESULT:      -3.5      1.862      2.276
REMARK  3 active torsions:
REMARK  status: ('A' for Active; 'I' for Inactive)
REMARK    1  A    between atoms: C_1  and  C_7 
REMARK    2  A    between atoms: C_2  and  O_6 
REMARK    3  A    between atoms: C_7  and  N_8 
ROOT
HETATM    1  C   UNL     1      62.337  10.543   3.864  1.00  0.00     0.041 A 
HETATM    2  C   UNL     1      62.669   9.212   3.686  1.00  0.00     0.083 A 
HETATM    3  S   UNL     1      61.761  11.244   2.405  1.00  0.00    -0.102 SA
HETATM    4  C   UNL     1      62.425   8.768   2.353  1.00  0.00     0.045 A 
HETATM    5  C   UNL     1      61.937   9.777   1.552  1.00  0.00     0.053 A 
ENDROOT
BRANCH   1   6
HETATM    6  C   UNL     1      62.410  11.380   5.103  1.00  0.00     0.278 C 
BRANCH   6   7
HETATM    7  N   UNL     1      63.619  11.079   5.865  1.00  0.00    -0.075 N 
HETATM    8  H   UNL     1      63.635  10.087   6.098  1.00  0.00     0.274 HD
HETATM    9  H   UNL     1      63.626  11.631   6.723  1.00  0.00     0.274 HD
HETATM   10  H   UNL     1      64.440  11.310   5.305  1.00  0.00     0.274 HD
ENDBRANCH   6   7
ENDBRANCH   1   6
BRANCH   2  11
HETATM   11  O   UNL     1      63.137   8.488   4.738  1.00  0.00    -0.355 OA
HETATM   12  C   UNL     1      64.342   7.778   4.475  1.00  0.00     0.210 C 
ENDBRANCH   2  11
TORSDOF 3
ENDMDL
MODEL 4
REMARK VINA RESULT:      -3.4      2.192      3.091
REMARK  3 active torsions:
REMARK  status: ('A' for Active; 'I' for Inactive)
REMARK    1  A    between atoms: C_1  and  C_7 
REMARK    2  A    between atoms: C_2  and  O_6 
REMARK    3  A    between atoms: C_7  and  N_8 
ROOT
HETATM    1  C   UNL     1      63.198   9.472   4.539  1.00  0.00     0.041 A 
HETATM    2  C   UNL     1      62.699   8.820   3.426  1.00  0.00     0.083 A 
HETATM    3  S   UNL     1      64.502   8.601   5.241  1.00  0.00    -0.102 SA
HETATM    4  C   UNL     1      63.411   7.618   3.141  1.00  0.00     0.045 A 
HETATM    5  C   UNL     1      64.411   7.378   4.056  1.00  0.00     0.053 A 
ENDROOT
BRANCH   1   6
HETATM    6  C   UNL     1      62.763  10.766   5.154  1.00  0.00     0.278 C 
BRANCH   6   7
HETATM    7  N   UNL     1      63.734  11.225   6.144  1.00  0.00    -0.075 N 
HETATM    8  H   UNL     1      64.197  12.067   5.802  1.00  0.00     0.274 HD
HETATM    9  H   UNL     1      64.430  10.495   6.302  1.00  0.00     0.274 HD
HETATM   10  H   UNL     1      63.255  11.433   7.020  1.00  0.00     0.274 HD
ENDBRANCH   6   7
ENDBRANCH   1   6
BRANCH   2  11
HETATM   11  O   UNL     1      61.665   9.367   2.731  1.00  0.00    -0.355 OA
HETATM   12  C   UNL     1      61.918   9.546   1.343  1.00  0.00     0.210 C 
ENDBRANCH   2  11
TORSDOF 3
ENDMDL
MODEL 5
REMARK VINA RESULT:      -3.3      1.962      2.980
REMARK  3 active torsions:
REMARK  status: ('A' for Active; 'I' for Inactive)
REMARK    1  A    between atoms: C_1  and  C_7 
REMARK    2  A    between atoms: C_2  and  O_6 
REMARK    3  A    between atoms: C_7  and  N_8 
ROOT
HETATM    1  C   UNL     1      63.926   7.855   4.375  1.00  0.00     0.041 A 
HETATM    2  C   UNL     1      63.299   9.083   4.487  1.00  0.00     0.083 A 
HETATM    3  S   UNL     1      63.460   7.045   2.934  1.00  0.00    -0.102 SA
HETATM    4  C   UNL     1      62.456   9.362   3.372  1.00  0.00     0.045 A 
HETATM    5  C   UNL     1      62.447   8.331   2.457  1.00  0.00     0.053 A 
ENDROOT
BRANCH   1   6
HETATM    6  C   UNL     1      64.903   7.202   5.302  1.00  0.00     0.278 C 
BRANCH   6   7
HETATM    7  N   UNL     1      64.406   7.212   6.675  1.00  0.00    -0.075 N 
HETATM    8  H   UNL     1      63.408   7.004   6.677  1.00  0.00     0.274 HD
HETATM    9  H   UNL     1      64.562   8.133   7.086  1.00  0.00     0.274 HD
HETATM   10  H   UNL     1      64.901   6.507   7.222  1.00  0.00     0.274 HD
ENDBRANCH   6   7
ENDBRANCH   1   6
BRANCH   2  11
HETATM   11  O   UNL     1      63.553   9.873   5.564  1.00  0.00    -0.355 OA
HETATM   12  C   UNL     1      62.856  11.114   5.561  1.00  0.00     0.210 C 
ENDBRANCH   2  11
TORSDOF 3
ENDMDL
MODEL 6
REMARK VINA RESULT:      -3.3      3.877      4.789
REMARK  3 active torsions:
REMARK  status: ('A' for Active; 'I' for Inactive)
REMARK    1  A    between atoms: C_1  and  C_7 
REMARK    2  A    between atoms: C_2  and  O_6 
REMARK    3  A    between atoms: C_7  and  N_8 
ROOT
HETATM    1  C   UNL     1      66.147   6.019   6.440  1.00  0.00     0.041 A 
HETATM    2  C   UNL     1      65.318   7.121   6.339  1.00  0.00     0.083 A 
HETATM    3  S   UNL     1      67.524   6.177   5.426  1.00  0.00    -0.102 SA
HETATM    4  C   UNL     1      65.834   8.104   5.445  1.00  0.00     0.045 A 
HETATM    5  C   UNL     1      67.026   7.712   4.875  1.00  0.00     0.053 A 
ENDROOT
BRANCH   1   6
HETATM    6  C   UNL     1      65.991   4.791   7.282  1.00  0.00     0.278 C 
BRANCH   6   7
HETATM    7  N   UNL     1      66.118   5.113   8.701  1.00  0.00    -0.075 N 
HETATM    8  H   UNL     1      65.191   5.251   9.103  1.00  0.00     0.274 HD
HETATM    9  H   UNL     1      66.666   5.967   8.809  1.00  0.00     0.274 HD
HETATM   10  H   UNL     1      66.586   4.346   9.184  1.00  0.00     0.274 HD
ENDBRANCH   6   7
ENDBRANCH   1   6
BRANCH   2  11
HETATM   11  O   UNL     1      64.177   7.178   7.078  1.00  0.00    -0.355 OA
HETATM   12  C   UNL     1      62.978   7.143   6.314  1.00  0.00     0.210 C 
ENDBRANCH   2  11
TORSDOF 3
ENDMDL
MODEL 7
REMARK VINA RESULT:      -3.2      4.215      5.594
REMARK  3 active torsions:
REMARK  status: ('A' for Active; 'I' for Inactive)
REMARK    1  A    between atoms: C_1  and  C_7 
REMARK    2  A    between atoms: C_2  and  O_6 
REMARK    3  A    between atoms: C_7  and  N_8 
ROOT
HETATM    1  C   UNL     1      67.107   5.888   6.582  1.00  0.00     0.041 A 
HETATM    2  C   UNL     1      66.194   6.666   7.271  1.00  0.00     0.083 A 
HETATM    3  S   UNL     1      68.075   4.961   7.656  1.00  0.00    -0.102 SA
HETATM    4  C   UNL     1      66.280   6.477   8.682  1.00  0.00     0.045 A 
HETATM    5  C   UNL     1      67.268   5.580   9.025  1.00  0.00     0.053 A 
ENDROOT
BRANCH   1   6
HETATM    6  C   UNL     1      67.324   5.766   5.106  1.00  0.00     0.278 C 
BRANCH   6   7
HETATM    7  N   UNL     1      67.698   7.054   4.526  1.00  0.00    -0.075 N 
HETATM    8  H   UNL     1      68.022   7.678   5.264  1.00  0.00     0.274 HD
HETATM    9  H   UNL     1      66.887   7.466   4.063  1.00  0.00     0.274 HD
HETATM   10  H   UNL     1      68.445   6.916   3.846  1.00  0.00     0.274 HD
ENDBRANCH   6   7
ENDBRANCH   1   6
BRANCH   2  11
HETATM   11  O   UNL     1      65.333   7.464   6.584  1.00  0.00    -0.355 OA
HETATM   12  C   UNL     1      64.035   6.912   6.404  1.00  0.00     0.210 C 
ENDBRANCH   2  11
TORSDOF 3
ENDMDL
MODEL 8
REMARK VINA RESULT:      -3.2      2.311      2.397
REMARK  3 active torsions:
REMARK  status: ('A' for Active; 'I' for Inactive)
REMARK    1  A    between atoms: C_1  and  C_7 
REMARK    2  A    between atoms: C_2  and  O_6 
REMARK    3  A    between atoms: C_7  and  N_8 
ROOT
HETATM    1  C   UNL     1      62.457   8.163   4.979  1.00  0.00     0.041 A 
HETATM    2  C   UNL     1      62.639   7.275   6.024  1.00  0.00     0.083 A 
HETATM    3  S   UNL     1      61.177   7.661   3.949  1.00  0.00    -0.102 SA
HETATM    4  C   UNL     1      61.705   6.198   5.987  1.00  0.00     0.045 A 
HETATM    5  C   UNL     1      60.858   6.285   4.904  1.00  0.00     0.053 A 
ENDROOT
BRANCH   1   6
HETATM    6  C   UNL     1      63.196   9.427   4.671  1.00  0.00     0.278 C 
BRANCH   6   7
HETATM    7  N   UNL     1      63.203  10.322   5.826  1.00  0.00    -0.075 N 
HETATM    8  H   UNL     1      63.534  11.243   5.540  1.00  0.00     0.274 HD
HETATM    9  H   UNL     1      63.823   9.945   6.543  1.00  0.00     0.274 HD
HETATM   10  H   UNL     1      62.258  10.401   6.200  1.00  0.00     0.274 HD
ENDBRANCH   6   7
ENDBRANCH   1   6
BRANCH   2  11
HETATM   11  O   UNL     1      63.607   7.513   6.950  1.00  0.00    -0.355 OA
HETATM   12  C   UNL     1      64.802   6.766   6.758  1.00  0.00     0.210 C 
ENDBRANCH   2  11
TORSDOF 3
ENDMDL
MODEL 9
REMARK VINA RESULT:      -3.2      2.876      3.916
REMARK  3 active torsions:
REMARK  status: ('A' for Active; 'I' for Inactive)
REMARK    1  A    between atoms: C_1  and  C_7 
REMARK    2  A    between atoms: C_2  and  O_6 
REMARK    3  A    between atoms: C_7  and  N_8 
ROOT
HETATM    1  C   UNL     1      62.639   8.251   3.004  1.00  0.00     0.041 A 
HETATM    2  C   UNL     1      62.160   9.351   2.316  1.00  0.00     0.083 A 
HETATM    3  S   UNL     1      62.868   6.909   1.957  1.00  0.00    -0.102 SA
HETATM    4  C   UNL     1      62.007   9.091   0.922  1.00  0.00     0.045 A 
HETATM    5  C   UNL     1      62.351   7.798   0.596  1.00  0.00     0.053 A 
ENDROOT
BRANCH   1   6
HETATM    6  C   UNL     1      62.965   8.112   4.459  1.00  0.00     0.278 C 
BRANCH   6   7
HETATM    7  N   UNL     1      63.792   9.226   4.916  1.00  0.00    -0.075 N 
HETATM    8  H   UNL     1      63.831   9.941   4.190  1.00  0.00     0.274 HD
HETATM    9  H   UNL     1      64.735   8.890   5.114  1.00  0.00     0.274 HD
HETATM   10  H   UNL     1      63.388   9.624   5.764  1.00  0.00     0.274 HD
ENDBRANCH   6   7
ENDBRANCH   1   6
BRANCH   2  11
HETATM   11  O   UNL     1      61.925  10.514   2.982  1.00  0.00    -0.355 OA
HETATM   12  C   UNL     1      61.790  11.656   2.144  1.00  0.00     0.210 C 
ENDBRANCH   2  11
TORSDOF 3
ENDMDL
