MODEL 1
REMARK VINA RESULT:      -5.6      0.000      0.000
REMARK  4 active torsions:
REMARK  status: ('A' for Active; 'I' for Inactive)
REMARK    1  A    between atoms: C_1  and  N_6 
REMARK    2  A    between atoms: N_6  and  C_10 
REMARK    3  A    between atoms: C_7  and  C_12 
REMARK    4  A    between atoms: N_11  and  C_12 
ROOT
HETATM    1  C   UNL     1      64.130   8.245   6.002  1.00  0.00     0.682 A 
HETATM    2  N   UNL     1      65.339   8.794   5.811  1.00  0.00    -0.201 N 
ATOM      3  HN  UNL     1      65.449   9.707   5.367  1.00  0.00     0.183 HD
HETATM    4  N   UNL     1      63.944   7.056   6.600  1.00  0.00    -0.201 N 
ATOM      5  HN  UNL     1      63.009   6.663   6.712  1.00  0.00     0.183 HD
HETATM    6  C   UNL     1      66.312   6.868   6.889  1.00  0.00    -0.001 A 
HETATM    7  C   UNL     1      66.402   8.078   6.237  1.00  0.00     0.116 A 
HETATM    8  C   UNL     1      65.028   6.404   7.046  1.00  0.00     0.116 A 
ENDROOT
BRANCH   1   9
HETATM    9  N   UNL     1      63.019   8.980   5.595  1.00  0.00    -0.192 N 
HETATM   10  H   UNL     1      62.381   9.225   6.303  1.00  0.00     0.184 HD
BRANCH   9  11
HETATM   11  C   UNL     1      62.698   9.413   4.302  1.00  0.00     0.049 A 
HETATM   12  C   UNL     1      62.226  10.717   4.105  1.00  0.00     0.030 A 
HETATM   13  C   UNL     1      61.815  11.144   2.838  1.00  0.00     0.002 A 
HETATM   14  C   UNL     1      61.884  10.276   1.749  1.00  0.00     0.000 A 
HETATM   15  C   UNL     1      62.361   8.983   1.925  1.00  0.00     0.002 A 
HETATM   16  C   UNL     1      62.753   8.556   3.195  1.00  0.00     0.030 A 
ENDBRANCH   9  11
ENDBRANCH   1   9
BRANCH   6  17
HETATM   17  C   UNL     1      67.494   6.113   7.392  1.00  0.00     0.271 C 
BRANCH  17  18
HETATM   18  N   UNL     1      67.906   6.585   8.708  1.00  0.00    -0.075 N 
HETATM   19  H   UNL     1      68.636   7.289   8.603  1.00  0.00     0.274 HD
HETATM   20  H   UNL     1      68.265   5.801   9.252  1.00  0.00     0.274 HD
HETATM   21  H   UNL     1      67.106   6.994   9.188  1.00  0.00     0.274 HD
ENDBRANCH  17  18
ENDBRANCH   6  17
TORSDOF 4
ENDMDL
MODEL 2
REMARK VINA RESULT:      -5.5      0.299      1.754
REMARK  4 active torsions:
REMARK  status: ('A' for Active; 'I' for Inactive)
REMARK    1  A    between atoms: C_1  and  N_6 
REMARK    2  A    between atoms: N_6  and  C_10 
REMARK    3  A    between atoms: C_7  and  C_12 
REMARK    4  A    between atoms: N_11  and  C_12 
ROOT
HETATM    1  C   UNL     1      64.017   8.334   5.929  1.00  0.00     0.682 A 
HETATM    2  N   UNL     1      63.842   7.189   6.606  1.00  0.00    -0.201 N 
ATOM      3  HN  UNL     1      62.913   6.860   6.873  1.00  0.00     0.183 HD
HETATM    4  N   UNL     1      65.220   8.789   5.543  1.00  0.00    -0.201 N 
ATOM      5  HN  UNL     1      65.314   9.673   5.044  1.00  0.00     0.183 HD
HETATM    6  C   UNL     1      66.231   6.860   6.537  1.00  0.00    -0.001 A 
HETATM    7  C   UNL     1      64.958   6.494   6.917  1.00  0.00     0.116 A 
HETATM    8  C   UNL     1      66.295   8.040   5.835  1.00  0.00     0.116 A 
ENDROOT
BRANCH   1   9
HETATM    9  N   UNL     1      62.876   9.050   5.575  1.00  0.00    -0.192 N 
HETATM   10  H   UNL     1      62.261   9.272   6.311  1.00  0.00     0.184 HD
BRANCH   9  11
HETATM   11  C   UNL     1      62.496   9.494   4.302  1.00  0.00     0.049 A 
HETATM   12  C   UNL     1      62.572   8.619   3.212  1.00  0.00     0.030 A 
HETATM   13  C   UNL     1      62.283   9.063   1.917  1.00  0.00     0.002 A 
HETATM   14  C   UNL     1      61.901  10.385   1.699  1.00  0.00     0.000 A 
HETATM   15  C   UNL     1      61.808  11.264   2.772  1.00  0.00     0.002 A 
HETATM   16  C   UNL     1      62.115  10.821   4.059  1.00  0.00     0.030 A 
ENDBRANCH   9  11
ENDBRANCH   1   9
BRANCH   6  17
HETATM   17  C   UNL     1      67.446   6.058   6.850  1.00  0.00     0.271 C 
BRANCH  17  18
HETATM   18  N   UNL     1      68.041   6.465   8.117  1.00  0.00    -0.075 N 
HETATM   19  H   UNL     1      67.509   7.242   8.508  1.00  0.00     0.274 HD
HETATM   20  H   UNL     1      69.006   6.757   7.960  1.00  0.00     0.274 HD
HETATM   21  H   UNL     1      68.025   5.681   8.767  1.00  0.00     0.274 HD
ENDBRANCH  17  18
ENDBRANCH   6  17
TORSDOF 4
ENDMDL
MODEL 3
REMARK VINA RESULT:      -5.2      1.778      2.872
REMARK  4 active torsions:
REMARK  status: ('A' for Active; 'I' for Inactive)
REMARK    1  A    between atoms: C_1  and  N_6 
REMARK    2  A    between atoms: N_6  and  C_10 
REMARK    3  A    between atoms: C_7  and  C_12 
REMARK    4  A    between atoms: N_11  and  C_12 
ROOT
HETATM    1  C   UNL     1      66.334   7.377   6.926  1.00  0.00     0.682 A 
HETATM    2  N   UNL     1      65.616   6.826   7.917  1.00  0.00    -0.201 N 
ATOM      3  HN  UNL     1      64.681   7.160   8.151  1.00  0.00     0.183 HD
HETATM    4  N   UNL     1      67.559   6.952   6.574  1.00  0.00    -0.201 N 
ATOM      5  HN  UNL     1      68.080   7.407   5.826  1.00  0.00     0.183 HD
HETATM    6  C   UNL     1      67.431   5.280   8.282  1.00  0.00    -0.001 A 
HETATM    7  C   UNL     1      66.196   5.807   8.588  1.00  0.00     0.116 A 
HETATM    8  C   UNL     1      68.073   5.907   7.241  1.00  0.00     0.116 A 
ENDROOT
BRANCH   1   9
HETATM    9  N   UNL     1      65.742   8.411   6.204  1.00  0.00    -0.192 N 
HETATM   10  H   UNL     1      65.993   9.323   6.472  1.00  0.00     0.184 HD
BRANCH   9  11
HETATM   11  C   UNL     1      64.832   8.311   5.142  1.00  0.00     0.049 A 
HETATM   12  C   UNL     1      63.822   9.271   5.003  1.00  0.00     0.030 A 
HETATM   13  C   UNL     1      62.850   9.145   4.005  1.00  0.00     0.002 A 
HETATM   14  C   UNL     1      62.885   8.064   3.125  1.00  0.00     0.000 A 
HETATM   15  C   UNL     1      63.888   7.109   3.242  1.00  0.00     0.002 A 
HETATM   16  C   UNL     1      64.845   7.230   4.251  1.00  0.00     0.030 A 
ENDBRANCH   9  11
ENDBRANCH   1   9
BRANCH   6  17
HETATM   17  C   UNL     1      68.036   4.126   9.004  1.00  0.00     0.271 C 
BRANCH  17  18
HETATM   18  N   UNL     1      67.236   2.918   8.843  1.00  0.00    -0.075 N 
HETATM   19  H   UNL     1      67.844   2.101   8.873  1.00  0.00     0.274 HD
HETATM   20  H   UNL     1      66.752   2.949   7.945  1.00  0.00     0.274 HD
HETATM   21  H   UNL     1      66.552   2.861   9.596  1.00  0.00     0.274 HD
ENDBRANCH  17  18
ENDBRANCH   6  17
TORSDOF 4
ENDMDL
MODEL 4
REMARK VINA RESULT:      -4.9      1.518      6.138
REMARK  4 active torsions:
REMARK  status: ('A' for Active; 'I' for Inactive)
REMARK    1  A    between atoms: C_1  and  N_6 
REMARK    2  A    between atoms: N_6  and  C_10 
REMARK    3  A    between atoms: C_7  and  C_12 
REMARK    4  A    between atoms: N_11  and  C_12 
ROOT
HETATM    1  C   UNL     1      63.377   8.098   5.425  1.00  0.00     0.682 A 
HETATM    2  N   UNL     1      63.182   9.419   5.546  1.00  0.00    -0.201 N 
ATOM      3  HN  UNL     1      63.419   9.920   6.404  1.00  0.00     0.183 HD
HETATM    4  N   UNL     1      63.096   7.408   4.306  1.00  0.00    -0.201 N 
ATOM      5  HN  UNL     1      63.242   6.400   4.258  1.00  0.00     0.183 HD
HETATM    6  C   UNL     1      62.364   9.441   3.277  1.00  0.00    -0.001 A 
HETATM    7  C   UNL     1      62.654  10.054   4.476  1.00  0.00     0.116 A 
HETATM    8  C   UNL     1      62.616   8.090   3.255  1.00  0.00     0.116 A 
ENDROOT
BRANCH   1   9
HETATM    9  N   UNL     1      63.945   7.431   6.507  1.00  0.00    -0.192 N 
HETATM   10  H   UNL     1      63.337   7.218   7.251  1.00  0.00     0.184 HD
BRANCH   9  11
HETATM   11  C   UNL     1      65.277   7.026   6.669  1.00  0.00     0.049 A 
HETATM   12  C   UNL     1      66.239   7.417   5.730  1.00  0.00     0.030 A 
HETATM   13  C   UNL     1      67.556   6.954   5.820  1.00  0.00     0.002 A 
HETATM   14  C   UNL     1      67.930   6.104   6.860  1.00  0.00     0.000 A 
HETATM   15  C   UNL     1      66.990   5.716   7.807  1.00  0.00     0.002 A 
HETATM   16  C   UNL     1      65.673   6.166   7.702  1.00  0.00     0.030 A 
ENDBRANCH   9  11
ENDBRANCH   1   9
BRANCH   6  17
HETATM   17  C   UNL     1      61.825  10.165   2.091  1.00  0.00     0.271 C 
BRANCH  17  18
HETATM   18  N   UNL     1      61.613  11.577   2.382  1.00  0.00    -0.075 N 
HETATM   19  H   UNL     1      61.729  11.740   3.382  1.00  0.00     0.274 HD
HETATM   20  H   UNL     1      60.669  11.844   2.101  1.00  0.00     0.274 HD
HETATM   21  H   UNL     1      62.291  12.136   1.866  1.00  0.00     0.274 HD
ENDBRANCH  17  18
ENDBRANCH   6  17
TORSDOF 4
ENDMDL
MODEL 5
REMARK VINA RESULT:      -4.8      2.068      6.579
REMARK  4 active torsions:
REMARK  status: ('A' for Active; 'I' for Inactive)
REMARK    1  A    between atoms: C_1  and  N_6 
REMARK    2  A    between atoms: N_6  and  C_10 
REMARK    3  A    between atoms: C_7  and  C_12 
REMARK    4  A    between atoms: N_11  and  C_12 
ROOT
HETATM    1  C   UNL     1      64.870   7.907   5.910  1.00  0.00     0.682 A 
HETATM    2  N   UNL     1      63.841   7.348   6.566  1.00  0.00    -0.201 N 
ATOM      3  HN  UNL     1      63.947   6.974   7.510  1.00  0.00     0.183 HD
HETATM    4  N   UNL     1      64.766   8.428   4.676  1.00  0.00    -0.201 N 
ATOM      5  HN  UNL     1      65.575   8.829   4.203  1.00  0.00     0.183 HD
HETATM    6  C   UNL     1      62.445   7.842   4.662  1.00  0.00    -0.001 A 
HETATM    7  C   UNL     1      62.659   7.307   5.913  1.00  0.00     0.116 A 
HETATM    8  C   UNL     1      63.560   8.403   4.087  1.00  0.00     0.116 A 
ENDROOT
BRANCH   1   9
HETATM    9  N   UNL     1      66.090   7.984   6.578  1.00  0.00    -0.192 N 
HETATM   10  H   UNL     1      66.509   8.874   6.609  1.00  0.00     0.184 HD
BRANCH   9  11
HETATM   11  C   UNL     1      66.796   6.951   7.209  1.00  0.00     0.049 A 
HETATM   12  C   UNL     1      67.291   5.885   6.449  1.00  0.00     0.030 A 
HETATM   13  C   UNL     1      67.921   4.799   7.066  1.00  0.00     0.002 A 
HETATM   14  C   UNL     1      68.075   4.773   8.451  1.00  0.00     0.000 A 
HETATM   15  C   UNL     1      67.600   5.829   9.219  1.00  0.00     0.002 A 
HETATM   16  C   UNL     1      66.956   6.901   8.600  1.00  0.00     0.030 A 
ENDBRANCH   9  11
ENDBRANCH   1   9
BRANCH   6  17
HETATM   17  C   UNL     1      61.123   7.827   3.975  1.00  0.00     0.271 C 
BRANCH  17  18
HETATM   18  N   UNL     1      60.952   8.998   3.124  1.00  0.00    -0.075 N 
HETATM   19  H   UNL     1      61.652   8.984   2.382  1.00  0.00     0.274 HD
HETATM   20  H   UNL     1      61.067   9.844   3.683  1.00  0.00     0.274 HD
HETATM   21  H   UNL     1      60.021   8.986   2.713  1.00  0.00     0.274 HD
ENDBRANCH  17  18
ENDBRANCH   6  17
TORSDOF 4
ENDMDL
MODEL 6
REMARK VINA RESULT:      -4.5      3.655      4.830
REMARK  4 active torsions:
REMARK  status: ('A' for Active; 'I' for Inactive)
REMARK    1  A    between atoms: C_1  and  N_6 
REMARK    2  A    between atoms: N_6  and  C_10 
REMARK    3  A    between atoms: C_7  and  C_12 
REMARK    4  A    between atoms: N_11  and  C_12 
ROOT
HETATM    1  C   UNL     1      61.337   6.852   4.893  1.00  0.00     0.682 A 
HETATM    2  N   UNL     1      61.712   6.558   6.148  1.00  0.00    -0.201 N 
ATOM      3  HN  UNL     1      62.662   6.729   6.478  1.00  0.00     0.183 HD
HETATM    4  N   UNL     1      60.091   6.661   4.429  1.00  0.00    -0.201 N 
ATOM      5  HN  UNL     1      59.849   6.882   3.463  1.00  0.00     0.183 HD
HETATM    6  C   UNL     1      59.455   5.819   6.577  1.00  0.00    -0.001 A 
HETATM    7  C   UNL     1      60.766   6.023   6.951  1.00  0.00     0.116 A 
HETATM    8  C   UNL     1      59.176   6.170   5.278  1.00  0.00     0.116 A 
ENDROOT
BRANCH   1   9
HETATM    9  N   UNL     1      62.290   7.430   4.058  1.00  0.00    -0.192 N 
HETATM   10  H   UNL     1      63.122   6.919   3.934  1.00  0.00     0.184 HD
BRANCH   9  11
HETATM   11  C   UNL     1      62.212   8.651   3.374  1.00  0.00     0.049 A 
HETATM   12  C   UNL     1      62.096   9.844   4.096  1.00  0.00     0.030 A 
HETATM   13  C   UNL     1      61.927  11.066   3.435  1.00  0.00     0.002 A 
HETATM   14  C   UNL     1      61.886  11.109   2.042  1.00  0.00     0.000 A 
HETATM   15  C   UNL     1      62.011   9.935   1.310  1.00  0.00     0.002 A 
HETATM   16  C   UNL     1      62.162   8.716   1.975  1.00  0.00     0.030 A 
ENDBRANCH   9  11
ENDBRANCH   1   9
BRANCH   6  17
HETATM   17  C   UNL     1      58.415   5.270   7.491  1.00  0.00     0.271 C 
BRANCH  17  18
HETATM   18  N   UNL     1      58.860   5.291   8.878  1.00  0.00    -0.075 N 
HETATM   19  H   UNL     1      58.165   5.768   9.451  1.00  0.00     0.274 HD
HETATM   20  H   UNL     1      59.751   5.784   8.942  1.00  0.00     0.274 HD
HETATM   21  H   UNL     1      58.976   4.335   9.212  1.00  0.00     0.274 HD
ENDBRANCH  17  18
ENDBRANCH   6  17
TORSDOF 4
ENDMDL
MODEL 7
REMARK VINA RESULT:      -4.4      1.744      2.158
REMARK  4 active torsions:
REMARK  status: ('A' for Active; 'I' for Inactive)
REMARK    1  A    between atoms: C_1  and  N_6 
REMARK    2  A    between atoms: N_6  and  C_10 
REMARK    3  A    between atoms: C_7  and  C_12 
REMARK    4  A    between atoms: N_11  and  C_12 
ROOT
HETATM    1  C   UNL     1      64.344   6.563   4.561  1.00  0.00     0.682 A 
HETATM    2  N   UNL     1      65.683   6.621   4.627  1.00  0.00    -0.201 N 
ATOM      3  HN  UNL     1      66.224   7.228   4.010  1.00  0.00     0.183 HD
HETATM    4  N   UNL     1      63.596   5.793   5.369  1.00  0.00    -0.201 N 
ATOM      5  HN  UNL     1      62.581   5.762   5.276  1.00  0.00     0.183 HD
HETATM    6  C   UNL     1      65.596   5.039   6.446  1.00  0.00    -0.001 A 
HETATM    7  C   UNL     1      66.277   5.836   5.552  1.00  0.00     0.116 A 
HETATM    8  C   UNL     1      64.229   5.065   6.301  1.00  0.00     0.116 A 
ENDROOT
BRANCH   1   9
HETATM    9  N   UNL     1      63.711   7.385   3.632  1.00  0.00    -0.192 N 
HETATM   10  H   UNL     1      63.587   7.005   2.733  1.00  0.00     0.184 HD
BRANCH   9  11
HETATM   11  C   UNL     1      63.230   8.688   3.820  1.00  0.00     0.049 A 
HETATM   12  C   UNL     1      63.490   9.356   5.023  1.00  0.00     0.030 A 
HETATM   13  C   UNL     1      62.946  10.621   5.270  1.00  0.00     0.002 A 
HETATM   14  C   UNL     1      62.146  11.240   4.310  1.00  0.00     0.000 A 
HETATM   15  C   UNL     1      61.888  10.595   3.106  1.00  0.00     0.002 A 
HETATM   16  C   UNL     1      62.418   9.325   2.872  1.00  0.00     0.030 A 
ENDBRANCH   9  11
ENDBRANCH   1   9
BRANCH   6  17
HETATM   17  C   UNL     1      66.266   4.213   7.490  1.00  0.00     0.271 C 
BRANCH  17  18
HETATM   18  N   UNL     1      66.286   4.897   8.777  1.00  0.00    -0.075 N 
HETATM   19  H   UNL     1      65.373   5.316   8.953  1.00  0.00     0.274 HD
HETATM   20  H   UNL     1      66.998   5.628   8.762  1.00  0.00     0.274 HD
HETATM   21  H   UNL     1      66.501   4.228   9.514  1.00  0.00     0.274 HD
ENDBRANCH  17  18
ENDBRANCH   6  17
TORSDOF 4
ENDMDL
MODEL 8
REMARK VINA RESULT:      -4.3      4.091      5.315
REMARK  4 active torsions:
REMARK  status: ('A' for Active; 'I' for Inactive)
REMARK    1  A    between atoms: C_1  and  N_6 
REMARK    2  A    between atoms: N_6  and  C_10 
REMARK    3  A    between atoms: C_7  and  C_12 
REMARK    4  A    between atoms: N_11  and  C_12 
ROOT
HETATM    1  C   UNL     1      60.856   8.283   2.822  1.00  0.00     0.682 A 
HETATM    2  N   UNL     1      61.141   9.525   3.239  1.00  0.00    -0.201 N 
ATOM      3  HN  UNL     1      60.522  10.312   3.045  1.00  0.00     0.183 HD
HETATM    4  N   UNL     1      61.636   7.219   3.076  1.00  0.00    -0.201 N 
ATOM      5  HN  UNL     1      61.394   6.292   2.726  1.00  0.00     0.183 HD
HETATM    6  C   UNL     1      63.140   8.649   4.268  1.00  0.00    -0.001 A 
HETATM    7  C   UNL     1      62.292   9.681   3.931  1.00  0.00     0.116 A 
HETATM    8  C   UNL     1      62.745   7.417   3.805  1.00  0.00     0.116 A 
ENDROOT
BRANCH   1   9
HETATM    9  N   UNL     1      59.660   8.097   2.131  1.00  0.00    -0.192 N 
HETATM   10  H   UNL     1      59.648   8.410   1.198  1.00  0.00     0.184 HD
BRANCH   9  11
HETATM   11  C   UNL     1      58.473   7.520   2.602  1.00  0.00     0.049 A 
HETATM   12  C   UNL     1      57.520   7.053   1.689  1.00  0.00     0.030 A 
HETATM   13  C   UNL     1      56.290   6.555   2.131  1.00  0.00     0.002 A 
HETATM   14  C   UNL     1      56.004   6.505   3.495  1.00  0.00     0.000 A 
HETATM   15  C   UNL     1      56.944   6.953   4.415  1.00  0.00     0.002 A 
HETATM   16  C   UNL     1      58.163   7.466   3.967  1.00  0.00     0.030 A 
ENDBRANCH   9  11
ENDBRANCH   1   9
BRANCH   6  17
HETATM   17  C   UNL     1      64.382   8.832   5.071  1.00  0.00     0.271 C 
BRANCH  17  18
HETATM   18  N   UNL     1      64.473   7.849   6.142  1.00  0.00    -0.075 N 
HETATM   19  H   UNL     1      65.316   7.289   6.019  1.00  0.00     0.274 HD
HETATM   20  H   UNL     1      63.654   7.242   6.117  1.00  0.00     0.274 HD
HETATM   21  H   UNL     1      64.513   8.328   7.041  1.00  0.00     0.274 HD
ENDBRANCH  17  18
ENDBRANCH   6  17
TORSDOF 4
ENDMDL
MODEL 9
REMARK VINA RESULT:      -4.3      4.640      6.417
REMARK  4 active torsions:
REMARK  status: ('A' for Active; 'I' for Inactive)
REMARK    1  A    between atoms: C_1  and  N_6 
REMARK    2  A    between atoms: N_6  and  C_10 
REMARK    3  A    between atoms: C_7  and  C_12 
REMARK    4  A    between atoms: N_11  and  C_12 
ROOT
HETATM    1  C   UNL     1      59.606   7.036   4.223  1.00  0.00     0.682 A 
HETATM    2  N   UNL     1      59.602   6.197   5.270  1.00  0.00    -0.201 N 
ATOM      3  HN  UNL     1      60.444   5.697   5.560  1.00  0.00     0.183 HD
HETATM    4  N   UNL     1      58.524   7.726   3.825  1.00  0.00    -0.201 N 
ATOM      5  HN  UNL     1      58.562   8.342   3.013  1.00  0.00     0.183 HD
HETATM    6  C   UNL     1      57.275   6.735   5.610  1.00  0.00    -0.001 A 
HETATM    7  C   UNL     1      58.428   6.047   5.921  1.00  0.00     0.116 A 
HETATM    8  C   UNL     1      57.393   7.579   4.531  1.00  0.00     0.116 A 
ENDROOT
BRANCH   1   9
HETATM    9  N   UNL     1      60.814   7.224   3.556  1.00  0.00    -0.192 N 
HETATM   10  H   UNL     1      61.393   6.432   3.481  1.00  0.00     0.184 HD
BRANCH   9  11
HETATM   11  C   UNL     1      61.307   8.403   2.980  1.00  0.00     0.049 A 
HETATM   12  C   UNL     1      61.489   9.540   3.776  1.00  0.00     0.030 A 
HETATM   13  C   UNL     1      61.894  10.752   3.208  1.00  0.00     0.002 A 
HETATM   14  C   UNL     1      62.137  10.838   1.838  1.00  0.00     0.000 A 
HETATM   15  C   UNL     1      61.973   9.716   1.036  1.00  0.00     0.002 A 
HETATM   16  C   UNL     1      61.550   8.513   1.604  1.00  0.00     0.030 A 
ENDBRANCH   9  11
ENDBRANCH   1   9
BRANCH   6  17
HETATM   17  C   UNL     1      56.001   6.591   6.367  1.00  0.00     0.271 C 
BRANCH  17  18
HETATM   18  N   UNL     1      56.137   7.075   7.735  1.00  0.00    -0.075 N 
HETATM   19  H   UNL     1      56.324   8.078   7.723  1.00  0.00     0.274 HD
HETATM   20  H   UNL     1      56.910   6.591   8.191  1.00  0.00     0.274 HD
HETATM   21  H   UNL     1      55.275   6.897   8.247  1.00  0.00     0.274 HD
ENDBRANCH  17  18
ENDBRANCH   6  17
TORSDOF 4
ENDMDL
