MODEL 1
REMARK VINA RESULT:      -4.7      0.000      0.000
REMARK  1 active torsions:
REMARK  status: ('A' for Active; 'I' for Inactive)
REMARK    1  A    between atoms: C_1  and  C_5 
ROOT
HETATM    1  C   UNL     1      63.361   7.808   5.301  1.00  0.00     0.084 A 
HETATM    2  S   UNL     1      63.204   7.255   3.689  1.00  0.00    -0.081 SA
HETATM    3  C   UNL     1      62.990   9.133   5.415  1.00  0.00     0.057 A 
HETATM    4  C   UNL     1      62.575   9.701   4.178  1.00  0.00     0.050 A 
HETATM    5  C   UNL     1      62.640   8.779   3.134  1.00  0.00     0.032 A 
HETATM    6  N   UNL     1      62.159  10.985   4.008  1.00  0.00    -0.365 N 
ATOM      7  HN  UNL     1      62.116  11.649   4.781  1.00  0.00     0.165 HD
HETATM    8  C   UNL     1      62.268   9.161   1.837  1.00  0.00     0.022 A 
HETATM    9  C   UNL     1      61.808  11.320   2.753  1.00  0.00     0.088 A 
HETATM   10  C   UNL     1      61.842  10.474   1.659  1.00  0.00     0.018 A 
ENDROOT
BRANCH   1  11
HETATM   11  C   UNL     1      63.834   6.906   6.323  1.00  0.00     0.216 C 
HETATM   12  O   UNL     1      64.555   7.141   7.282  1.00  0.00    -0.643 OA
HETATM   13  O   UNL     1      63.375   5.650   6.124  1.00  0.00    -0.643 OA
ENDBRANCH   1  11
TORSDOF 1
ENDMDL
MODEL 2
REMARK VINA RESULT:      -4.7      3.307      4.758
REMARK  1 active torsions:
REMARK  status: ('A' for Active; 'I' for Inactive)
REMARK    1  A    between atoms: C_1  and  C_5 
ROOT
HETATM    1  C   UNL     1      62.228  10.047   4.052  1.00  0.00     0.084 A 
HETATM    2  S   UNL     1      61.333   8.706   3.478  1.00  0.00    -0.081 SA
HETATM    3  C   UNL     1      63.112   9.672   5.045  1.00  0.00     0.057 A 
HETATM    4  C   UNL     1      63.057   8.281   5.339  1.00  0.00     0.050 A 
HETATM    5  C   UNL     1      62.118   7.618   4.550  1.00  0.00     0.032 A 
HETATM    6  N   UNL     1      63.819   7.650   6.273  1.00  0.00    -0.365 N 
ATOM      7  HN  UNL     1      64.502   8.147   6.843  1.00  0.00     0.165 HD
HETATM    8  C   UNL     1      61.925   6.237   4.701  1.00  0.00     0.022 A 
HETATM    9  C   UNL     1      63.610   6.325   6.393  1.00  0.00     0.088 A 
HETATM   10  C   UNL     1      62.702   5.588   5.656  1.00  0.00     0.018 A 
ENDROOT
BRANCH   1  11
HETATM   11  C   UNL     1      61.997  11.355   3.488  1.00  0.00     0.216 C 
HETATM   12  O   UNL     1      61.947  11.686   2.312  1.00  0.00    -0.643 OA
HETATM   13  O   UNL     1      61.823  12.285   4.453  1.00  0.00    -0.643 OA
ENDBRANCH   1  11
TORSDOF 1
ENDMDL
MODEL 3
REMARK VINA RESULT:      -4.5      3.182      4.011
REMARK  1 active torsions:
REMARK  status: ('A' for Active; 'I' for Inactive)
REMARK    1  A    between atoms: C_1  and  C_5 
ROOT
HETATM    1  C   UNL     1      63.118   9.811   4.671  1.00  0.00     0.084 A 
HETATM    2  S   UNL     1      62.185   9.427   3.288  1.00  0.00    -0.081 SA
HETATM    3  C   UNL     1      64.080   8.849   4.909  1.00  0.00     0.057 A 
HETATM    4  C   UNL     1      64.055   7.792   3.957  1.00  0.00     0.050 A 
HETATM    5  C   UNL     1      63.058   7.976   3.000  1.00  0.00     0.032 A 
HETATM    6  N   UNL     1      64.892   6.720   3.959  1.00  0.00    -0.365 N 
ATOM      7  HN  UNL     1      65.618   6.598   4.664  1.00  0.00     0.165 HD
HETATM    8  C   UNL     1      62.884   7.031   1.978  1.00  0.00     0.022 A 
HETATM    9  C   UNL     1      64.700   5.832   2.966  1.00  0.00     0.088 A 
HETATM   10  C   UNL     1      63.739   5.933   1.977  1.00  0.00     0.018 A 
ENDROOT
BRANCH   1  11
HETATM   11  C   UNL     1      62.836  11.017   5.410  1.00  0.00     0.216 C 
HETATM   12  O   UNL     1      63.218  11.342   6.525  1.00  0.00    -0.643 OA
HETATM   13  O   UNL     1      62.034  11.850   4.709  1.00  0.00    -0.643 OA
ENDBRANCH   1  11
TORSDOF 1
ENDMDL
MODEL 4
REMARK VINA RESULT:      -4.4      3.465      4.937
REMARK  1 active torsions:
REMARK  status: ('A' for Active; 'I' for Inactive)
REMARK    1  A    between atoms: C_1  and  C_5 
ROOT
HETATM    1  C   UNL     1      62.028   9.994   3.862  1.00  0.00     0.084 A 
HETATM    2  S   UNL     1      63.104   9.675   5.155  1.00  0.00    -0.081 SA
HETATM    3  C   UNL     1      61.333   8.858   3.496  1.00  0.00     0.057 A 
HETATM    4  C   UNL     1      61.682   7.719   4.275  1.00  0.00     0.050 A 
HETATM    5  C   UNL     1      62.650   8.020   5.233  1.00  0.00     0.032 A 
HETATM    6  N   UNL     1      61.150   6.477   4.124  1.00  0.00    -0.365 N 
ATOM      7  HN  UNL     1      60.443   6.271   3.419  1.00  0.00     0.165 HD
HETATM    8  C   UNL     1      63.119   7.018   6.094  1.00  0.00     0.022 A 
HETATM    9  C   UNL     1      61.620   5.537   4.966  1.00  0.00     0.088 A 
HETATM   10  C   UNL     1      62.577   5.745   5.943  1.00  0.00     0.018 A 
ENDROOT
BRANCH   1  11
HETATM   11  C   UNL     1      61.948  11.325   3.312  1.00  0.00     0.216 C 
HETATM   12  O   UNL     1      61.988  11.675   2.141  1.00  0.00    -0.643 OA
HETATM   13  O   UNL     1      61.814  12.255   4.284  1.00  0.00    -0.643 OA
ENDBRANCH   1  11
TORSDOF 1
ENDMDL
MODEL 5
REMARK VINA RESULT:      -4.4      1.957      2.595
REMARK  1 active torsions:
REMARK  status: ('A' for Active; 'I' for Inactive)
REMARK    1  A    between atoms: C_1  and  C_5 
ROOT
HETATM    1  C   UNL     1      64.230   8.063   4.961  1.00  0.00     0.084 A 
HETATM    2  S   UNL     1      63.240   9.448   4.772  1.00  0.00    -0.081 SA
HETATM    3  C   UNL     1      64.142   7.232   3.861  1.00  0.00     0.057 A 
HETATM    4  C   UNL     1      63.261   7.727   2.860  1.00  0.00     0.050 A 
HETATM    5  C   UNL     1      62.689   8.945   3.225  1.00  0.00     0.032 A 
HETATM    6  N   UNL     1      62.993   7.106   1.680  1.00  0.00    -0.365 N 
ATOM      7  HN  UNL     1      63.418   6.216   1.425  1.00  0.00     0.165 HD
HETATM    8  C   UNL     1      61.791   9.586   2.359  1.00  0.00     0.022 A 
HETATM    9  C   UNL     1      62.128   7.747   0.870  1.00  0.00     0.088 A 
HETATM   10  C   UNL     1      61.514   8.954   1.151  1.00  0.00     0.018 A 
ENDROOT
BRANCH   1  11
HETATM   11  C   UNL     1      65.010   7.902   6.163  1.00  0.00     0.216 C 
HETATM   12  O   UNL     1      64.862   7.098   7.072  1.00  0.00    -0.643 OA
HETATM   13  O   UNL     1      66.022   8.797   6.219  1.00  0.00    -0.643 OA
ENDBRANCH   1  11
TORSDOF 1
ENDMDL
MODEL 6
REMARK VINA RESULT:      -4.3      3.216      4.722
REMARK  1 active torsions:
REMARK  status: ('A' for Active; 'I' for Inactive)
REMARK    1  A    between atoms: C_1  and  C_5 
ROOT
HETATM    1  C   UNL     1      63.113   9.154   4.132  1.00  0.00     0.084 A 
HETATM    2  S   UNL     1      63.473   7.656   3.387  1.00  0.00    -0.081 SA
HETATM    3  C   UNL     1      63.983   9.418   5.173  1.00  0.00     0.057 A 
HETATM    4  C   UNL     1      64.948   8.391   5.363  1.00  0.00     0.050 A 
HETATM    5  C   UNL     1      64.790   7.351   4.447  1.00  0.00     0.032 A 
HETATM    6  N   UNL     1      65.919   8.398   6.315  1.00  0.00    -0.365 N 
ATOM      7  HN  UNL     1      66.025   9.165   6.978  1.00  0.00     0.165 HD
HETATM    8  C   UNL     1      65.654   6.247   4.484  1.00  0.00     0.022 A 
HETATM    9  C   UNL     1      66.733   7.326   6.324  1.00  0.00     0.088 A 
HETATM   10  C   UNL     1      66.649   6.251   5.457  1.00  0.00     0.018 A 
ENDROOT
BRANCH   1  11
HETATM   11  C   UNL     1      62.014   9.950   3.643  1.00  0.00     0.216 C 
HETATM   12  O   UNL     1      61.558  10.990   4.094  1.00  0.00    -0.643 OA
HETATM   13  O   UNL     1      61.466   9.405   2.534  1.00  0.00    -0.643 OA
ENDBRANCH   1  11
TORSDOF 1
ENDMDL
MODEL 7
REMARK VINA RESULT:      -4.3      2.462      3.182
REMARK  1 active torsions:
REMARK  status: ('A' for Active; 'I' for Inactive)
REMARK    1  A    between atoms: C_1  and  C_5 
ROOT
HETATM    1  C   UNL     1      62.665   9.535   4.472  1.00  0.00     0.084 A 
HETATM    2  S   UNL     1      62.391   7.853   4.638  1.00  0.00    -0.081 SA
HETATM    3  C   UNL     1      62.096  10.023   3.312  1.00  0.00     0.057 A 
HETATM    4  C   UNL     1      61.433   9.018   2.554  1.00  0.00     0.050 A 
HETATM    5  C   UNL     1      61.513   7.767   3.164  1.00  0.00     0.032 A 
HETATM    6  N   UNL     1      60.791   9.227   1.373  1.00  0.00    -0.365 N 
ATOM      7  HN  UNL     1      60.739  10.148   0.937  1.00  0.00     0.165 HD
HETATM    8  C   UNL     1      60.916   6.652   2.559  1.00  0.00     0.022 A 
HETATM    9  C   UNL     1      60.227   8.138   0.818  1.00  0.00     0.088 A 
HETATM   10  C   UNL     1      60.258   6.862   1.351  1.00  0.00     0.018 A 
ENDROOT
BRANCH   1  11
HETATM   11  C   UNL     1      63.411  10.241   5.485  1.00  0.00     0.216 C 
HETATM   12  O   UNL     1      63.080  11.217   6.142  1.00  0.00    -0.643 OA
HETATM   13  O   UNL     1      64.630   9.688   5.675  1.00  0.00    -0.643 OA
ENDBRANCH   1  11
TORSDOF 1
ENDMDL
MODEL 8
REMARK VINA RESULT:      -3.9      2.520      2.875
REMARK  1 active torsions:
REMARK  status: ('A' for Active; 'I' for Inactive)
REMARK    1  A    between atoms: C_1  and  C_5 
ROOT
HETATM    1  C   UNL     1      62.368   7.942   4.656  1.00  0.00     0.084 A 
HETATM    2  S   UNL     1      62.735   8.931   3.308  1.00  0.00    -0.081 SA
HETATM    3  C   UNL     1      61.219   7.207   4.440  1.00  0.00     0.057 A 
HETATM    4  C   UNL     1      60.635   7.453   3.166  1.00  0.00     0.050 A 
HETATM    5  C   UNL     1      61.364   8.385   2.429  1.00  0.00     0.032 A 
HETATM    6  N   UNL     1      59.501   6.863   2.700  1.00  0.00    -0.365 N 
ATOM      7  HN  UNL     1      58.977   6.182   3.249  1.00  0.00     0.165 HD
HETATM    8  C   UNL     1      60.937   8.753   1.145  1.00  0.00     0.022 A 
HETATM    9  C   UNL     1      59.118   7.236   1.465  1.00  0.00     0.088 A 
HETATM   10  C   UNL     1      59.778   8.151   0.665  1.00  0.00     0.018 A 
ENDROOT
BRANCH   1  11
HETATM   11  C   UNL     1      63.229   7.963   5.813  1.00  0.00     0.216 C 
HETATM   12  O   UNL     1      64.425   8.212   5.876  1.00  0.00    -0.643 OA
HETATM   13  O   UNL     1      62.550   7.655   6.940  1.00  0.00    -0.643 OA
ENDBRANCH   1  11
TORSDOF 1
ENDMDL
MODEL 9
REMARK VINA RESULT:      -3.8      2.255      2.789
REMARK  1 active torsions:
REMARK  status: ('A' for Active; 'I' for Inactive)
REMARK    1  A    between atoms: C_1  and  C_5 
ROOT
HETATM    1  C   UNL     1      64.985   6.934   4.295  1.00  0.00     0.084 A 
HETATM    2  S   UNL     1      65.121   8.137   5.506  1.00  0.00    -0.081 SA
HETATM    3  C   UNL     1      63.992   7.247   3.387  1.00  0.00     0.057 A 
HETATM    4  C   UNL     1      63.338   8.475   3.683  1.00  0.00     0.050 A 
HETATM    5  C   UNL     1      63.856   9.080   4.827  1.00  0.00     0.032 A 
HETATM    6  N   UNL     1      62.326   9.016   2.952  1.00  0.00    -0.365 N 
ATOM      7  HN  UNL     1      61.956   8.563   2.117  1.00  0.00     0.165 HD
HETATM    8  C   UNL     1      63.332  10.302   5.272  1.00  0.00     0.022 A 
HETATM    9  C   UNL     1      61.845  10.189   3.405  1.00  0.00     0.088 A 
HETATM   10  C   UNL     1      62.297  10.858   4.527  1.00  0.00     0.018 A 
ENDROOT
BRANCH   1  11
HETATM   11  C   UNL     1      65.857   5.786   4.328  1.00  0.00     0.216 C 
HETATM   12  O   UNL     1      66.816   5.529   3.615  1.00  0.00    -0.643 OA
HETATM   13  O   UNL     1      65.501   4.923   5.306  1.00  0.00    -0.643 OA
ENDBRANCH   1  11
TORSDOF 1
ENDMDL
