MODEL 1
REMARK VINA RESULT:      -5.7      0.000      0.000
REMARK  3 active torsions:
REMARK  status: ('A' for Active; 'I' for Inactive)
REMARK    1  A    between atoms: C_3  and  C_8 
REMARK    2  A    between atoms: C_6  and  C_9 
REMARK    3  A    between atoms: C_9  and  N_10 
ROOT
HETATM    1  N   UNL     1      64.824   8.072   5.117  1.00  0.00    -0.321 N 
ATOM      2  HN  UNL     1      65.526   8.248   4.398  1.00  0.00     0.169 HD
HETATM    3  C   UNL     1      63.498   8.459   5.144  1.00  0.00     0.137 A 
HETATM    4  N   UNL     1      62.835   8.044   6.238  1.00  0.00    -0.242 N 
ATOM      5  HN  UNL     1      61.854   8.196   6.474  1.00  0.00     0.196 HD
HETATM    6  C   UNL     1      64.952   7.420   6.252  1.00  0.00     0.174 A 
HETATM    7  O   UNL     1      63.798   7.359   6.974  1.00  0.00    -0.221 OA
ENDROOT
BRANCH   3   8
HETATM    8  C   UNL     1      62.886   9.232   4.068  1.00  0.00     0.010 A 
HETATM    9  C   UNL     1      62.453  10.547   4.297  1.00  0.00     0.015 A 
HETATM   10  C   UNL     1      61.875  11.296   3.268  1.00  0.00     0.001 A 
HETATM   11  C   UNL     1      61.722  10.738   2.000  1.00  0.00     0.000 A 
HETATM   12  C   UNL     1      62.143   9.432   1.759  1.00  0.00     0.001 A 
HETATM   13  C   UNL     1      62.721   8.683   2.788  1.00  0.00     0.015 A 
ENDBRANCH   3   8
BRANCH   6  14
HETATM   14  C   UNL     1      66.144   6.742   6.830  1.00  0.00     0.315 C 
BRANCH  14  15
HETATM   15  N   UNL     1      67.064   7.688   7.471  1.00  0.00    -0.072 N 
HETATM   16  H   UNL     1      66.555   8.243   8.159  1.00  0.00     0.274 HD
HETATM   17  H   UNL     1      67.464   8.305   6.765  1.00  0.00     0.274 HD
HETATM   18  H   UNL     1      67.811   7.172   7.936  1.00  0.00     0.274 HD
ENDBRANCH  14  15
ENDBRANCH   6  14
TORSDOF 3
ENDMDL
MODEL 2
REMARK VINA RESULT:      -5.6      0.037      1.339
REMARK  3 active torsions:
REMARK  status: ('A' for Active; 'I' for Inactive)
REMARK    1  A    between atoms: C_3  and  C_8 
REMARK    2  A    between atoms: C_6  and  C_9 
REMARK    3  A    between atoms: C_9  and  N_10 
ROOT
HETATM    1  N   UNL     1      64.822   8.047   5.126  1.00  0.00    -0.321 N 
ATOM      2  HN  UNL     1      65.527   8.216   4.409  1.00  0.00     0.169 HD
HETATM    3  C   UNL     1      63.499   8.444   5.150  1.00  0.00     0.137 A 
HETATM    4  N   UNL     1      62.830   8.036   6.242  1.00  0.00    -0.242 N 
ATOM      5  HN  UNL     1      61.850   8.195   6.476  1.00  0.00     0.196 HD
HETATM    6  C   UNL     1      64.943   7.396   6.263  1.00  0.00     0.174 A 
HETATM    7  O   UNL     1      63.787   7.345   6.982  1.00  0.00    -0.221 OA
ENDROOT
BRANCH   3   8
HETATM    8  C   UNL     1      62.895   9.220   4.070  1.00  0.00     0.010 A 
HETATM    9  C   UNL     1      62.750   8.662   2.791  1.00  0.00     0.015 A 
HETATM   10  C   UNL     1      62.164   9.397   1.756  1.00  0.00     0.001 A 
HETATM   11  C   UNL     1      61.719  10.697   1.988  1.00  0.00     0.000 A 
HETATM   12  C   UNL     1      61.862  11.266   3.252  1.00  0.00     0.001 A 
HETATM   13  C   UNL     1      62.447  10.531   4.287  1.00  0.00     0.015 A 
ENDBRANCH   3   8
BRANCH   6  14
HETATM   14  C   UNL     1      66.128   6.712   6.845  1.00  0.00     0.315 C 
BRANCH  14  15
HETATM   15  N   UNL     1      67.102   7.659   7.397  1.00  0.00    -0.072 N 
HETATM   16  H   UNL     1      67.696   8.011   6.646  1.00  0.00     0.274 HD
HETATM   17  H   UNL     1      67.678   7.188   8.094  1.00  0.00     0.274 HD
HETATM   18  H   UNL     1      66.609   8.438   7.833  1.00  0.00     0.274 HD
ENDBRANCH  14  15
ENDBRANCH   6  14
TORSDOF 3
ENDMDL
MODEL 3
REMARK VINA RESULT:      -5.1      1.804      2.294
REMARK  3 active torsions:
REMARK  status: ('A' for Active; 'I' for Inactive)
REMARK    1  A    between atoms: C_3  and  C_8 
REMARK    2  A    between atoms: C_6  and  C_9 
REMARK    3  A    between atoms: C_9  and  N_10 
ROOT
HETATM    1  N   UNL     1      62.510   6.982   4.741  1.00  0.00    -0.321 N 
ATOM      2  HN  UNL     1      62.179   6.487   3.912  1.00  0.00     0.169 HD
HETATM    3  C   UNL     1      62.673   8.341   4.930  1.00  0.00     0.137 A 
HETATM    4  N   UNL     1      63.113   8.668   6.157  1.00  0.00    -0.242 N 
ATOM      5  HN  UNL     1      63.296   9.599   6.532  1.00  0.00     0.196 HD
HETATM    6  C   UNL     1      62.890   6.487   5.899  1.00  0.00     0.174 A 
HETATM    7  O   UNL     1      63.261   7.441   6.798  1.00  0.00    -0.221 OA
ENDROOT
BRANCH   3   8
HETATM    8  C   UNL     1      62.373   9.317   3.886  1.00  0.00     0.010 A 
HETATM    9  C   UNL     1      62.159  10.664   4.216  1.00  0.00     0.015 A 
HETATM   10  C   UNL     1      61.881  11.605   3.220  1.00  0.00     0.001 A 
HETATM   11  C   UNL     1      61.813  11.210   1.886  1.00  0.00     0.000 A 
HETATM   12  C   UNL     1      62.018   9.875   1.544  1.00  0.00     0.001 A 
HETATM   13  C   UNL     1      62.296   8.934   2.539  1.00  0.00     0.015 A 
ENDBRANCH   3   8
BRANCH   6  14
HETATM   14  C   UNL     1      62.952   5.072   6.354  1.00  0.00     0.315 C 
BRANCH  14  15
HETATM   15  N   UNL     1      61.621   4.513   6.612  1.00  0.00    -0.072 N 
HETATM   16  H   UNL     1      61.635   3.509   6.433  1.00  0.00     0.274 HD
HETATM   17  H   UNL     1      60.940   4.959   5.997  1.00  0.00     0.274 HD
HETATM   18  H   UNL     1      61.364   4.682   7.584  1.00  0.00     0.274 HD
ENDBRANCH  14  15
ENDBRANCH   6  14
TORSDOF 3
ENDMDL
MODEL 4
REMARK VINA RESULT:      -5.1      1.725      2.227
REMARK  3 active torsions:
REMARK  status: ('A' for Active; 'I' for Inactive)
REMARK    1  A    between atoms: C_3  and  C_8 
REMARK    2  A    between atoms: C_6  and  C_9 
REMARK    3  A    between atoms: C_9  and  N_10 
ROOT
HETATM    1  N   UNL     1      62.712   6.914   4.722  1.00  0.00    -0.321 N 
ATOM      2  HN  UNL     1      62.489   6.410   3.864  1.00  0.00     0.169 HD
HETATM    3  C   UNL     1      62.735   8.278   4.943  1.00  0.00     0.137 A 
HETATM    4  N   UNL     1      63.053   8.617   6.204  1.00  0.00    -0.242 N 
ATOM      5  HN  UNL     1      63.122   9.553   6.605  1.00  0.00     0.196 HD
HETATM    6  C   UNL     1      63.052   6.431   5.897  1.00  0.00     0.174 A 
HETATM    7  O   UNL     1      63.267   7.395   6.836  1.00  0.00    -0.221 OA
ENDROOT
BRANCH   3   8
HETATM    8  C   UNL     1      62.422   9.246   3.895  1.00  0.00     0.010 A 
HETATM    9  C   UNL     1      62.358   8.842   2.554  1.00  0.00     0.015 A 
HETATM   10  C   UNL     1      62.050   9.762   1.547  1.00  0.00     0.001 A 
HETATM   11  C   UNL     1      61.805  11.095   1.871  1.00  0.00     0.000 A 
HETATM   12  C   UNL     1      61.871  11.512   3.199  1.00  0.00     0.001 A 
HETATM   13  C   UNL     1      62.178  10.592   4.206  1.00  0.00     0.015 A 
ENDBRANCH   3   8
BRANCH   6  14
HETATM   14  C   UNL     1      63.211   5.018   6.335  1.00  0.00     0.315 C 
BRANCH  14  15
HETATM   15  N   UNL     1      64.618   4.613   6.407  1.00  0.00    -0.072 N 
HETATM   16  H   UNL     1      64.722   3.864   7.092  1.00  0.00     0.274 HD
HETATM   17  H   UNL     1      65.188   5.412   6.686  1.00  0.00     0.274 HD
HETATM   18  H   UNL     1      64.923   4.281   5.492  1.00  0.00     0.274 HD
ENDBRANCH  14  15
ENDBRANCH   6  14
TORSDOF 3
ENDMDL
MODEL 5
REMARK VINA RESULT:      -4.9      1.641      2.070
REMARK  3 active torsions:
REMARK  status: ('A' for Active; 'I' for Inactive)
REMARK    1  A    between atoms: C_3  and  C_8 
REMARK    2  A    between atoms: C_6  and  C_9 
REMARK    3  A    between atoms: C_9  and  N_10 
ROOT
HETATM    1  N   UNL     1      64.624   7.846   4.389  1.00  0.00    -0.321 N 
ATOM      2  HN  UNL     1      64.807   7.014   3.827  1.00  0.00     0.169 HD
HETATM    3  C   UNL     1      63.544   8.706   4.335  1.00  0.00     0.137 A 
HETATM    4  N   UNL     1      63.601   9.703   5.235  1.00  0.00    -0.242 N 
ATOM      5  HN  UNL     1      62.921  10.447   5.392  1.00  0.00     0.196 HD
HETATM    6  C   UNL     1      65.357   8.371   5.346  1.00  0.00     0.174 A 
HETATM    7  O   UNL     1      64.802   9.484   5.903  1.00  0.00    -0.221 OA
ENDROOT
BRANCH   3   8
HETATM    8  C   UNL     1      62.445   8.524   3.392  1.00  0.00     0.010 A 
HETATM    9  C   UNL     1      62.482   9.139   2.132  1.00  0.00     0.015 A 
HETATM   10  C   UNL     1      61.436   8.960   1.221  1.00  0.00     0.001 A 
HETATM   11  C   UNL     1      60.342   8.167   1.561  1.00  0.00     0.000 A 
HETATM   12  C   UNL     1      60.290   7.554   2.810  1.00  0.00     0.001 A 
HETATM   13  C   UNL     1      61.335   7.731   3.721  1.00  0.00     0.015 A 
ENDBRANCH   3   8
BRANCH   6  14
HETATM   14  C   UNL     1      66.660   7.918   5.903  1.00  0.00     0.315 C 
BRANCH  14  15
HETATM   15  N   UNL     1      66.962   8.546   7.194  1.00  0.00    -0.072 N 
HETATM   16  H   UNL     1      66.328   8.181   7.905  1.00  0.00     0.274 HD
HETATM   17  H   UNL     1      66.842   9.556   7.117  1.00  0.00     0.274 HD
HETATM   18  H   UNL     1      67.925   8.336   7.457  1.00  0.00     0.274 HD
ENDBRANCH  14  15
ENDBRANCH   6  14
TORSDOF 3
ENDMDL
MODEL 6
REMARK VINA RESULT:      -4.6      2.152      5.475
REMARK  3 active torsions:
REMARK  status: ('A' for Active; 'I' for Inactive)
REMARK    1  A    between atoms: C_3  and  C_8 
REMARK    2  A    between atoms: C_6  and  C_9 
REMARK    3  A    between atoms: C_9  and  N_10 
ROOT
HETATM    1  N   UNL     1      63.688   8.363   3.966  1.00  0.00    -0.321 N 
ATOM      2  HN  UNL     1      63.806   7.584   3.319  1.00  0.00     0.169 HD
HETATM    3  C   UNL     1      64.405   8.654   5.110  1.00  0.00     0.137 A 
HETATM    4  N   UNL     1      64.004   9.777   5.731  1.00  0.00    -0.242 N 
ATOM      5  HN  UNL     1      64.385  10.197   6.579  1.00  0.00     0.196 HD
HETATM    6  C   UNL     1      62.813   9.344   3.923  1.00  0.00     0.174 A 
HETATM    7  O   UNL     1      62.947  10.233   4.947  1.00  0.00    -0.221 OA
ENDROOT
BRANCH   3   8
HETATM    8  C   UNL     1      65.507   7.817   5.577  1.00  0.00     0.010 A 
HETATM    9  C   UNL     1      65.337   6.976   6.686  1.00  0.00     0.015 A 
HETATM   10  C   UNL     1      66.384   6.165   7.133  1.00  0.00     0.001 A 
HETATM   11  C   UNL     1      67.613   6.188   6.476  1.00  0.00     0.000 A 
HETATM   12  C   UNL     1      67.799   7.023   5.377  1.00  0.00     0.001 A 
HETATM   13  C   UNL     1      66.751   7.833   4.930  1.00  0.00     0.015 A 
ENDBRANCH   3   8
BRANCH   6  14
HETATM   14  C   UNL     1      61.742   9.620   2.928  1.00  0.00     0.315 C 
BRANCH  14  15
HETATM   15  N   UNL     1      61.585  11.054   2.664  1.00  0.00    -0.072 N 
HETATM   16  H   UNL     1      60.646  11.348   2.933  1.00  0.00     0.274 HD
HETATM   17  H   UNL     1      61.726  11.234   1.670  1.00  0.00     0.274 HD
HETATM   18  H   UNL     1      62.273  11.577   3.206  1.00  0.00     0.274 HD
ENDBRANCH  14  15
ENDBRANCH   6  14
TORSDOF 3
ENDMDL
MODEL 7
REMARK VINA RESULT:      -4.5      1.579      2.164
REMARK  3 active torsions:
REMARK  status: ('A' for Active; 'I' for Inactive)
REMARK    1  A    between atoms: C_3  and  C_8 
REMARK    2  A    between atoms: C_6  and  C_9 
REMARK    3  A    between atoms: C_9  and  N_10 
ROOT
HETATM    1  N   UNL     1      64.950   7.117   5.483  1.00  0.00    -0.321 N 
ATOM      2  HN  UNL     1      64.778   6.142   5.235  1.00  0.00     0.169 HD
HETATM    3  C   UNL     1      64.204   8.235   5.166  1.00  0.00     0.137 A 
HETATM    4  N   UNL     1      64.700   9.378   5.670  1.00  0.00    -0.242 N 
ATOM      5  HN  UNL     1      64.321  10.321   5.581  1.00  0.00     0.196 HD
HETATM    6  C   UNL     1      65.938   7.626   6.186  1.00  0.00     0.174 A 
HETATM    7  O   UNL     1      65.850   8.976   6.343  1.00  0.00    -0.221 OA
ENDROOT
BRANCH   3   8
HETATM    8  C   UNL     1      62.982   8.161   4.369  1.00  0.00     0.010 A 
HETATM    9  C   UNL     1      62.067   7.116   4.569  1.00  0.00     0.015 A 
HETATM   10  C   UNL     1      60.892   7.045   3.816  1.00  0.00     0.001 A 
HETATM   11  C   UNL     1      60.619   8.016   2.854  1.00  0.00     0.000 A 
HETATM   12  C   UNL     1      61.521   9.056   2.641  1.00  0.00     0.001 A 
HETATM   13  C   UNL     1      62.697   9.128   3.394  1.00  0.00     0.015 A 
ENDBRANCH   3   8
BRANCH   6  14
HETATM   14  C   UNL     1      67.094   6.947   6.831  1.00  0.00     0.315 C 
BRANCH  14  15
HETATM   15  N   UNL     1      67.298   7.390   8.214  1.00  0.00    -0.072 N 
HETATM   16  H   UNL     1      67.432   6.577   8.815  1.00  0.00     0.274 HD
HETATM   17  H   UNL     1      66.481   7.914   8.528  1.00  0.00     0.274 HD
HETATM   18  H   UNL     1      68.124   7.988   8.262  1.00  0.00     0.274 HD
ENDBRANCH  14  15
ENDBRANCH   6  14
TORSDOF 3
ENDMDL
MODEL 8
REMARK VINA RESULT:      -4.5      2.280      6.744
REMARK  3 active torsions:
REMARK  status: ('A' for Active; 'I' for Inactive)
REMARK    1  A    between atoms: C_3  and  C_8 
REMARK    2  A    between atoms: C_6  and  C_9 
REMARK    3  A    between atoms: C_9  and  N_10 
ROOT
HETATM    1  N   UNL     1      65.092   6.954   5.915  1.00  0.00    -0.321 N 
ATOM      2  HN  UNL     1      64.604   6.092   5.672  1.00  0.00     0.169 HD
HETATM    3  C   UNL     1      66.185   7.125   6.743  1.00  0.00     0.137 A 
HETATM    4  N   UNL     1      66.600   8.400   6.835  1.00  0.00    -0.242 N 
ATOM      5  HN  UNL     1      67.386   8.769   7.372  1.00  0.00     0.196 HD
HETATM    6  C   UNL     1      64.840   8.183   5.521  1.00  0.00     0.174 A 
HETATM    7  O   UNL     1      65.708   9.102   6.029  1.00  0.00    -0.221 OA
ENDROOT
BRANCH   3   8
HETATM    8  C   UNL     1      66.827   6.009   7.433  1.00  0.00     0.010 A 
HETATM    9  C   UNL     1      66.834   4.730   6.858  1.00  0.00     0.015 A 
HETATM   10  C   UNL     1      67.456   3.660   7.508  1.00  0.00     0.001 A 
HETATM   11  C   UNL     1      68.075   3.858   8.741  1.00  0.00     0.000 A 
HETATM   12  C   UNL     1      68.071   5.122   9.327  1.00  0.00     0.001 A 
HETATM   13  C   UNL     1      67.450   6.192   8.676  1.00  0.00     0.015 A 
ENDBRANCH   3   8
BRANCH   6  14
HETATM   14  C   UNL     1      63.781   8.690   4.607  1.00  0.00     0.315 C 
BRANCH  14  15
HETATM   15  N   UNL     1      62.786   7.662   4.285  1.00  0.00    -0.072 N 
HETATM   16  H   UNL     1      62.909   6.864   4.909  1.00  0.00     0.274 HD
HETATM   17  H   UNL     1      62.908   7.361   3.319  1.00  0.00     0.274 HD
HETATM   18  H   UNL     1      61.849   8.047   4.406  1.00  0.00     0.274 HD
ENDBRANCH  14  15
ENDBRANCH   6  14
TORSDOF 3
ENDMDL
MODEL 9
REMARK VINA RESULT:      -4.4      2.121      5.711
REMARK  3 active torsions:
REMARK  status: ('A' for Active; 'I' for Inactive)
REMARK    1  A    between atoms: C_3  and  C_8 
REMARK    2  A    between atoms: C_6  and  C_9 
REMARK    3  A    between atoms: C_9  and  N_10 
ROOT
HETATM    1  N   UNL     1      64.338   8.892   5.637  1.00  0.00    -0.321 N 
ATOM      2  HN  UNL     1      64.562   9.334   6.528  1.00  0.00     0.169 HD
HETATM    3  C   UNL     1      64.866   7.741   5.084  1.00  0.00     0.137 A 
HETATM    4  N   UNL     1      64.334   7.418   3.893  1.00  0.00    -0.242 N 
ATOM      5  HN  UNL     1      64.554   6.615   3.303  1.00  0.00     0.196 HD
HETATM    6  C   UNL     1      63.473   9.274   4.722  1.00  0.00     0.174 A 
HETATM    7  O   UNL     1      63.414   8.434   3.651  1.00  0.00    -0.221 OA
ENDROOT
BRANCH   3   8
HETATM    8  C   UNL     1      65.896   6.952   5.755  1.00  0.00     0.010 A 
HETATM    9  C   UNL     1      66.577   5.940   5.063  1.00  0.00     0.015 A 
HETATM   10  C   UNL     1      67.571   5.189   5.697  1.00  0.00     0.001 A 
HETATM   11  C   UNL     1      67.892   5.439   7.029  1.00  0.00     0.000 A 
HETATM   12  C   UNL     1      67.220   6.437   7.731  1.00  0.00     0.001 A 
HETATM   13  C   UNL     1      66.227   7.190   7.097  1.00  0.00     0.015 A 
ENDBRANCH   3   8
BRANCH   6  14
HETATM   14  C   UNL     1      62.563  10.450   4.707  1.00  0.00     0.315 C 
BRANCH  14  15
HETATM   15  N   UNL     1      62.976  11.485   5.660  1.00  0.00    -0.072 N 
HETATM   16  H   UNL     1      62.700  11.208   6.602  1.00  0.00     0.274 HD
HETATM   17  H   UNL     1      62.526  12.368   5.420  1.00  0.00     0.274 HD
HETATM   18  H   UNL     1      63.989  11.597   5.622  1.00  0.00     0.274 HD
ENDBRANCH  14  15
ENDBRANCH   6  14
TORSDOF 3
ENDMDL
