MODEL 1
REMARK VINA RESULT:      -4.7      0.000      0.000
REMARK  3 active torsions:
REMARK  status: ('A' for Active; 'I' for Inactive)
REMARK    1  A    between atoms: C_1  and  C_2 
REMARK    2  A    between atoms: C_1  and  C_4 
REMARK    3  A    between atoms: N_3  and  C_4 
ROOT
HETATM    1  C   UNL     1      63.275   9.013   4.885  1.00  0.00     0.003 C 
HETATM    2  C   UNL     1      64.798   8.813   5.094  1.00  0.00     0.021 C 
HETATM    3  C   UNL     1      62.575   8.002   5.829  1.00  0.00     0.021 C 
ENDROOT
BRANCH   1   4
HETATM    4  C   UNL     1      62.862   8.783   3.411  1.00  0.00    -0.049 A 
HETATM    5  C   UNL     1      62.185   9.774   2.676  1.00  0.00     0.008 A 
HETATM    6  C   UNL     1      61.802   9.566   1.347  1.00  0.00     0.001 A 
HETATM    7  C   UNL     1      62.074   8.354   0.722  1.00  0.00     0.000 A 
HETATM    8  C   UNL     1      62.721   7.348   1.431  1.00  0.00     0.001 A 
HETATM    9  C   UNL     1      63.101   7.558   2.760  1.00  0.00     0.008 A 
ENDBRANCH   1   4
BRANCH   1  10
HETATM   10  C   UNL     1      62.878  10.473   5.268  1.00  0.00     0.243 C 
BRANCH  10  11
HETATM   11  N   UNL     1      63.822  11.152   6.164  1.00  0.00    -0.078 N 
HETATM   12  H   UNL     1      64.475  11.707   5.611  1.00  0.00     0.274 HD
HETATM   13  H   UNL     1      64.338  10.456   6.703  1.00  0.00     0.274 HD
HETATM   14  H   UNL     1      63.308  11.762   6.799  1.00  0.00     0.274 HD
ENDBRANCH  10  11
ENDBRANCH   1  10
TORSDOF 3
ENDMDL
MODEL 2
REMARK VINA RESULT:      -4.6      1.604      2.536
REMARK  3 active torsions:
REMARK  status: ('A' for Active; 'I' for Inactive)
REMARK    1  A    between atoms: C_1  and  C_2 
REMARK    2  A    between atoms: C_1  and  C_4 
REMARK    3  A    between atoms: N_3  and  C_4 
ROOT
HETATM    1  C   UNL     1      63.338   7.796   4.324  1.00  0.00     0.003 C 
HETATM    2  C   UNL     1      63.857   6.783   3.272  1.00  0.00     0.021 C 
HETATM    3  C   UNL     1      62.246   7.052   5.135  1.00  0.00     0.021 C 
ENDROOT
BRANCH   1   4
HETATM    4  C   UNL     1      62.771   9.073   3.661  1.00  0.00    -0.049 A 
HETATM    5  C   UNL     1      62.528  10.242   4.409  1.00  0.00     0.008 A 
HETATM    6  C   UNL     1      62.006  11.395   3.813  1.00  0.00     0.001 A 
HETATM    7  C   UNL     1      61.700  11.407   2.458  1.00  0.00     0.000 A 
HETATM    8  C   UNL     1      61.908  10.260   1.699  1.00  0.00     0.001 A 
HETATM    9  C   UNL     1      62.427   9.107   2.296  1.00  0.00     0.008 A 
ENDBRANCH   1   4
BRANCH   1  10
HETATM   10  C   UNL     1      64.508   8.226   5.263  1.00  0.00     0.243 C 
BRANCH  10  11
HETATM   11  N   UNL     1      64.542   7.537   6.559  1.00  0.00    -0.078 N 
HETATM   12  H   UNL     1      64.280   6.560   6.432  1.00  0.00     0.274 HD
HETATM   13  H   UNL     1      63.885   7.985   7.198  1.00  0.00     0.274 HD
HETATM   14  H   UNL     1      65.483   7.590   6.947  1.00  0.00     0.274 HD
ENDBRANCH  10  11
ENDBRANCH   1  10
TORSDOF 3
ENDMDL
MODEL 3
REMARK VINA RESULT:      -4.6      2.383      4.222
REMARK  3 active torsions:
REMARK  status: ('A' for Active; 'I' for Inactive)
REMARK    1  A    between atoms: C_1  and  C_2 
REMARK    2  A    between atoms: C_1  and  C_4 
REMARK    3  A    between atoms: N_3  and  C_4 
ROOT
HETATM    1  C   UNL     1      62.007   8.300   1.945  1.00  0.00     0.003 C 
HETATM    2  C   UNL     1      62.890   7.027   1.894  1.00  0.00     0.021 C 
HETATM    3  C   UNL     1      62.260   9.054   0.614  1.00  0.00     0.021 C 
ENDROOT
BRANCH   1   4
HETATM    4  C   UNL     1      62.348   9.187   3.166  1.00  0.00    -0.049 A 
HETATM    5  C   UNL     1      61.868  10.507   3.271  1.00  0.00     0.008 A 
HETATM    6  C   UNL     1      62.183  11.315   4.368  1.00  0.00     0.001 A 
HETATM    7  C   UNL     1      62.999  10.829   5.384  1.00  0.00     0.000 A 
HETATM    8  C   UNL     1      63.507   9.538   5.295  1.00  0.00     0.001 A 
HETATM    9  C   UNL     1      63.193   8.732   4.196  1.00  0.00     0.008 A 
ENDBRANCH   1   4
BRANCH   1  10
HETATM   10  C   UNL     1      60.504   7.894   2.057  1.00  0.00     0.243 C 
BRANCH  10  11
HETATM   11  N   UNL     1      59.628   8.490   1.042  1.00  0.00    -0.078 N 
HETATM   12  H   UNL     1      58.923   7.810   0.759  1.00  0.00     0.274 HD
HETATM   13  H   UNL     1      60.185   8.761   0.231  1.00  0.00     0.274 HD
HETATM   14  H   UNL     1      59.170   9.314   1.430  1.00  0.00     0.274 HD
ENDBRANCH  10  11
ENDBRANCH   1  10
TORSDOF 3
ENDMDL
MODEL 4
REMARK VINA RESULT:      -4.4      1.922      2.904
REMARK  3 active torsions:
REMARK  status: ('A' for Active; 'I' for Inactive)
REMARK    1  A    between atoms: C_1  and  C_2 
REMARK    2  A    between atoms: C_1  and  C_4 
REMARK    3  A    between atoms: N_3  and  C_4 
ROOT
HETATM    1  C   UNL     1      63.469   7.940   4.341  1.00  0.00     0.003 C 
HETATM    2  C   UNL     1      64.844   8.318   4.947  1.00  0.00     0.021 C 
HETATM    3  C   UNL     1      63.736   6.762   3.368  1.00  0.00     0.021 C 
ENDROOT
BRANCH   1   4
HETATM    4  C   UNL     1      62.816   9.135   3.607  1.00  0.00    -0.049 A 
HETATM    5  C   UNL     1      62.537   9.087   2.228  1.00  0.00     0.008 A 
HETATM    6  C   UNL     1      61.955  10.170   1.561  1.00  0.00     0.001 A 
HETATM    7  C   UNL     1      61.650  11.336   2.252  1.00  0.00     0.000 A 
HETATM    8  C   UNL     1      61.936  11.422   3.610  1.00  0.00     0.001 A 
HETATM    9  C   UNL     1      62.519  10.339   4.275  1.00  0.00     0.008 A 
ENDBRANCH   1   4
BRANCH   1  10
HETATM   10  C   UNL     1      62.498   7.491   5.477  1.00  0.00     0.243 C 
BRANCH  10  11
HETATM   11  N   UNL     1      61.430   6.580   5.050  1.00  0.00    -0.078 N 
HETATM   12  H   UNL     1      60.688   7.114   4.597  1.00  0.00     0.274 HD
HETATM   13  H   UNL     1      61.052   6.094   5.863  1.00  0.00     0.274 HD
HETATM   14  H   UNL     1      61.808   5.898   4.392  1.00  0.00     0.274 HD
ENDBRANCH  10  11
ENDBRANCH   1  10
TORSDOF 3
ENDMDL
MODEL 5
REMARK VINA RESULT:      -4.4      1.818      3.629
REMARK  3 active torsions:
REMARK  status: ('A' for Active; 'I' for Inactive)
REMARK    1  A    between atoms: C_1  and  C_2 
REMARK    2  A    between atoms: C_1  and  C_4 
REMARK    3  A    between atoms: N_3  and  C_4 
ROOT
HETATM    1  C   UNL     1      62.006   9.039   2.993  1.00  0.00     0.003 C 
HETATM    2  C   UNL     1      60.702   8.306   3.397  1.00  0.00     0.021 C 
HETATM    3  C   UNL     1      62.061   8.998   1.445  1.00  0.00     0.021 C 
ENDROOT
BRANCH   1   4
HETATM    4  C   UNL     1      63.256   8.373   3.616  1.00  0.00    -0.049 A 
HETATM    5  C   UNL     1      63.935   8.959   4.702  1.00  0.00     0.008 A 
HETATM    6  C   UNL     1      65.071   8.364   5.262  1.00  0.00     0.001 A 
HETATM    7  C   UNL     1      65.567   7.175   4.740  1.00  0.00     0.000 A 
HETATM    8  C   UNL     1      64.932   6.586   3.652  1.00  0.00     0.001 A 
HETATM    9  C   UNL     1      63.797   7.183   3.093  1.00  0.00     0.008 A 
ENDBRANCH   1   4
BRANCH   1  10
HETATM   10  C   UNL     1      61.956  10.517   3.492  1.00  0.00     0.243 C 
BRANCH  10  11
HETATM   11  N   UNL     1      61.595  11.501   2.465  1.00  0.00    -0.078 N 
HETATM   12  H   UNL     1      62.444  11.915   2.079  1.00  0.00     0.274 HD
HETATM   13  H   UNL     1      61.019  12.232   2.883  1.00  0.00     0.274 HD
HETATM   14  H   UNL     1      61.072  11.039   1.721  1.00  0.00     0.274 HD
ENDBRANCH  10  11
ENDBRANCH   1  10
TORSDOF 3
ENDMDL
MODEL 6
REMARK VINA RESULT:      -4.2      2.658      4.174
REMARK  3 active torsions:
REMARK  status: ('A' for Active; 'I' for Inactive)
REMARK    1  A    between atoms: C_1  and  C_2 
REMARK    2  A    between atoms: C_1  and  C_4 
REMARK    3  A    between atoms: N_3  and  C_4 
ROOT
HETATM    1  C   UNL     1      62.351   7.518   1.953  1.00  0.00     0.003 C 
HETATM    2  C   UNL     1      63.624   6.836   2.517  1.00  0.00     0.021 C 
HETATM    3  C   UNL     1      62.479   7.458   0.409  1.00  0.00     0.021 C 
ENDROOT
BRANCH   1   4
HETATM    4  C   UNL     1      62.215   8.977   2.448  1.00  0.00    -0.049 A 
HETATM    5  C   UNL     1      62.333   9.303   3.813  1.00  0.00     0.008 A 
HETATM    6  C   UNL     1      62.200  10.620   4.264  1.00  0.00     0.001 A 
HETATM    7  C   UNL     1      61.931  11.645   3.365  1.00  0.00     0.000 A 
HETATM    8  C   UNL     1      61.785  11.350   2.014  1.00  0.00     0.001 A 
HETATM    9  C   UNL     1      61.917  10.032   1.565  1.00  0.00     0.008 A 
ENDBRANCH   1   4
BRANCH   1  10
HETATM   10  C   UNL     1      61.084   6.736   2.420  1.00  0.00     0.243 C 
BRANCH  10  11
HETATM   11  N   UNL     1      59.969   6.746   1.467  1.00  0.00    -0.078 N 
HETATM   12  H   UNL     1      60.254   6.282   0.604  1.00  0.00     0.274 HD
HETATM   13  H   UNL     1      59.706   7.710   1.263  1.00  0.00     0.274 HD
HETATM   14  H   UNL     1      59.172   6.254   1.870  1.00  0.00     0.274 HD
ENDBRANCH  10  11
ENDBRANCH   1  10
TORSDOF 3
ENDMDL
MODEL 7
REMARK VINA RESULT:      -4.2      2.278      3.976
REMARK  3 active torsions:
REMARK  status: ('A' for Active; 'I' for Inactive)
REMARK    1  A    between atoms: C_1  and  C_2 
REMARK    2  A    between atoms: C_1  and  C_4 
REMARK    3  A    between atoms: N_3  and  C_4 
ROOT
HETATM    1  C   UNL     1      62.004   9.223   3.138  1.00  0.00     0.003 C 
HETATM    2  C   UNL     1      62.025   9.472   1.609  1.00  0.00     0.021 C 
HETATM    3  C   UNL     1      61.926  10.622   3.801  1.00  0.00     0.021 C 
ENDROOT
BRANCH   1   4
HETATM    4  C   UNL     1      63.256   8.447   3.611  1.00  0.00    -0.049 A 
HETATM    5  C   UNL     1      63.632   7.228   3.016  1.00  0.00     0.008 A 
HETATM    6  C   UNL     1      64.758   6.520   3.449  1.00  0.00     0.001 A 
HETATM    7  C   UNL     1      65.531   7.005   4.498  1.00  0.00     0.000 A 
HETATM    8  C   UNL     1      65.170   8.195   5.120  1.00  0.00     0.001 A 
HETATM    9  C   UNL     1      64.042   8.901   4.688  1.00  0.00     0.008 A 
ENDBRANCH   1   4
BRANCH   1  10
HETATM   10  C   UNL     1      60.748   8.376   3.516  1.00  0.00     0.243 C 
BRANCH  10  11
HETATM   11  N   UNL     1      59.828   8.110   2.404  1.00  0.00    -0.078 N 
HETATM   12  H   UNL     1      58.913   7.856   2.774  1.00  0.00     0.274 HD
HETATM   13  H   UNL     1      60.192   7.343   1.839  1.00  0.00     0.274 HD
HETATM   14  H   UNL     1      59.743   8.947   1.827  1.00  0.00     0.274 HD
ENDBRANCH  10  11
ENDBRANCH   1  10
TORSDOF 3
ENDMDL
MODEL 8
REMARK VINA RESULT:      -4.2      2.278      3.853
REMARK  3 active torsions:
REMARK  status: ('A' for Active; 'I' for Inactive)
REMARK    1  A    between atoms: C_1  and  C_2 
REMARK    2  A    between atoms: C_1  and  C_4 
REMARK    3  A    between atoms: N_3  and  C_4 
ROOT
HETATM    1  C   UNL     1      61.997   9.189   3.046  1.00  0.00     0.003 C 
HETATM    2  C   UNL     1      62.038   9.334   1.504  1.00  0.00     0.021 C 
HETATM    3  C   UNL     1      61.942  10.630   3.613  1.00  0.00     0.021 C 
ENDROOT
BRANCH   1   4
HETATM    4  C   UNL     1      63.228   8.421   3.584  1.00  0.00    -0.049 A 
HETATM    5  C   UNL     1      63.988   8.916   4.661  1.00  0.00     0.008 A 
HETATM    6  C   UNL     1      65.107   8.229   5.143  1.00  0.00     0.001 A 
HETATM    7  C   UNL     1      65.505   7.036   4.551  1.00  0.00     0.000 A 
HETATM    8  C   UNL     1      64.788   6.536   3.471  1.00  0.00     0.001 A 
HETATM    9  C   UNL     1      63.670   7.225   2.989  1.00  0.00     0.008 A 
ENDBRANCH   1   4
BRANCH   1  10
HETATM   10  C   UNL     1      60.720   8.395   3.466  1.00  0.00     0.243 C 
BRANCH  10  11
HETATM   11  N   UNL     1      59.792   8.097   2.369  1.00  0.00    -0.078 N 
HETATM   12  H   UNL     1      59.798   8.868   1.701  1.00  0.00     0.274 HD
HETATM   13  H   UNL     1      58.851   7.977   2.744  1.00  0.00     0.274 HD
HETATM   14  H   UNL     1      60.084   7.239   1.901  1.00  0.00     0.274 HD
ENDBRANCH  10  11
ENDBRANCH   1  10
TORSDOF 3
ENDMDL
MODEL 9
REMARK VINA RESULT:      -4.1      2.346      4.454
REMARK  3 active torsions:
REMARK  status: ('A' for Active; 'I' for Inactive)
REMARK    1  A    between atoms: C_1  and  C_2 
REMARK    2  A    between atoms: C_1  and  C_4 
REMARK    3  A    between atoms: N_3  and  C_4 
ROOT
HETATM    1  C   UNL     1      61.814   8.299   1.777  1.00  0.00     0.003 C 
HETATM    2  C   UNL     1      62.439   8.823   0.460  1.00  0.00     0.021 C 
HETATM    3  C   UNL     1      60.279   8.305   1.558  1.00  0.00     0.021 C 
ENDROOT
BRANCH   1   4
HETATM    4  C   UNL     1      62.211   9.174   2.990  1.00  0.00    -0.049 A 
HETATM    5  C   UNL     1      62.984   8.655   4.047  1.00  0.00     0.008 A 
HETATM    6  C   UNL     1      63.336   9.441   5.149  1.00  0.00     0.001 A 
HETATM    7  C   UNL     1      62.913  10.763   5.231  1.00  0.00     0.000 A 
HETATM    8  C   UNL     1      62.129  11.294   4.214  1.00  0.00     0.001 A 
HETATM    9  C   UNL     1      61.776  10.507   3.113  1.00  0.00     0.008 A 
ENDBRANCH   1   4
BRANCH   1  10
HETATM   10  C   UNL     1      62.313   6.846   2.055  1.00  0.00     0.243 C 
BRANCH  10  11
HETATM   11  N   UNL     1      63.306   6.344   1.098  1.00  0.00    -0.078 N 
HETATM   12  H   UNL     1      62.830   5.855   0.340  1.00  0.00     0.274 HD
HETATM   13  H   UNL     1      63.939   5.701   1.573  1.00  0.00     0.274 HD
HETATM   14  H   UNL     1      63.837   7.126   0.718  1.00  0.00     0.274 HD
ENDBRANCH  10  11
ENDBRANCH   1  10
TORSDOF 3
ENDMDL
