MODEL 1
REMARK VINA RESULT:      -4.8      0.000      0.000
REMARK  1 active torsions:
REMARK  status: ('A' for Active; 'I' for Inactive)
REMARK    1  A    between atoms: C_6  and  N_7 
ROOT
HETATM    1  C   UNL     1      62.835   8.997   3.481  1.00  0.00    -0.024 A 
HETATM    2  O   UNL     1      62.513   7.772   1.526  1.00  0.00    -0.382 OA
HETATM    3  C   UNL     1      62.129   9.802   2.604  1.00  0.00    -0.026 A 
HETATM    4  C   UNL     1      63.203   9.451   4.739  1.00  0.00     0.038 A 
HETATM    5  C   UNL     1      61.773  11.091   2.954  1.00  0.00     0.012 A 
HETATM    6  C   UNL     1      62.816  10.735   5.136  1.00  0.00     0.026 A 
HETATM    7  C   UNL     1      63.117   7.691   2.839  1.00  0.00     0.207 A 
HETATM    8  C   UNL     1      62.141  11.561   4.220  1.00  0.00     0.029 A 
HETATM    9  C   UNL     1      61.905   9.071   1.334  1.00  0.00     0.207 A 
ENDROOT
BRANCH   6  10
HETATM   10  N   UNL     1      63.302  11.271   6.337  1.00  0.00    -0.399 N 
HETATM   11  H   UNL     1      64.199  11.675   6.369  1.00  0.00     0.156 HD
HETATM   12  H   UNL     1      62.745  11.242   7.149  1.00  0.00     0.156 HD
ENDBRANCH   6  10
TORSDOF 1
ENDMDL
MODEL 2
REMARK VINA RESULT:      -4.8      2.904      4.226
REMARK  1 active torsions:
REMARK  status: ('A' for Active; 'I' for Inactive)
REMARK    1  A    between atoms: C_6  and  N_7 
ROOT
HETATM    1  C   UNL     1      62.040  10.147   2.133  1.00  0.00    -0.024 A 
HETATM    2  O   UNL     1      61.873  11.999   3.533  1.00  0.00    -0.382 OA
HETATM    3  C   UNL     1      62.333   9.719   3.414  1.00  0.00    -0.026 A 
HETATM    4  C   UNL     1      62.073   9.273   1.056  1.00  0.00     0.038 A 
HETATM    5  C   UNL     1      62.677   8.403   3.663  1.00  0.00     0.012 A 
HETATM    6  C   UNL     1      62.371   7.926   1.284  1.00  0.00     0.026 A 
HETATM    7  C   UNL     1      61.749  11.600   2.149  1.00  0.00     0.207 A 
HETATM    8  C   UNL     1      62.715   7.512   2.584  1.00  0.00     0.029 A 
HETATM    9  C   UNL     1      62.251  10.866   4.350  1.00  0.00     0.207 A 
ENDROOT
BRANCH   6  10
HETATM   10  N   UNL     1      62.558   7.057   0.200  1.00  0.00    -0.399 N 
HETATM   11  H   UNL     1      62.504   6.084   0.334  1.00  0.00     0.156 HD
HETATM   12  H   UNL     1      62.746   7.422  -0.695  1.00  0.00     0.156 HD
ENDBRANCH   6  10
TORSDOF 1
ENDMDL
MODEL 3
REMARK VINA RESULT:      -4.7      2.640      3.665
REMARK  1 active torsions:
REMARK  status: ('A' for Active; 'I' for Inactive)
REMARK    1  A    between atoms: C_6  and  N_7 
ROOT
HETATM    1  C   UNL     1      62.345   9.626   3.325  1.00  0.00    -0.024 A 
HETATM    2  O   UNL     1      61.900  11.900   3.549  1.00  0.00    -0.382 OA
HETATM    3  C   UNL     1      62.057  10.113   2.063  1.00  0.00    -0.026 A 
HETATM    4  C   UNL     1      62.638   8.286   3.531  1.00  0.00     0.038 A 
HETATM    5  C   UNL     1      62.045   9.274   0.964  1.00  0.00     0.012 A 
HETATM    6  C   UNL     1      62.678   7.424   2.431  1.00  0.00     0.026 A 
HETATM    7  C   UNL     1      62.248  10.724   4.316  1.00  0.00     0.207 A 
HETATM    8  C   UNL     1      62.337   7.920   1.160  1.00  0.00     0.029 A 
HETATM    9  C   UNL     1      61.755  11.562   2.150  1.00  0.00     0.207 A 
ENDROOT
BRANCH   6  10
HETATM   10  N   UNL     1      62.822   6.043   2.629  1.00  0.00    -0.399 N 
HETATM   11  H   UNL     1      63.609   5.693   3.104  1.00  0.00     0.156 HD
HETATM   12  H   UNL     1      62.135   5.424   2.291  1.00  0.00     0.156 HD
ENDBRANCH   6  10
TORSDOF 1
ENDMDL
MODEL 4
REMARK VINA RESULT:      -4.5      2.761      3.615
REMARK  1 active torsions:
REMARK  status: ('A' for Active; 'I' for Inactive)
REMARK    1  A    between atoms: C_6  and  N_7 
ROOT
HETATM    1  C   UNL     1      62.831   9.163   3.852  1.00  0.00    -0.024 A 
HETATM    2  O   UNL     1      63.208   9.930   6.018  1.00  0.00    -0.382 OA
HETATM    3  C   UNL     1      62.423  10.484   3.896  1.00  0.00    -0.026 A 
HETATM    4  C   UNL     1      62.717   8.412   2.691  1.00  0.00     0.038 A 
HETATM    5  C   UNL     1      61.881  11.098   2.782  1.00  0.00     0.012 A 
HETATM    6  C   UNL     1      62.215   9.020   1.537  1.00  0.00     0.026 A 
HETATM    7  C   UNL     1      63.331   8.753   5.185  1.00  0.00     0.207 A 
HETATM    8  C   UNL     1      61.759  10.349   1.606  1.00  0.00     0.029 A 
HETATM    9  C   UNL     1      62.633  11.021   5.262  1.00  0.00     0.207 A 
ENDROOT
BRANCH   6  10
HETATM   10  N   UNL     1      61.949   8.247   0.398  1.00  0.00    -0.399 N 
HETATM   11  H   UNL     1      62.497   8.358  -0.412  1.00  0.00     0.156 HD
HETATM   12  H   UNL     1      61.212   7.593   0.408  1.00  0.00     0.156 HD
ENDBRANCH   6  10
TORSDOF 1
ENDMDL
MODEL 5
REMARK VINA RESULT:      -4.3      2.139      3.050
REMARK  1 active torsions:
REMARK  status: ('A' for Active; 'I' for Inactive)
REMARK    1  A    between atoms: C_6  and  N_7 
ROOT
HETATM    1  C   UNL     1      62.583   9.282   4.031  1.00  0.00    -0.024 A 
HETATM    2  O   UNL     1      63.312   7.395   5.185  1.00  0.00    -0.382 OA
HETATM    3  C   UNL     1      62.693   8.255   3.111  1.00  0.00    -0.026 A 
HETATM    4  C   UNL     1      62.184  10.554   3.648  1.00  0.00     0.038 A 
HETATM    5  C   UNL     1      62.416   8.468   1.773  1.00  0.00     0.012 A 
HETATM    6  C   UNL     1      61.852  10.786   2.310  1.00  0.00     0.026 A 
HETATM    7  C   UNL     1      62.977   8.790   5.373  1.00  0.00     0.207 A 
HETATM    8  C   UNL     1      62.014   9.748   1.375  1.00  0.00     0.029 A 
HETATM    9  C   UNL     1      63.166   7.027   3.794  1.00  0.00     0.207 A 
ENDROOT
BRANCH   6  10
HETATM   10  N   UNL     1      61.593  12.092   1.870  1.00  0.00    -0.399 N 
HETATM   11  H   UNL     1      62.326  12.746   1.810  1.00  0.00     0.156 HD
HETATM   12  H   UNL     1      60.677  12.355   1.622  1.00  0.00     0.156 HD
ENDBRANCH   6  10
TORSDOF 1
ENDMDL
MODEL 6
REMARK VINA RESULT:      -4.3      2.463      3.488
REMARK  1 active torsions:
REMARK  status: ('A' for Active; 'I' for Inactive)
REMARK    1  A    between atoms: C_6  and  N_7 
ROOT
HETATM    1  C   UNL     1      63.041   9.731   4.700  1.00  0.00    -0.024 A 
HETATM    2  O   UNL     1      62.075  11.845   4.566  1.00  0.00    -0.382 OA
HETATM    3  C   UNL     1      62.430   9.824   3.463  1.00  0.00    -0.026 A 
HETATM    4  C   UNL     1      63.696   8.573   5.095  1.00  0.00     0.038 A 
HETATM    5  C   UNL     1      62.446   8.760   2.580  1.00  0.00     0.012 A 
HETATM    6  C   UNL     1      63.769   7.498   4.204  1.00  0.00     0.026 A 
HETATM    7  C   UNL     1      62.836  10.991   5.452  1.00  0.00     0.207 A 
HETATM    8  C   UNL     1      63.103   7.586   2.969  1.00  0.00     0.029 A 
HETATM    9  C   UNL     1      61.787  11.153   3.328  1.00  0.00     0.207 A 
ENDROOT
BRANCH   6  10
HETATM   10  N   UNL     1      64.291   6.269   4.632  1.00  0.00    -0.399 N 
HETATM   11  H   UNL     1      65.031   5.849   4.138  1.00  0.00     0.156 HD
HETATM   12  H   UNL     1      63.915   5.825   5.427  1.00  0.00     0.156 HD
ENDBRANCH   6  10
TORSDOF 1
ENDMDL
MODEL 7
REMARK VINA RESULT:      -4.2      0.868      2.046
REMARK  1 active torsions:
REMARK  status: ('A' for Active; 'I' for Inactive)
REMARK    1  A    between atoms: C_6  and  N_7 
ROOT
HETATM    1  C   UNL     1      62.206   9.673   2.940  1.00  0.00    -0.024 A 
HETATM    2  O   UNL     1      61.695   8.424   1.042  1.00  0.00    -0.382 OA
HETATM    3  C   UNL     1      62.895   8.478   3.038  1.00  0.00    -0.026 A 
HETATM    4  C   UNL     1      62.286  10.636   3.935  1.00  0.00     0.038 A 
HETATM    5  C   UNL     1      63.684   8.202   4.139  1.00  0.00     0.012 A 
HETATM    6  C   UNL     1      63.114  10.403   5.038  1.00  0.00     0.026 A 
HETATM    7  C   UNL     1      61.413   9.687   1.687  1.00  0.00     0.207 A 
HETATM    8  C   UNL     1      63.772   9.165   5.151  1.00  0.00     0.029 A 
HETATM    9  C   UNL     1      62.597   7.636   1.854  1.00  0.00     0.207 A 
ENDROOT
BRANCH   6  10
HETATM   10  N   UNL     1      63.097  11.289   6.125  1.00  0.00    -0.399 N 
HETATM   11  H   UNL     1      63.500  11.024   6.982  1.00  0.00     0.156 HD
HETATM   12  H   UNL     1      62.680  12.175   6.029  1.00  0.00     0.156 HD
ENDBRANCH   6  10
TORSDOF 1
ENDMDL
MODEL 8
REMARK VINA RESULT:      -4.2      2.041      2.913
REMARK  1 active torsions:
REMARK  status: ('A' for Active; 'I' for Inactive)
REMARK    1  A    between atoms: C_6  and  N_7 
ROOT
HETATM    1  C   UNL     1      63.055   8.464   3.503  1.00  0.00    -0.024 A 
HETATM    2  O   UNL     1      64.125   6.703   4.587  1.00  0.00    -0.382 OA
HETATM    3  C   UNL     1      63.332   8.884   4.792  1.00  0.00    -0.026 A 
HETATM    4  C   UNL     1      62.397   9.289   2.602  1.00  0.00     0.038 A 
HETATM    5  C   UNL     1      62.955  10.141   5.226  1.00  0.00     0.012 A 
HETATM    6  C   UNL     1      62.045  10.583   3.000  1.00  0.00     0.026 A 
HETATM    7  C   UNL     1      63.530   7.072   3.321  1.00  0.00     0.207 A 
HETATM    8  C   UNL     1      62.289  10.982   4.326  1.00  0.00     0.029 A 
HETATM    9  C   UNL     1      64.008   7.792   5.533  1.00  0.00     0.207 A 
ENDROOT
BRANCH   6  10
HETATM   10  N   UNL     1      61.250  11.379   2.164  1.00  0.00    -0.399 N 
HETATM   11  H   UNL     1      61.259  12.358   2.262  1.00  0.00     0.156 HD
HETATM   12  H   UNL     1      60.681  10.958   1.480  1.00  0.00     0.156 HD
ENDBRANCH   6  10
TORSDOF 1
ENDMDL
MODEL 9
REMARK VINA RESULT:      -4.1      1.870      2.677
REMARK  1 active torsions:
REMARK  status: ('A' for Active; 'I' for Inactive)
REMARK    1  A    between atoms: C_6  and  N_7 
ROOT
HETATM    1  C   UNL     1      62.491   8.514   2.228  1.00  0.00    -0.024 A 
HETATM    2  O   UNL     1      63.103   6.309   2.660  1.00  0.00    -0.382 OA
HETATM    3  C   UNL     1      62.717   8.410   3.588  1.00  0.00    -0.026 A 
HETATM    4  C   UNL     1      62.088   9.710   1.653  1.00  0.00     0.038 A 
HETATM    5  C   UNL     1      62.542   9.499   4.422  1.00  0.00     0.012 A 
HETATM    6  C   UNL     1      61.949  10.840   2.465  1.00  0.00     0.026 A 
HETATM    7  C   UNL     1      62.712   7.196   1.586  1.00  0.00     0.207 A 
HETATM    8  C   UNL     1      62.135  10.712   3.853  1.00  0.00     0.029 A 
HETATM    9  C   UNL     1      63.102   7.018   3.921  1.00  0.00     0.207 A 
ENDROOT
BRANCH   6  10
HETATM   10  N   UNL     1      61.401  12.017   1.938  1.00  0.00    -0.399 N 
HETATM   11  H   UNL     1      61.965  12.815   1.822  1.00  0.00     0.156 HD
HETATM   12  H   UNL     1      60.449  12.046   1.685  1.00  0.00     0.156 HD
ENDBRANCH   6  10
TORSDOF 1
ENDMDL
