MODEL 1
REMARK VINA RESULT:      -3.9      0.000      0.000
REMARK  1 active torsions:
REMARK  status: ('A' for Active; 'I' for Inactive)
REMARK    1  A    between atoms: C_1  and  C_6 
ROOT
HETATM    1  C   UNL     1      62.823   9.499   4.121  1.00  0.00     0.074 A 
HETATM    2  N   UNL     1      61.562  10.476   2.479  1.00  0.00    -0.309 N 
ATOM      3  HN  UNL     1      60.977  11.129   1.958  1.00  0.00     0.186 HD
HETATM    4  C   UNL     1      62.771   8.645   3.034  1.00  0.00     0.129 A 
HETATM    5  N   UNL     1      62.027   9.278   2.083  1.00  0.00    -0.307 N 
HETATM    6  C   UNL     1      62.050  10.609   3.716  1.00  0.00     0.127 A 
HETATM    7  C   UNL     1      61.739   8.812   0.749  1.00  0.00     0.177 C 
ENDROOT
BRANCH   1   8
HETATM    8  C   UNL     1      63.509   9.314   5.372  1.00  0.00     0.212 C 
HETATM    9  O   UNL     1      64.496   9.936   5.737  1.00  0.00    -0.644 OA
HETATM   10  O   UNL     1      62.981   8.355   6.166  1.00  0.00    -0.644 OA
ENDBRANCH   1   8
TORSDOF 1
ENDMDL
MODEL 2
REMARK VINA RESULT:      -3.9      2.672      3.548
REMARK  1 active torsions:
REMARK  status: ('A' for Active; 'I' for Inactive)
REMARK    1  A    between atoms: C_1  and  C_6 
ROOT
HETATM    1  C   UNL     1      62.059   9.994   3.965  1.00  0.00     0.074 A 
HETATM    2  N   UNL     1      61.682   7.752   4.229  1.00  0.00    -0.309 N 
ATOM      3  HN  UNL     1      61.312   6.808   4.127  1.00  0.00     0.186 HD
HETATM    4  C   UNL     1      62.884   9.522   4.970  1.00  0.00     0.129 A 
HETATM    5  N   UNL     1      62.634   8.186   5.074  1.00  0.00    -0.307 N 
HETATM    6  C   UNL     1      61.337   8.853   3.555  1.00  0.00     0.127 A 
HETATM    7  C   UNL     1      63.292   7.242   5.945  1.00  0.00     0.177 C 
ENDROOT
BRANCH   1   8
HETATM    8  C   UNL     1      61.960  11.333   3.446  1.00  0.00     0.212 C 
HETATM    9  O   UNL     1      61.999  11.638   2.263  1.00  0.00    -0.644 OA
HETATM   10  O   UNL     1      61.821  12.293   4.388  1.00  0.00    -0.644 OA
ENDBRANCH   1   8
TORSDOF 1
ENDMDL
MODEL 3
REMARK VINA RESULT:      -3.9      2.220      2.925
REMARK  1 active torsions:
REMARK  status: ('A' for Active; 'I' for Inactive)
REMARK    1  A    between atoms: C_1  and  C_6 
ROOT
HETATM    1  C   UNL     1      63.207   9.715   4.698  1.00  0.00     0.074 A 
HETATM    2  N   UNL     1      63.185   7.991   3.193  1.00  0.00    -0.309 N 
ATOM      3  HN  UNL     1      62.939   7.380   2.415  1.00  0.00     0.186 HD
HETATM    4  C   UNL     1      64.220   8.831   5.023  1.00  0.00     0.129 A 
HETATM    5  N   UNL     1      64.175   7.837   4.091  1.00  0.00    -0.307 N 
HETATM    6  C   UNL     1      62.601   9.134   3.563  1.00  0.00     0.127 A 
HETATM    7  C   UNL     1      65.070   6.712   3.973  1.00  0.00     0.177 C 
ENDROOT
BRANCH   1   8
HETATM    8  C   UNL     1      62.852  10.947   5.352  1.00  0.00     0.212 C 
HETATM    9  O   UNL     1      63.208  11.281   6.473  1.00  0.00    -0.644 OA
HETATM   10  O   UNL     1      62.052  11.759   4.625  1.00  0.00    -0.644 OA
ENDBRANCH   1   8
TORSDOF 1
ENDMDL
MODEL 4
REMARK VINA RESULT:      -3.8      1.609      2.083
REMARK  1 active torsions:
REMARK  status: ('A' for Active; 'I' for Inactive)
REMARK    1  A    between atoms: C_1  and  C_6 
ROOT
HETATM    1  C   UNL     1      62.500   9.929   3.686  1.00  0.00     0.074 A 
HETATM    2  N   UNL     1      63.001   7.959   2.635  1.00  0.00    -0.309 N 
ATOM      3  HN  UNL     1      63.368   7.031   2.428  1.00  0.00     0.186 HD
HETATM    4  C   UNL     1      61.946   9.950   2.419  1.00  0.00     0.129 A 
HETATM    5  N   UNL     1      62.256   8.754   1.845  1.00  0.00    -0.307 N 
HETATM    6  C   UNL     1      63.144   8.675   3.754  1.00  0.00     0.127 A 
HETATM    7  C   UNL     1      61.850   8.280   0.544  1.00  0.00     0.177 C 
ENDROOT
BRANCH   1   8
HETATM    8  C   UNL     1      62.432  10.941   4.709  1.00  0.00     0.212 C 
HETATM    9  O   UNL     1      61.925  12.045   4.578  1.00  0.00    -0.644 OA
HETATM   10  O   UNL     1      62.999  10.590   5.885  1.00  0.00    -0.644 OA
ENDBRANCH   1   8
TORSDOF 1
ENDMDL
MODEL 5
REMARK VINA RESULT:      -3.6      6.192      7.333
REMARK  1 active torsions:
REMARK  status: ('A' for Active; 'I' for Inactive)
REMARK    1  A    between atoms: C_1  and  C_6 
ROOT
HETATM    1  C   UNL     1      66.914   6.807   7.216  1.00  0.00     0.074 A 
HETATM    2  N   UNL     1      66.269   5.310   8.822  1.00  0.00    -0.309 N 
ATOM      3  HN  UNL     1      65.754   4.842   9.567  1.00  0.00     0.186 HD
HETATM    4  C   UNL     1      67.851   5.792   7.277  1.00  0.00     0.129 A 
HETATM    5  N   UNL     1      67.413   4.922   8.231  1.00  0.00    -0.307 N 
HETATM    6  C   UNL     1      65.967   6.454   8.201  1.00  0.00     0.127 A 
HETATM    7  C   UNL     1      68.023   3.673   8.618  1.00  0.00     0.177 C 
ENDROOT
BRANCH   1   8
HETATM    8  C   UNL     1      66.896   7.955   6.347  1.00  0.00     0.212 C 
HETATM    9  O   UNL     1      66.080   8.864   6.395  1.00  0.00    -0.644 OA
HETATM   10  O   UNL     1      67.878   7.973   5.418  1.00  0.00    -0.644 OA
ENDBRANCH   1   8
TORSDOF 1
ENDMDL
MODEL 6
REMARK VINA RESULT:      -3.6      4.684      5.932
REMARK  1 active torsions:
REMARK  status: ('A' for Active; 'I' for Inactive)
REMARK    1  A    between atoms: C_1  and  C_6 
ROOT
HETATM    1  C   UNL     1      65.643   7.749   6.070  1.00  0.00     0.074 A 
HETATM    2  N   UNL     1      67.561   6.984   7.057  1.00  0.00    -0.309 N 
ATOM      3  HN  UNL     1      68.539   6.846   7.307  1.00  0.00     0.186 HD
HETATM    4  C   UNL     1      65.309   6.765   6.982  1.00  0.00     0.129 A 
HETATM    5  N   UNL     1      66.479   6.357   7.551  1.00  0.00    -0.307 N 
HETATM    6  C   UNL     1      67.049   7.831   6.159  1.00  0.00     0.127 A 
HETATM    7  C   UNL     1      66.643   5.386   8.606  1.00  0.00     0.177 C 
ENDROOT
BRANCH   1   8
HETATM    8  C   UNL     1      64.767   8.522   5.228  1.00  0.00     0.212 C 
HETATM    9  O   UNL     1      64.242   8.124   4.199  1.00  0.00    -0.644 OA
HETATM   10  O   UNL     1      64.549   9.787   5.655  1.00  0.00    -0.644 OA
ENDBRANCH   1   8
TORSDOF 1
ENDMDL
MODEL 7
REMARK VINA RESULT:      -3.5      1.789      2.148
REMARK  1 active torsions:
REMARK  status: ('A' for Active; 'I' for Inactive)
REMARK    1  A    between atoms: C_1  and  C_6 
ROOT
HETATM    1  C   UNL     1      62.432   8.550   4.720  1.00  0.00     0.074 A 
HETATM    2  N   UNL     1      61.039   9.135   3.000  1.00  0.00    -0.309 N 
ATOM      3  HN  UNL     1      60.316   9.113   2.282  1.00  0.00     0.186 HD
HETATM    4  C   UNL     1      62.748   9.833   4.311  1.00  0.00     0.129 A 
HETATM    5  N   UNL     1      61.883  10.138   3.302  1.00  0.00    -0.307 N 
HETATM    6  C   UNL     1      61.374   8.173   3.865  1.00  0.00     0.127 A 
HETATM    7  C   UNL     1      61.779  11.389   2.591  1.00  0.00     0.177 C 
ENDROOT
BRANCH   1   8
HETATM    8  C   UNL     1      63.030   7.776   5.776  1.00  0.00     0.212 C 
HETATM    9  O   UNL     1      62.637   7.734   6.932  1.00  0.00    -0.644 OA
HETATM   10  O   UNL     1      64.117   7.063   5.403  1.00  0.00    -0.644 OA
ENDBRANCH   1   8
TORSDOF 1
ENDMDL
MODEL 8
REMARK VINA RESULT:      -3.4      2.152      2.815
REMARK  1 active torsions:
REMARK  status: ('A' for Active; 'I' for Inactive)
REMARK    1  A    between atoms: C_1  and  C_6 
ROOT
HETATM    1  C   UNL     1      64.654   8.362   5.027  1.00  0.00     0.074 A 
HETATM    2  N   UNL     1      63.125   8.141   3.338  1.00  0.00    -0.309 N 
ATOM      3  HN  UNL     1      62.601   7.787   2.538  1.00  0.00     0.186 HD
HETATM    4  C   UNL     1      63.820   9.465   5.038  1.00  0.00     0.129 A 
HETATM    5  N   UNL     1      62.922   9.276   4.029  1.00  0.00    -0.307 N 
HETATM    6  C   UNL     1      64.176   7.586   3.949  1.00  0.00     0.127 A 
HETATM    7  C   UNL     1      61.812  10.129   3.680  1.00  0.00     0.177 C 
ENDROOT
BRANCH   1   8
HETATM    8  C   UNL     1      65.750   8.061   5.911  1.00  0.00     0.212 C 
HETATM    9  O   UNL     1      66.919   8.355   5.712  1.00  0.00    -0.644 OA
HETATM   10  O   UNL     1      65.400   7.392   7.033  1.00  0.00    -0.644 OA
ENDBRANCH   1   8
TORSDOF 1
ENDMDL
MODEL 9
REMARK VINA RESULT:      -3.4      4.730      5.626
REMARK  1 active torsions:
REMARK  status: ('A' for Active; 'I' for Inactive)
REMARK    1  A    between atoms: C_1  and  C_6 
ROOT
HETATM    1  C   UNL     1      66.051   6.675   7.550  1.00  0.00     0.074 A 
HETATM    2  N   UNL     1      65.752   8.371   6.043  1.00  0.00    -0.309 N 
ATOM      3  HN  UNL     1      65.892   9.208   5.477  1.00  0.00     0.186 HD
HETATM    4  C   UNL     1      64.816   6.519   6.947  1.00  0.00     0.129 A 
HETATM    5  N   UNL     1      64.696   7.539   6.051  1.00  0.00    -0.307 N 
HETATM    6  C   UNL     1      66.575   7.842   6.953  1.00  0.00     0.127 A 
HETATM    7  C   UNL     1      63.604   7.772   5.137  1.00  0.00     0.177 C 
ENDROOT
BRANCH   1   8
HETATM    8  C   UNL     1      66.671   5.841   8.547  1.00  0.00     0.212 C 
HETATM    9  O   UNL     1      66.332   4.701   8.825  1.00  0.00    -0.644 OA
HETATM   10  O   UNL     1      67.701   6.422   9.204  1.00  0.00    -0.644 OA
ENDBRANCH   1   8
TORSDOF 1
ENDMDL
