MODEL 1
REMARK VINA RESULT:      -3.8      0.000      0.000
REMARK  4 active torsions:
REMARK  status: ('A' for Active; 'I' for Inactive)
REMARK    1  A    between atoms: N_1  and  C_5 
REMARK    2  A    between atoms: N_4  and  C_11 
REMARK    3  A    between atoms: C_5  and  C_10 
REMARK    4  A    between atoms: C_10  and  C_11 
ROOT
HETATM    1  C   UNL     1      62.376   9.124   4.095  1.00  0.00     0.140 C 
ENDROOT
BRANCH   1   2
HETATM    2  N   UNL     1      62.362   8.702   2.708  1.00  0.00    -0.366 N 
HETATM    3  C   UNL     1      62.751   7.472   2.253  1.00  0.00     0.090 A 
HETATM    4  C   UNL     1      62.579   7.452   0.883  1.00  0.00     0.019 A 
HETATM    5  C   UNL     1      62.125   8.736   0.501  1.00  0.00     0.019 A 
HETATM    6  C   UNL     1      62.022   9.496   1.644  1.00  0.00     0.090 A 
ENDBRANCH   1   2
BRANCH   1   7
HETATM    7  C   UNL     1      62.134  10.624   4.271  1.00  0.00     0.124 C 
BRANCH   7   8
HETATM    8  C   UNL     1      62.967  11.092   5.453  1.00  0.00    -0.076 C 
BRANCH   8   9
HETATM    9  N   UNL     1      63.658  11.482   6.433  1.00  0.00    -0.370 N 
ATOM     10  HN2 UNL     1      63.082  11.153   5.658  1.00  0.00     0.165 HD
ATOM     11  HN1 UNL     1      64.218  11.798   7.225  1.00  0.00     0.165 HD
ENDBRANCH   8   9
ENDBRANCH   7   8
ENDBRANCH   1   7
TORSDOF 4
ENDMDL
MODEL 2
REMARK VINA RESULT:      -3.8      2.126      2.982
REMARK  4 active torsions:
REMARK  status: ('A' for Active; 'I' for Inactive)
REMARK    1  A    between atoms: N_1  and  C_5 
REMARK    2  A    between atoms: N_4  and  C_11 
REMARK    3  A    between atoms: C_5  and  C_10 
REMARK    4  A    between atoms: C_10  and  C_11 
ROOT
HETATM    1  C   UNL     1      63.044   8.879   4.834  1.00  0.00     0.140 C 
ENDROOT
BRANCH   1   2
HETATM    2  N   UNL     1      62.547   9.622   3.693  1.00  0.00    -0.366 N 
HETATM    3  C   UNL     1      62.114  10.920   3.723  1.00  0.00     0.090 A 
HETATM    4  C   UNL     1      61.735  11.271   2.443  1.00  0.00     0.019 A 
HETATM    5  C   UNL     1      61.895  10.124   1.631  1.00  0.00     0.019 A 
HETATM    6  C   UNL     1      62.375   9.112   2.432  1.00  0.00     0.090 A 
ENDBRANCH   1   2
BRANCH   1   7
HETATM    7  C   UNL     1      64.253   8.002   4.502  1.00  0.00     0.124 C 
BRANCH   7   8
HETATM    8  C   UNL     1      65.299   8.226   5.581  1.00  0.00    -0.076 C 
BRANCH   8   9
HETATM    9  N   UNL     1      66.167   8.413   6.477  1.00  0.00    -0.370 N 
ATOM     10  HN2 UNL     1      65.447   8.252   5.772  1.00  0.00     0.165 HD
ATOM     11  HN1 UNL     1      66.869   8.565   7.201  1.00  0.00     0.165 HD
ENDBRANCH   8   9
ENDBRANCH   7   8
ENDBRANCH   1   7
TORSDOF 4
ENDMDL
MODEL 3
REMARK VINA RESULT:      -3.8      2.576      3.718
REMARK  4 active torsions:
REMARK  status: ('A' for Active; 'I' for Inactive)
REMARK    1  A    between atoms: N_1  and  C_5 
REMARK    2  A    between atoms: N_4  and  C_11 
REMARK    3  A    between atoms: C_5  and  C_10 
REMARK    4  A    between atoms: C_10  and  C_11 
ROOT
HETATM    1  C   UNL     1      63.743   8.227   5.342  1.00  0.00     0.140 C 
ENDROOT
BRANCH   1   2
HETATM    2  N   UNL     1      63.060   9.364   4.755  1.00  0.00    -0.366 N 
HETATM    3  C   UNL     1      62.503   9.391   3.505  1.00  0.00     0.090 A 
HETATM    4  C   UNL     1      61.938  10.636   3.319  1.00  0.00     0.019 A 
HETATM    5  C   UNL     1      62.217  11.399   4.478  1.00  0.00     0.019 A 
HETATM    6  C   UNL     1      62.932  10.597   5.339  1.00  0.00     0.090 A 
ENDBRANCH   1   2
BRANCH   1   7
HETATM    7  C   UNL     1      65.183   8.069   4.850  1.00  0.00     0.124 C 
BRANCH   7   8
HETATM    8  C   UNL     1      66.103   8.245   6.046  1.00  0.00    -0.076 C 
BRANCH   8   9
HETATM    9  N   UNL     1      66.868   8.391   7.038  1.00  0.00    -0.370 N 
ATOM     10  HN2 UNL     1      66.272   8.273   6.219  1.00  0.00     0.165 HD
ATOM     11  HN1 UNL     1      67.486   8.509   7.842  1.00  0.00     0.165 HD
ENDBRANCH   8   9
ENDBRANCH   7   8
ENDBRANCH   1   7
TORSDOF 4
ENDMDL
MODEL 4
REMARK VINA RESULT:      -3.7      1.559      4.581
REMARK  4 active torsions:
REMARK  status: ('A' for Active; 'I' for Inactive)
REMARK    1  A    between atoms: N_1  and  C_5 
REMARK    2  A    between atoms: N_4  and  C_11 
REMARK    3  A    between atoms: C_5  and  C_10 
REMARK    4  A    between atoms: C_10  and  C_11 
ROOT
HETATM    1  C   UNL     1      62.453   8.386   2.475  1.00  0.00     0.140 C 
ENDROOT
BRANCH   1   2
HETATM    2  N   UNL     1      62.513   9.424   3.485  1.00  0.00    -0.366 N 
HETATM    3  C   UNL     1      61.984  10.680   3.360  1.00  0.00     0.090 A 
HETATM    4  C   UNL     1      62.233  11.365   4.531  1.00  0.00     0.019 A 
HETATM    5  C   UNL     1      62.987  10.506   5.365  1.00  0.00     0.019 A 
HETATM    6  C   UNL     1      63.167   9.322   4.685  1.00  0.00     0.090 A 
ENDBRANCH   1   2
BRANCH   1   7
HETATM    7  C   UNL     1      62.004   8.902   1.106  1.00  0.00     0.124 C 
BRANCH   7   8
HETATM    8  C   UNL     1      60.523   8.598   0.959  1.00  0.00    -0.076 C 
BRANCH   8   9
HETATM    9  N   UNL     1      59.293   8.347   0.837  1.00  0.00    -0.370 N 
ATOM     10  HN2 UNL     1      60.281   8.573   0.952  1.00  0.00     0.165 HD
ATOM     11  HN1 UNL     1      58.298   8.143   0.737  1.00  0.00     0.165 HD
ENDBRANCH   8   9
ENDBRANCH   7   8
ENDBRANCH   1   7
TORSDOF 4
ENDMDL
MODEL 5
REMARK VINA RESULT:      -3.6      3.524      4.709
REMARK  4 active torsions:
REMARK  status: ('A' for Active; 'I' for Inactive)
REMARK    1  A    between atoms: N_1  and  C_5 
REMARK    2  A    between atoms: N_4  and  C_11 
REMARK    3  A    between atoms: C_5  and  C_10 
REMARK    4  A    between atoms: C_10  and  C_11 
ROOT
HETATM    1  C   UNL     1      64.272   8.378   4.454  1.00  0.00     0.140 C 
ENDROOT
BRANCH   1   2
HETATM    2  N   UNL     1      64.962   7.798   5.590  1.00  0.00    -0.366 N 
HETATM    3  C   UNL     1      64.438   6.860   6.437  1.00  0.00     0.090 A 
HETATM    4  C   UNL     1      65.401   6.551   7.376  1.00  0.00     0.019 A 
HETATM    5  C   UNL     1      66.520   7.375   7.114  1.00  0.00     0.019 A 
HETATM    6  C   UNL     1      66.214   8.153   6.020  1.00  0.00     0.090 A 
ENDBRANCH   1   2
BRANCH   1   7
HETATM    7  C   UNL     1      62.932   9.017   4.825  1.00  0.00     0.124 C 
BRANCH   7   8
HETATM    8  C   UNL     1      63.224  10.337   5.519  1.00  0.00    -0.076 C 
BRANCH   8   9
HETATM    9  N   UNL     1      63.466  11.433   6.094  1.00  0.00    -0.370 N 
ATOM     10  HN2 UNL     1      63.290  10.534   5.645  1.00  0.00     0.165 HD
ATOM     11  HN1 UNL     1      63.661  12.320   6.559  1.00  0.00     0.165 HD
ENDBRANCH   8   9
ENDBRANCH   7   8
ENDBRANCH   1   7
TORSDOF 4
ENDMDL
MODEL 6
REMARK VINA RESULT:      -3.6      2.274      3.638
REMARK  4 active torsions:
REMARK  status: ('A' for Active; 'I' for Inactive)
REMARK    1  A    between atoms: N_1  and  C_5 
REMARK    2  A    between atoms: N_4  and  C_11 
REMARK    3  A    between atoms: C_5  and  C_10 
REMARK    4  A    between atoms: C_10  and  C_11 
ROOT
HETATM    1  C   UNL     1      62.231   9.248   3.761  1.00  0.00     0.140 C 
ENDROOT
BRANCH   1   2
HETATM    2  N   UNL     1      63.434   8.502   4.074  1.00  0.00    -0.366 N 
HETATM    3  C   UNL     1      64.380   8.876   4.989  1.00  0.00     0.090 A 
HETATM    4  C   UNL     1      65.360   7.904   5.010  1.00  0.00     0.019 A 
HETATM    5  C   UNL     1      65.014   6.943   4.031  1.00  0.00     0.019 A 
HETATM    6  C   UNL     1      63.833   7.348   3.451  1.00  0.00     0.090 A 
ENDBRANCH   1   2
BRANCH   1   7
HETATM    7  C   UNL     1      62.029   9.464   2.261  1.00  0.00     0.124 C 
BRANCH   7   8
HETATM    8  C   UNL     1      61.891  10.959   2.022  1.00  0.00    -0.076 C 
BRANCH   8   9
HETATM    9  N   UNL     1      61.777  12.199   1.825  1.00  0.00    -0.370 N 
ATOM     10  HN2 UNL     1      61.892  11.201   2.002  1.00  0.00     0.165 HD
ATOM     11  HN1 UNL     1      61.683  13.202   1.665  1.00  0.00     0.165 HD
ENDBRANCH   8   9
ENDBRANCH   7   8
ENDBRANCH   1   7
TORSDOF 4
ENDMDL
MODEL 7
REMARK VINA RESULT:      -3.6      1.953      3.131
REMARK  4 active torsions:
REMARK  status: ('A' for Active; 'I' for Inactive)
REMARK    1  A    between atoms: N_1  and  C_5 
REMARK    2  A    between atoms: N_4  and  C_11 
REMARK    3  A    between atoms: C_5  and  C_10 
REMARK    4  A    between atoms: C_10  and  C_11 
ROOT
HETATM    1  C   UNL     1      62.533   7.988   3.353  1.00  0.00     0.140 C 
ENDROOT
BRANCH   1   2
HETATM    2  N   UNL     1      62.256   9.383   3.070  1.00  0.00    -0.366 N 
HETATM    3  C   UNL     1      62.100  10.363   4.011  1.00  0.00     0.090 A 
HETATM    4  C   UNL     1      61.865  11.552   3.351  1.00  0.00     0.019 A 
HETATM    5  C   UNL     1      61.823  11.260   1.968  1.00  0.00     0.019 A 
HETATM    6  C   UNL     1      62.044   9.909   1.823  1.00  0.00     0.090 A 
ENDBRANCH   1   2
BRANCH   1   7
HETATM    7  C   UNL     1      63.969   7.741   3.821  1.00  0.00     0.124 C 
BRANCH   7   8
HETATM    8  C   UNL     1      63.942   7.577   5.332  1.00  0.00    -0.076 C 
BRANCH   8   9
HETATM    9  N   UNL     1      63.920   7.440   6.585  1.00  0.00    -0.370 N 
ATOM     10  HN2 UNL     1      63.952   7.575   5.575  1.00  0.00     0.165 HD
ATOM     11  HN1 UNL     1      63.902   7.329   7.599  1.00  0.00     0.165 HD
ENDBRANCH   8   9
ENDBRANCH   7   8
ENDBRANCH   1   7
TORSDOF 4
ENDMDL
MODEL 8
REMARK VINA RESULT:      -3.5      3.358      4.140
REMARK  4 active torsions:
REMARK  status: ('A' for Active; 'I' for Inactive)
REMARK    1  A    between atoms: N_1  and  C_5 
REMARK    2  A    between atoms: N_4  and  C_11 
REMARK    3  A    between atoms: C_5  and  C_10 
REMARK    4  A    between atoms: C_10  and  C_11 
ROOT
HETATM    1  C   UNL     1      63.709   7.897   5.406  1.00  0.00     0.140 C 
ENDROOT
BRANCH   1   2
HETATM    2  N   UNL     1      65.105   7.623   5.126  1.00  0.00    -0.366 N 
HETATM    3  C   UNL     1      65.565   6.816   4.121  1.00  0.00     0.090 A 
HETATM    4  C   UNL     1      66.944   6.820   4.171  1.00  0.00     0.019 A 
HETATM    5  C   UNL     1      67.319   7.613   5.280  1.00  0.00     0.019 A 
HETATM    6  C   UNL     1      66.163   8.078   5.867  1.00  0.00     0.090 A 
ENDBRANCH   1   2
BRANCH   1   7
HETATM    7  C   UNL     1      63.138   9.039   4.564  1.00  0.00     0.124 C 
BRANCH   7   8
HETATM    8  C   UNL     1      63.259  10.318   5.375  1.00  0.00    -0.076 C 
BRANCH   8   9
HETATM    9  N   UNL     1      63.360  11.380   6.047  1.00  0.00    -0.370 N 
ATOM     10  HN2 UNL     1      63.253  10.532   5.492  1.00  0.00     0.165 HD
ATOM     11  HN1 UNL     1      63.442  12.240   6.591  1.00  0.00     0.165 HD
ENDBRANCH   8   9
ENDBRANCH   7   8
ENDBRANCH   1   7
TORSDOF 4
ENDMDL
MODEL 9
REMARK VINA RESULT:      -3.1      2.511      3.899
REMARK  4 active torsions:
REMARK  status: ('A' for Active; 'I' for Inactive)
REMARK    1  A    between atoms: N_1  and  C_5 
REMARK    2  A    between atoms: N_4  and  C_11 
REMARK    3  A    between atoms: C_5  and  C_10 
REMARK    4  A    between atoms: C_10  and  C_11 
ROOT
HETATM    1  C   UNL     1      61.327   7.493   4.147  1.00  0.00     0.140 C 
ENDROOT
BRANCH   1   2
HETATM    2  N   UNL     1      61.590   8.663   3.331  1.00  0.00    -0.366 N 
HETATM    3  C   UNL     1      61.677   9.947   3.796  1.00  0.00     0.090 A 
HETATM    4  C   UNL     1      61.950  10.770   2.722  1.00  0.00     0.019 A 
HETATM    5  C   UNL     1      61.971   9.955   1.566  1.00  0.00     0.019 A 
HETATM    6  C   UNL     1      61.722   8.661   1.967  1.00  0.00     0.090 A 
ENDBRANCH   1   2
BRANCH   1   7
HETATM    7  C   UNL     1      60.163   6.647   3.630  1.00  0.00     0.124 C 
BRANCH   7   8
HETATM    8  C   UNL     1      58.879   7.417   3.890  1.00  0.00    -0.076 C 
BRANCH   8   9
HETATM    9  N   UNL     1      57.813   8.055   4.105  1.00  0.00    -0.370 N 
ATOM     10  HN2 UNL     1      58.665   7.518   3.948  1.00  0.00     0.165 HD
ATOM     11  HN1 UNL     1      56.951   8.572   4.278  1.00  0.00     0.165 HD
ENDBRANCH   8   9
ENDBRANCH   7   8
ENDBRANCH   1   7
TORSDOF 4
ENDMDL
