MODEL 1
REMARK VINA RESULT:      -5.0      0.000      0.000
REMARK  3 active torsions:
REMARK  status: ('A' for Active; 'I' for Inactive)
REMARK    1  A    between atoms: C_1  and  C_4 
REMARK    2  A    between atoms: N_2  and  C_3 
REMARK    3  A    between atoms: C_4  and  O_10 
ROOT
HETATM    1  C   UNL     1      62.699   9.354   4.186  1.00  0.00     0.066 A 
HETATM    2  C   UNL     1      62.584   8.552   3.030  1.00  0.00     0.054 A 
HETATM    3  C   UNL     1      62.351  10.720   4.111  1.00  0.00     0.020 A 
HETATM    4  C   UNL     1      62.112   9.149   1.840  1.00  0.00     0.031 A 
HETATM    5  C   UNL     1      61.883  11.287   2.927  1.00  0.00     0.001 A 
HETATM    6  C   UNL     1      61.762  10.499   1.792  1.00  0.00     0.002 A 
ENDROOT
BRANCH   2   7
HETATM    7  N   UNL     1      62.909   7.161   2.983  1.00  0.00    -0.332 N 
HETATM    8  C   UNL     1      64.136   6.582   2.730  1.00  0.00     0.096 A 
HETATM    9  C   UNL     1      64.001   5.210   2.720  1.00  0.00     0.019 A 
HETATM   10  C   UNL     1      62.667   4.919   3.055  1.00  0.00     0.019 A 
HETATM   11  C   UNL     1      62.029   6.124   3.250  1.00  0.00     0.096 A 
ENDBRANCH   2   7
BRANCH   1  12
HETATM   12  C   UNL     1      63.319   8.913   5.472  1.00  0.00     0.295 C 
HETATM   13  O   UNL     1      62.750   8.265   6.333  1.00  0.00    -0.259 OA
BRANCH  12  14
HETATM   14  O   UNL     1      64.607   9.341   5.504  1.00  0.00    -0.322 OA
HETATM   15  C   UNL     1      65.593   8.312   5.618  1.00  0.00     0.213 C 
ENDBRANCH  12  14
ENDBRANCH   1  12
TORSDOF 3
ENDMDL
MODEL 2
REMARK VINA RESULT:      -4.7      2.325      3.532
REMARK  3 active torsions:
REMARK  status: ('A' for Active; 'I' for Inactive)
REMARK    1  A    between atoms: C_1  and  C_4 
REMARK    2  A    between atoms: N_2  and  C_3 
REMARK    3  A    between atoms: C_4  and  O_10 
ROOT
HETATM    1  C   UNL     1      62.389   8.859   2.407  1.00  0.00     0.066 A 
HETATM    2  C   UNL     1      62.491   9.154   3.783  1.00  0.00     0.054 A 
HETATM    3  C   UNL     1      62.029   9.888   1.509  1.00  0.00     0.020 A 
HETATM    4  C   UNL     1      62.241  10.477   4.209  1.00  0.00     0.031 A 
HETATM    5  C   UNL     1      61.790  11.187   1.951  1.00  0.00     0.001 A 
HETATM    6  C   UNL     1      61.898  11.481   3.302  1.00  0.00     0.002 A 
ENDROOT
BRANCH   2   7
HETATM    7  N   UNL     1      62.843   8.197   4.784  1.00  0.00    -0.332 N 
HETATM    8  C   UNL     1      64.079   7.987   5.363  1.00  0.00     0.096 A 
HETATM    9  C   UNL     1      63.998   6.928   6.242  1.00  0.00     0.019 A 
HETATM   10  C   UNL     1      62.654   6.515   6.276  1.00  0.00     0.019 A 
HETATM   11  C   UNL     1      61.961   7.330   5.408  1.00  0.00     0.096 A 
ENDBRANCH   2   7
BRANCH   1  12
HETATM   12  C   UNL     1      62.476   7.488   1.819  1.00  0.00     0.295 C 
HETATM   13  O   UNL     1      63.459   6.770   1.868  1.00  0.00    -0.259 OA
BRANCH  12  14
HETATM   14  O   UNL     1      61.283   7.184   1.245  1.00  0.00    -0.322 OA
HETATM   15  C   UNL     1      60.364   6.471   2.077  1.00  0.00     0.213 C 
ENDBRANCH  12  14
ENDBRANCH   1  12
TORSDOF 3
ENDMDL
MODEL 3
REMARK VINA RESULT:      -4.6      2.041      3.773
REMARK  3 active torsions:
REMARK  status: ('A' for Active; 'I' for Inactive)
REMARK    1  A    between atoms: C_1  and  C_4 
REMARK    2  A    between atoms: N_2  and  C_3 
REMARK    3  A    between atoms: C_4  and  O_10 
ROOT
HETATM    1  C   UNL     1      62.867   8.564   3.437  1.00  0.00     0.066 A 
HETATM    2  C   UNL     1      63.397   8.928   4.693  1.00  0.00     0.054 A 
HETATM    3  C   UNL     1      62.081   9.498   2.727  1.00  0.00     0.020 A 
HETATM    4  C   UNL     1      63.130  10.223   5.189  1.00  0.00     0.031 A 
HETATM    5  C   UNL     1      61.833  10.773   3.234  1.00  0.00     0.001 A 
HETATM    6  C   UNL     1      62.360  11.135   4.464  1.00  0.00     0.002 A 
ENDROOT
BRANCH   2   7
HETATM    7  N   UNL     1      64.202   8.068   5.503  1.00  0.00    -0.332 N 
HETATM    8  C   UNL     1      63.793   7.007   6.285  1.00  0.00     0.096 A 
HETATM    9  C   UNL     1      64.880   6.482   6.950  1.00  0.00     0.019 A 
HETATM   10  C   UNL     1      66.017   7.184   6.510  1.00  0.00     0.019 A 
HETATM   11  C   UNL     1      65.584   8.120   5.598  1.00  0.00     0.096 A 
ENDBRANCH   2   7
BRANCH   1  12
HETATM   12  C   UNL     1      62.933   7.193   2.848  1.00  0.00     0.295 C 
HETATM   13  O   UNL     1      63.918   6.709   2.316  1.00  0.00    -0.259 OA
BRANCH  12  14
HETATM   14  O   UNL     1      61.729   6.587   3.017  1.00  0.00    -0.322 OA
HETATM   15  C   UNL     1      61.184   5.967   1.850  1.00  0.00     0.213 C 
ENDBRANCH  12  14
ENDBRANCH   1  12
TORSDOF 3
ENDMDL
MODEL 4
REMARK VINA RESULT:      -4.1      2.009      2.957
REMARK  3 active torsions:
REMARK  status: ('A' for Active; 'I' for Inactive)
REMARK    1  A    between atoms: C_1  and  C_4 
REMARK    2  A    between atoms: N_2  and  C_3 
REMARK    3  A    between atoms: C_4  and  O_10 
ROOT
HETATM    1  C   UNL     1      62.795   8.475   4.147  1.00  0.00     0.066 A 
HETATM    2  C   UNL     1      61.897   9.141   3.285  1.00  0.00     0.054 A 
HETATM    3  C   UNL     1      63.454   9.212   5.155  1.00  0.00     0.020 A 
HETATM    4  C   UNL     1      61.683  10.525   3.474  1.00  0.00     0.031 A 
HETATM    5  C   UNL     1      63.224  10.576   5.326  1.00  0.00     0.001 A 
HETATM    6  C   UNL     1      62.336  11.231   4.486  1.00  0.00     0.002 A 
ENDROOT
BRANCH   2   7
HETATM    7  N   UNL     1      61.176   8.504   2.229  1.00  0.00    -0.332 N 
HETATM    8  C   UNL     1      61.509   8.439   0.891  1.00  0.00     0.096 A 
HETATM    9  C   UNL     1      60.512   7.779   0.204  1.00  0.00     0.019 A 
HETATM   10  C   UNL     1      59.566   7.349   1.151  1.00  0.00     0.019 A 
HETATM   11  C   UNL     1      60.013   7.767   2.385  1.00  0.00     0.096 A 
ENDBRANCH   2   7
BRANCH   1  12
HETATM   12  C   UNL     1      63.240   7.058   3.984  1.00  0.00     0.295 C 
HETATM   13  O   UNL     1      62.693   6.093   4.490  1.00  0.00    -0.259 OA
BRANCH  12  14
HETATM   14  O   UNL     1      64.333   7.034   3.178  1.00  0.00    -0.322 OA
HETATM   15  C   UNL     1      65.404   6.196   3.620  1.00  0.00     0.213 C 
ENDBRANCH  12  14
ENDBRANCH   1  12
TORSDOF 3
ENDMDL
MODEL 5
REMARK VINA RESULT:      -4.1      2.333      5.073
REMARK  3 active torsions:
REMARK  status: ('A' for Active; 'I' for Inactive)
REMARK    1  A    between atoms: C_1  and  C_4 
REMARK    2  A    between atoms: N_2  and  C_3 
REMARK    3  A    between atoms: C_4  and  O_10 
ROOT
HETATM    1  C   UNL     1      61.431   7.009   3.334  1.00  0.00     0.066 A 
HETATM    2  C   UNL     1      62.445   7.989   3.288  1.00  0.00     0.054 A 
HETATM    3  C   UNL     1      61.789   5.660   3.550  1.00  0.00     0.020 A 
HETATM    4  C   UNL     1      63.785   7.582   3.472  1.00  0.00     0.031 A 
HETATM    5  C   UNL     1      63.117   5.282   3.733  1.00  0.00     0.001 A 
HETATM    6  C   UNL     1      64.115   6.244   3.696  1.00  0.00     0.002 A 
ENDROOT
BRANCH   2   7
HETATM    7  N   UNL     1      62.206   9.382   3.073  1.00  0.00    -0.332 N 
HETATM    8  C   UNL     1      62.139  10.388   4.015  1.00  0.00     0.096 A 
HETATM    9  C   UNL     1      61.831  11.578   3.391  1.00  0.00     0.019 A 
HETATM   10  C   UNL     1      61.784  11.326   2.009  1.00  0.00     0.019 A 
HETATM   11  C   UNL     1      62.055   9.986   1.835  1.00  0.00     0.096 A 
ENDBRANCH   2   7
BRANCH   1  12
HETATM   12  C   UNL     1      59.993   7.254   3.011  1.00  0.00     0.295 C 
HETATM   13  O   UNL     1      59.170   7.700   3.791  1.00  0.00    -0.259 OA
BRANCH  12  14
HETATM   14  O   UNL     1      59.772   6.910   1.716  1.00  0.00    -0.322 OA
HETATM   15  C   UNL     1      59.146   7.913   0.912  1.00  0.00     0.213 C 
ENDBRANCH  12  14
ENDBRANCH   1  12
TORSDOF 3
ENDMDL
MODEL 6
REMARK VINA RESULT:      -4.0      2.165      3.197
REMARK  3 active torsions:
REMARK  status: ('A' for Active; 'I' for Inactive)
REMARK    1  A    between atoms: C_1  and  C_4 
REMARK    2  A    between atoms: N_2  and  C_3 
REMARK    3  A    between atoms: C_4  and  O_10 
ROOT
HETATM    1  C   UNL     1      62.171   7.236   4.684  1.00  0.00     0.066 A 
HETATM    2  C   UNL     1      63.233   7.538   3.806  1.00  0.00     0.054 A 
HETATM    3  C   UNL     1      60.842   7.415   4.242  1.00  0.00     0.020 A 
HETATM    4  C   UNL     1      62.924   7.999   2.507  1.00  0.00     0.031 A 
HETATM    5  C   UNL     1      60.560   7.867   2.954  1.00  0.00     0.001 A 
HETATM    6  C   UNL     1      61.602   8.156   2.086  1.00  0.00     0.002 A 
ENDROOT
BRANCH   2   7
HETATM    7  N   UNL     1      64.615   7.401   4.141  1.00  0.00    -0.332 N 
HETATM    8  C   UNL     1      65.506   6.441   3.702  1.00  0.00     0.096 A 
HETATM    9  C   UNL     1      66.726   6.637   4.314  1.00  0.00     0.019 A 
HETATM   10  C   UNL     1      66.620   7.800   5.097  1.00  0.00     0.019 A 
HETATM   11  C   UNL     1      65.335   8.272   4.945  1.00  0.00     0.096 A 
ENDBRANCH   2   7
BRANCH   1  12
HETATM   12  C   UNL     1      62.331   6.885   6.128  1.00  0.00     0.295 C 
HETATM   13  O   UNL     1      62.593   7.680   7.013  1.00  0.00    -0.259 OA
BRANCH  12  14
HETATM   14  O   UNL     1      62.124   5.551   6.277  1.00  0.00    -0.322 OA
HETATM   15  C   UNL     1      63.304   4.744   6.288  1.00  0.00     0.213 C 
ENDBRANCH  12  14
ENDBRANCH   1  12
TORSDOF 3
ENDMDL
MODEL 7
REMARK VINA RESULT:      -4.0      2.656      4.929
REMARK  3 active torsions:
REMARK  status: ('A' for Active; 'I' for Inactive)
REMARK    1  A    between atoms: C_1  and  C_4 
REMARK    2  A    between atoms: N_2  and  C_3 
REMARK    3  A    between atoms: C_4  and  O_10 
ROOT
HETATM    1  C   UNL     1      66.127   6.270   5.831  1.00  0.00     0.066 A 
HETATM    2  C   UNL     1      65.385   6.571   4.669  1.00  0.00     0.054 A 
HETATM    3  C   UNL     1      67.175   5.327   5.750  1.00  0.00     0.020 A 
HETATM    4  C   UNL     1      65.729   5.923   3.462  1.00  0.00     0.031 A 
HETATM    5  C   UNL     1      67.500   4.703   4.548  1.00  0.00     0.001 A 
HETATM    6  C   UNL     1      66.777   5.003   3.403  1.00  0.00     0.002 A 
ENDROOT
BRANCH   2   7
HETATM    7  N   UNL     1      64.302   7.504   4.627  1.00  0.00    -0.332 N 
HETATM    8  C   UNL     1      64.353   8.874   4.790  1.00  0.00     0.096 A 
HETATM    9  C   UNL     1      63.075   9.388   4.735  1.00  0.00     0.019 A 
HETATM   10  C   UNL     1      62.207   8.320   4.449  1.00  0.00     0.019 A 
HETATM   11  C   UNL     1      62.982   7.186   4.348  1.00  0.00     0.096 A 
ENDBRANCH   2   7
BRANCH   1  12
HETATM   12  C   UNL     1      65.795   6.754   7.204  1.00  0.00     0.295 C 
HETATM   13  O   UNL     1      64.665   6.902   7.637  1.00  0.00    -0.259 OA
BRANCH  12  14
HETATM   14  O   UNL     1      66.952   6.982   7.878  1.00  0.00    -0.322 OA
HETATM   15  C   UNL     1      66.958   6.567   9.246  1.00  0.00     0.213 C 
ENDBRANCH  12  14
ENDBRANCH   1  12
TORSDOF 3
ENDMDL
MODEL 8
REMARK VINA RESULT:      -4.0      2.745      5.072
REMARK  3 active torsions:
REMARK  status: ('A' for Active; 'I' for Inactive)
REMARK    1  A    between atoms: C_1  and  C_4 
REMARK    2  A    between atoms: N_2  and  C_3 
REMARK    3  A    between atoms: C_4  and  O_10 
ROOT
HETATM    1  C   UNL     1      60.887   7.001   4.498  1.00  0.00     0.066 A 
HETATM    2  C   UNL     1      61.942   7.926   4.350  1.00  0.00     0.054 A 
HETATM    3  C   UNL     1      61.001   5.980   5.467  1.00  0.00     0.020 A 
HETATM    4  C   UNL     1      63.071   7.802   5.189  1.00  0.00     0.031 A 
HETATM    5  C   UNL     1      62.123   5.878   6.287  1.00  0.00     0.001 A 
HETATM    6  C   UNL     1      63.157   6.791   6.148  1.00  0.00     0.002 A 
ENDROOT
BRANCH   2   7
HETATM    7  N   UNL     1      61.942   8.998   3.404  1.00  0.00    -0.332 N 
HETATM    8  C   UNL     1      62.060   8.921   2.031  1.00  0.00     0.096 A 
HETATM    9  C   UNL     1      62.071  10.193   1.501  1.00  0.00     0.019 A 
HETATM   10  C   UNL     1      61.874  11.091   2.565  1.00  0.00     0.019 A 
HETATM   11  C   UNL     1      61.757  10.337   3.712  1.00  0.00     0.096 A 
ENDBRANCH   2   7
BRANCH   1  12
HETATM   12  C   UNL     1      59.701   6.907   3.595  1.00  0.00     0.295 C 
HETATM   13  O   UNL     1      59.595   6.129   2.662  1.00  0.00    -0.259 OA
BRANCH  12  14
HETATM   14  O   UNL     1      58.774   7.815   3.996  1.00  0.00    -0.322 OA
HETATM   15  C   UNL     1      57.430   7.331   4.065  1.00  0.00     0.213 C 
ENDBRANCH  12  14
ENDBRANCH   1  12
TORSDOF 3
ENDMDL
MODEL 9
REMARK VINA RESULT:      -4.0      2.259      4.508
REMARK  3 active torsions:
REMARK  status: ('A' for Active; 'I' for Inactive)
REMARK    1  A    between atoms: C_1  and  C_4 
REMARK    2  A    between atoms: N_2  and  C_3 
REMARK    3  A    between atoms: C_4  and  O_10 
ROOT
HETATM    1  C   UNL     1      62.460   7.113   5.068  1.00  0.00     0.066 A 
HETATM    2  C   UNL     1      63.189   8.110   4.385  1.00  0.00     0.054 A 
HETATM    3  C   UNL     1      63.074   6.426   6.138  1.00  0.00     0.020 A 
HETATM    4  C   UNL     1      64.506   8.393   4.808  1.00  0.00     0.031 A 
HETATM    5  C   UNL     1      64.375   6.724   6.542  1.00  0.00     0.001 A 
HETATM    6  C   UNL     1      65.089   7.709   5.877  1.00  0.00     0.002 A 
ENDROOT
BRANCH   2   7
HETATM    7  N   UNL     1      62.676   8.869   3.287  1.00  0.00    -0.332 N 
HETATM    8  C   UNL     1      62.177  10.156   3.302  1.00  0.00     0.096 A 
HETATM    9  C   UNL     1      61.732  10.488   2.040  1.00  0.00     0.019 A 
HETATM   10  C   UNL     1      62.034   9.407   1.192  1.00  0.00     0.019 A 
HETATM   11  C   UNL     1      62.646   8.447   1.967  1.00  0.00     0.096 A 
ENDBRANCH   2   7
BRANCH   1  12
HETATM   12  C   UNL     1      61.122   6.597   4.650  1.00  0.00     0.295 C 
HETATM   13  O   UNL     1      60.187   7.293   4.293  1.00  0.00    -0.259 OA
BRANCH  12  14
HETATM   14  O   UNL     1      61.135   5.241   4.725  1.00  0.00    -0.322 OA
HETATM   15  C   UNL     1      59.923   4.640   5.189  1.00  0.00     0.213 C 
ENDBRANCH  12  14
ENDBRANCH   1  12
TORSDOF 3
ENDMDL
