MODEL 1
REMARK VINA RESULT:      -5.0      0.000      0.000
REMARK  1 active torsions:
REMARK  status: ('A' for Active; 'I' for Inactive)
REMARK    1  A    between atoms: N_1  and  C_2 
ROOT
HETATM    1  C   UNL     1      62.527   9.272   3.999  1.00  0.00     0.038 A 
HETATM    2  C   UNL     1      62.348   9.071   2.620  1.00  0.00     0.033 A 
HETATM    3  C   UNL     1      62.326  10.558   4.529  1.00  0.00     0.033 A 
HETATM    4  C   UNL     1      61.788  11.397   2.336  1.00  0.00     0.116 A 
HETATM    5  C   UNL     1      61.959  11.618   3.695  1.00  0.00     0.044 A 
HETATM    6  C   UNL     1      61.977  10.135   1.791  1.00  0.00     0.044 A 
HETATM    7  F   UNL     1      61.435  12.415   1.539  1.00  0.00    -0.206 F 
ENDROOT
BRANCH   1   8
HETATM    8  N   UNL     1      62.909   8.186   4.849  1.00  0.00    -0.333 N 
HETATM    9  C   UNL     1      62.082   7.189   5.339  1.00  0.00     0.096 A 
HETATM   10  C   UNL     1      62.816   6.324   6.120  1.00  0.00     0.019 A 
HETATM   11  C   UNL     1      64.142   6.794   6.128  1.00  0.00     0.019 A 
HETATM   12  C   UNL     1      64.175   7.928   5.344  1.00  0.00     0.096 A 
ENDBRANCH   1   8
TORSDOF 1
ENDMDL
MODEL 2
REMARK VINA RESULT:      -4.8      1.087      1.695
REMARK  1 active torsions:
REMARK  status: ('A' for Active; 'I' for Inactive)
REMARK    1  A    between atoms: N_1  and  C_2 
ROOT
HETATM    1  C   UNL     1      63.379   9.007   4.673  1.00  0.00     0.038 A 
HETATM    2  C   UNL     1      62.991   8.662   3.367  1.00  0.00     0.033 A 
HETATM    3  C   UNL     1      63.024  10.271   5.174  1.00  0.00     0.033 A 
HETATM    4  C   UNL     1      61.929  10.808   3.097  1.00  0.00     0.116 A 
HETATM    5  C   UNL     1      62.302  11.170   4.384  1.00  0.00     0.044 A 
HETATM    6  C   UNL     1      62.264   9.565   2.583  1.00  0.00     0.044 A 
HETATM    7  F   UNL     1      61.235  11.671   2.342  1.00  0.00    -0.206 F 
ENDROOT
BRANCH   1   8
HETATM    8  N   UNL     1      64.124   8.088   5.478  1.00  0.00    -0.333 N 
HETATM    9  C   UNL     1      65.485   8.124   5.730  1.00  0.00     0.096 A 
HETATM   10  C   UNL     1      65.830   7.071   6.549  1.00  0.00     0.019 A 
HETATM   11  C   UNL     1      64.652   6.348   6.814  1.00  0.00     0.019 A 
HETATM   12  C   UNL     1      63.625   6.988   6.154  1.00  0.00     0.096 A 
ENDBRANCH   1   8
TORSDOF 1
ENDMDL
MODEL 3
REMARK VINA RESULT:      -4.6      2.844      5.197
REMARK  1 active torsions:
REMARK  status: ('A' for Active; 'I' for Inactive)
REMARK    1  A    between atoms: N_1  and  C_2 
ROOT
HETATM    1  C   UNL     1      63.288   8.549   4.658  1.00  0.00     0.038 A 
HETATM    2  C   UNL     1      64.674   8.576   4.890  1.00  0.00     0.033 A 
HETATM    3  C   UNL     1      62.499   7.632   5.373  1.00  0.00     0.033 A 
HETATM    4  C   UNL     1      64.456   6.805   6.508  1.00  0.00     0.116 A 
HETATM    5  C   UNL     1      63.086   6.760   6.295  1.00  0.00     0.044 A 
HETATM    6  C   UNL     1      65.254   7.704   5.817  1.00  0.00     0.044 A 
HETATM    7  F   UNL     1      65.016   5.969   7.394  1.00  0.00    -0.206 F 
ENDROOT
BRANCH   1   8
HETATM    8  N   UNL     1      62.691   9.438   3.709  1.00  0.00    -0.333 N 
HETATM    9  C   UNL     1      62.260  10.733   3.947  1.00  0.00     0.096 A 
HETATM   10  C   UNL     1      61.744  11.266   2.787  1.00  0.00     0.019 A 
HETATM   11  C   UNL     1      61.847  10.277   1.792  1.00  0.00     0.019 A 
HETATM   12  C   UNL     1      62.431   9.173   2.376  1.00  0.00     0.096 A 
ENDBRANCH   1   8
TORSDOF 1
ENDMDL
MODEL 4
REMARK VINA RESULT:      -4.2      3.629      5.836
REMARK  1 active torsions:
REMARK  status: ('A' for Active; 'I' for Inactive)
REMARK    1  A    between atoms: N_1  and  C_2 
ROOT
HETATM    1  C   UNL     1      65.011   7.809   5.435  1.00  0.00     0.038 A 
HETATM    2  C   UNL     1      64.722   6.984   6.535  1.00  0.00     0.033 A 
HETATM    3  C   UNL     1      66.351   7.972   5.043  1.00  0.00     0.033 A 
HETATM    4  C   UNL     1      67.068   6.518   6.824  1.00  0.00     0.116 A 
HETATM    5  C   UNL     1      67.377   7.328   5.740  1.00  0.00     0.044 A 
HETATM    6  C   UNL     1      65.753   6.339   7.227  1.00  0.00     0.044 A 
HETATM    7  F   UNL     1      68.054   5.901   7.490  1.00  0.00    -0.206 F 
ENDROOT
BRANCH   1   8
HETATM    8  N   UNL     1      63.959   8.472   4.726  1.00  0.00    -0.333 N 
HETATM    9  C   UNL     1      63.291   9.619   5.121  1.00  0.00     0.096 A 
HETATM   10  C   UNL     1      62.346   9.950   4.175  1.00  0.00     0.019 A 
HETATM   11  C   UNL     1      62.417   8.979   3.159  1.00  0.00     0.019 A 
HETATM   12  C   UNL     1      63.409   8.091   3.515  1.00  0.00     0.096 A 
ENDBRANCH   1   8
TORSDOF 1
ENDMDL
MODEL 5
REMARK VINA RESULT:      -4.2      2.863      4.376
REMARK  1 active torsions:
REMARK  status: ('A' for Active; 'I' for Inactive)
REMARK    1  A    between atoms: N_1  and  C_2 
ROOT
HETATM    1  C   UNL     1      64.944   7.215   6.286  1.00  0.00     0.038 A 
HETATM    2  C   UNL     1      63.648   6.715   6.504  1.00  0.00     0.033 A 
HETATM    3  C   UNL     1      65.118   8.269   5.373  1.00  0.00     0.033 A 
HETATM    4  C   UNL     1      62.752   8.296   4.923  1.00  0.00     0.116 A 
HETATM    5  C   UNL     1      64.022   8.806   4.692  1.00  0.00     0.044 A 
HETATM    6  C   UNL     1      62.555   7.259   5.822  1.00  0.00     0.044 A 
HETATM    7  F   UNL     1      61.702   8.813   4.270  1.00  0.00    -0.206 F 
ENDROOT
BRANCH   1   8
HETATM    8  N   UNL     1      66.065   6.660   6.980  1.00  0.00    -0.333 N 
HETATM    9  C   UNL     1      66.193   6.501   8.350  1.00  0.00     0.096 A 
HETATM   10  C   UNL     1      67.414   5.930   8.635  1.00  0.00     0.019 A 
HETATM   11  C   UNL     1      68.075   5.729   7.409  1.00  0.00     0.019 A 
HETATM   12  C   UNL     1      67.232   6.178   6.414  1.00  0.00     0.096 A 
ENDBRANCH   1   8
TORSDOF 1
ENDMDL
MODEL 6
REMARK VINA RESULT:      -4.0      2.908      5.140
REMARK  1 active torsions:
REMARK  status: ('A' for Active; 'I' for Inactive)
REMARK    1  A    between atoms: N_1  and  C_2 
ROOT
HETATM    1  C   UNL     1      61.918   8.111   4.366  1.00  0.00     0.038 A 
HETATM    2  C   UNL     1      60.918   7.128   4.269  1.00  0.00     0.033 A 
HETATM    3  C   UNL     1      62.928   7.957   5.330  1.00  0.00     0.033 A 
HETATM    4  C   UNL     1      61.937   5.888   6.066  1.00  0.00     0.116 A 
HETATM    5  C   UNL     1      62.934   6.846   6.180  1.00  0.00     0.044 A 
HETATM    6  C   UNL     1      60.932   6.017   5.119  1.00  0.00     0.044 A 
HETATM    7  F   UNL     1      61.945   4.824   6.880  1.00  0.00    -0.206 F 
ENDROOT
BRANCH   1   8
HETATM    8  N   UNL     1      61.906   9.250   3.499  1.00  0.00    -0.333 N 
HETATM    9  C   UNL     1      61.941   9.235   2.115  1.00  0.00     0.096 A 
HETATM   10  C   UNL     1      61.914  10.528   1.641  1.00  0.00     0.019 A 
HETATM   11  C   UNL     1      61.865  11.381   2.759  1.00  0.00     0.019 A 
HETATM   12  C   UNL     1      61.858  10.579   3.881  1.00  0.00     0.096 A 
ENDBRANCH   1   8
TORSDOF 1
ENDMDL
MODEL 7
REMARK VINA RESULT:      -3.8      3.155      3.987
REMARK  1 active torsions:
REMARK  status: ('A' for Active; 'I' for Inactive)
REMARK    1  A    between atoms: N_1  and  C_2 
ROOT
HETATM    1  C   UNL     1      60.099   7.867   3.026  1.00  0.00     0.038 A 
HETATM    2  C   UNL     1      59.884   7.710   1.646  1.00  0.00     0.033 A 
HETATM    3  C   UNL     1      61.233   8.574   3.459  1.00  0.00     0.033 A 
HETATM    4  C   UNL     1      61.902   8.938   1.174  1.00  0.00     0.116 A 
HETATM    5  C   UNL     1      62.134   9.106   2.532  1.00  0.00     0.044 A 
HETATM    6  C   UNL     1      60.787   8.248   0.723  1.00  0.00     0.044 A 
HETATM    7  F   UNL     1      62.766   9.450   0.287  1.00  0.00    -0.206 F 
ENDROOT
BRANCH   1   8
HETATM    8  N   UNL     1      59.178   7.316   3.973  1.00  0.00    -0.333 N 
HETATM    9  C   UNL     1      59.448   6.341   4.918  1.00  0.00     0.096 A 
HETATM   10  C   UNL     1      58.309   6.075   5.644  1.00  0.00     0.019 A 
HETATM   11  C   UNL     1      57.290   6.903   5.138  1.00  0.00     0.019 A 
HETATM   12  C   UNL     1      57.844   7.653   4.122  1.00  0.00     0.096 A 
ENDBRANCH   1   8
TORSDOF 1
ENDMDL
MODEL 8
REMARK VINA RESULT:      -3.8      3.072      4.493
REMARK  1 active torsions:
REMARK  status: ('A' for Active; 'I' for Inactive)
REMARK    1  A    between atoms: N_1  and  C_2 
ROOT
HETATM    1  C   UNL     1      61.622   8.335   2.940  1.00  0.00     0.038 A 
HETATM    2  C   UNL     1      62.716   7.468   3.100  1.00  0.00     0.033 A 
HETATM    3  C   UNL     1      61.609   9.548   3.649  1.00  0.00     0.033 A 
HETATM    4  C   UNL     1      63.735   9.010   4.645  1.00  0.00     0.116 A 
HETATM    5  C   UNL     1      62.665   9.882   4.502  1.00  0.00     0.044 A 
HETATM    6  C   UNL     1      63.771   7.809   3.952  1.00  0.00     0.044 A 
HETATM    7  F   UNL     1      64.747   9.332   5.463  1.00  0.00    -0.206 F 
ENDROOT
BRANCH   1   8
HETATM    8  N   UNL     1      60.539   7.989   2.071  1.00  0.00    -0.333 N 
HETATM    9  C   UNL     1      59.332   7.419   2.439  1.00  0.00     0.096 A 
HETATM   10  C   UNL     1      58.549   7.236   1.322  1.00  0.00     0.019 A 
HETATM   11  C   UNL     1      59.287   7.699   0.216  1.00  0.00     0.019 A 
HETATM   12  C   UNL     1      60.495   8.156   0.698  1.00  0.00     0.096 A 
ENDBRANCH   1   8
TORSDOF 1
ENDMDL
MODEL 9
REMARK VINA RESULT:      -3.8     11.845     13.393
REMARK  1 active torsions:
REMARK  status: ('A' for Active; 'I' for Inactive)
REMARK    1  A    between atoms: N_1  and  C_2 
ROOT
HETATM    1  C   UNL     1      56.719   2.446  12.920  1.00  0.00     0.038 A 
HETATM    2  C   UNL     1      57.612   2.638  11.852  1.00  0.00     0.033 A 
HETATM    3  C   UNL     1      57.158   1.738  14.052  1.00  0.00     0.033 A 
HETATM    4  C   UNL     1      59.324   1.432  13.044  1.00  0.00     0.116 A 
HETATM    5  C   UNL     1      58.459   1.231  14.110  1.00  0.00     0.044 A 
HETATM    6  C   UNL     1      58.914   2.131  11.918  1.00  0.00     0.044 A 
HETATM    7  F   UNL     1      60.571   0.946  13.103  1.00  0.00    -0.206 F 
ENDROOT
BRANCH   1   8
HETATM    8  N   UNL     1      55.385   2.961  12.854  1.00  0.00    -0.333 N 
HETATM    9  C   UNL     1      54.717   3.654  13.850  1.00  0.00     0.096 A 
HETATM   10  C   UNL     1      53.453   3.984  13.412  1.00  0.00     0.019 A 
HETATM   11  C   UNL     1      53.321   3.480  12.105  1.00  0.00     0.019 A 
HETATM   12  C   UNL     1      54.512   2.864  11.785  1.00  0.00     0.096 A 
ENDBRANCH   1   8
TORSDOF 1
ENDMDL
