MODEL 1
REMARK VINA RESULT:      -5.4      0.000      0.000
REMARK  1 active torsions:
REMARK  status: ('A' for Active; 'I' for Inactive)
REMARK    1  A    between atoms: N_1  and  C_2 
ROOT
HETATM    1  C   UNL     1      62.771   9.123   3.795  1.00  0.00     0.059 A 
HETATM    2  N   UNL     1      63.204  11.412   6.536  1.00  0.00    -0.191 NA
HETATM    3  C   UNL     1      62.917  10.962   5.504  1.00  0.00     0.102 C 
HETATM    4  C   UNL     1      62.540  10.446   4.218  1.00  0.00     0.071 A 
HETATM    5  C   UNL     1      62.452   8.762   2.470  1.00  0.00     0.031 A 
HETATM    6  C   UNL     1      61.988  11.372   3.313  1.00  0.00     0.025 A 
HETATM    7  C   UNL     1      61.895   9.693   1.589  1.00  0.00     0.002 A 
HETATM    8  C   UNL     1      61.663  10.996   2.009  1.00  0.00     0.002 A 
ENDROOT
BRANCH   1   9
HETATM    9  N   UNL     1      63.323   8.119   4.650  1.00  0.00    -0.331 N 
HETATM   10  C   UNL     1      62.650   7.318   5.550  1.00  0.00     0.096 A 
HETATM   11  C   UNL     1      63.554   6.505   6.202  1.00  0.00     0.019 A 
HETATM   12  C   UNL     1      64.824   6.779   5.665  1.00  0.00     0.019 A 
HETATM   13  C   UNL     1      64.656   7.747   4.699  1.00  0.00     0.096 A 
ENDBRANCH   1   9
TORSDOF 1
ENDMDL
MODEL 2
REMARK VINA RESULT:      -5.0      1.175      1.809
REMARK  1 active torsions:
REMARK  status: ('A' for Active; 'I' for Inactive)
REMARK    1  A    between atoms: N_1  and  C_2 
ROOT
HETATM    1  C   UNL     1      63.520   8.194   4.304  1.00  0.00     0.059 A 
HETATM    2  N   UNL     1      63.152  11.201   6.245  1.00  0.00    -0.191 NA
HETATM    3  C   UNL     1      63.040  10.403   5.408  1.00  0.00     0.102 C 
HETATM    4  C   UNL     1      62.869   9.443   4.354  1.00  0.00     0.071 A 
HETATM    5  C   UNL     1      63.353   7.381   3.165  1.00  0.00     0.031 A 
HETATM    6  C   UNL     1      62.062   9.842   3.272  1.00  0.00     0.025 A 
HETATM    7  C   UNL     1      62.540   7.791   2.105  1.00  0.00     0.002 A 
HETATM    8  C   UNL     1      61.896   9.020   2.158  1.00  0.00     0.002 A 
ENDROOT
BRANCH   1   9
HETATM    9  N   UNL     1      64.352   7.709   5.360  1.00  0.00    -0.331 N 
HETATM   10  C   UNL     1      65.686   7.989   5.576  1.00  0.00     0.096 A 
HETATM   11  C   UNL     1      66.124   7.293   6.684  1.00  0.00     0.019 A 
HETATM   12  C   UNL     1      65.021   6.588   7.196  1.00  0.00     0.019 A 
HETATM   13  C   UNL     1      63.942   6.878   6.390  1.00  0.00     0.096 A 
ENDBRANCH   1   9
TORSDOF 1
ENDMDL
MODEL 3
REMARK VINA RESULT:      -4.9      1.178      2.705
REMARK  1 active torsions:
REMARK  status: ('A' for Active; 'I' for Inactive)
REMARK    1  A    between atoms: N_1  and  C_2 
ROOT
HETATM    1  C   UNL     1      63.036   9.244   4.273  1.00  0.00     0.059 A 
HETATM    2  N   UNL     1      63.047   6.650   1.781  1.00  0.00    -0.191 NA
HETATM    3  C   UNL     1      62.892   7.668   2.318  1.00  0.00     0.102 C 
HETATM    4  C   UNL     1      62.687   8.945   2.942  1.00  0.00     0.071 A 
HETATM    5  C   UNL     1      62.688  10.502   4.806  1.00  0.00     0.031 A 
HETATM    6  C   UNL     1      62.011   9.912   2.174  1.00  0.00     0.025 A 
HETATM    7  C   UNL     1      62.025  11.451   4.025  1.00  0.00     0.002 A 
HETATM    8  C   UNL     1      61.686  11.158   2.711  1.00  0.00     0.002 A 
ENDROOT
BRANCH   1   9
HETATM    9  N   UNL     1      63.728   8.324   5.120  1.00  0.00    -0.331 N 
HETATM   10  C   UNL     1      63.180   7.345   5.925  1.00  0.00     0.096 A 
HETATM   11  C   UNL     1      64.190   6.698   6.607  1.00  0.00     0.019 A 
HETATM   12  C   UNL     1      65.406   7.263   6.186  1.00  0.00     0.019 A 
HETATM   13  C   UNL     1      65.104   8.235   5.257  1.00  0.00     0.096 A 
ENDBRANCH   1   9
TORSDOF 1
ENDMDL
MODEL 4
REMARK VINA RESULT:      -4.9      1.294      2.094
REMARK  1 active torsions:
REMARK  status: ('A' for Active; 'I' for Inactive)
REMARK    1  A    between atoms: N_1  and  C_2 
ROOT
HETATM    1  C   UNL     1      62.620   8.055   3.011  1.00  0.00     0.059 A 
HETATM    2  N   UNL     1      61.990  11.314   4.396  1.00  0.00    -0.191 NA
HETATM    3  C   UNL     1      62.096  10.430   3.650  1.00  0.00     0.102 C 
HETATM    4  C   UNL     1      62.209   9.364   2.695  1.00  0.00     0.071 A 
HETATM    5  C   UNL     1      62.793   7.122   1.969  1.00  0.00     0.031 A 
HETATM    6  C   UNL     1      61.972   9.706   1.350  1.00  0.00     0.025 A 
HETATM    7  C   UNL     1      62.545   7.477   0.641  1.00  0.00     0.002 A 
HETATM    8  C   UNL     1      62.135   8.767   0.331  1.00  0.00     0.002 A 
ENDROOT
BRANCH   1   9
HETATM    9  N   UNL     1      62.875   7.622   4.349  1.00  0.00    -0.331 N 
HETATM   10  C   UNL     1      64.067   7.690   5.042  1.00  0.00     0.096 A 
HETATM   11  C   UNL     1      63.899   7.134   6.294  1.00  0.00     0.019 A 
HETATM   12  C   UNL     1      62.553   6.744   6.399  1.00  0.00     0.019 A 
HETATM   13  C   UNL     1      61.939   7.076   5.211  1.00  0.00     0.096 A 
ENDBRANCH   1   9
TORSDOF 1
ENDMDL
MODEL 5
REMARK VINA RESULT:      -4.7      1.627      4.362
REMARK  1 active torsions:
REMARK  status: ('A' for Active; 'I' for Inactive)
REMARK    1  A    between atoms: N_1  and  C_2 
ROOT
HETATM    1  C   UNL     1      61.817   7.822   4.263  1.00  0.00     0.059 A 
HETATM    2  N   UNL     1      64.947   9.160   5.425  1.00  0.00    -0.191 NA
HETATM    3  C   UNL     1      63.983   8.519   5.336  1.00  0.00     0.102 C 
HETATM    4  C   UNL     1      62.806   7.699   5.259  1.00  0.00     0.071 A 
HETATM    5  C   UNL     1      60.653   7.031   4.354  1.00  0.00     0.031 A 
HETATM    6  C   UNL     1      62.614   6.785   6.311  1.00  0.00     0.025 A 
HETATM    7  C   UNL     1      60.485   6.122   5.402  1.00  0.00     0.002 A 
HETATM    8  C   UNL     1      61.463   5.999   6.380  1.00  0.00     0.002 A 
ENDROOT
BRANCH   1   9
HETATM    9  N   UNL     1      61.934   8.720   3.157  1.00  0.00    -0.331 N 
HETATM   10  C   UNL     1      61.784  10.092   3.169  1.00  0.00     0.096 A 
HETATM   11  C   UNL     1      61.944  10.578   1.887  1.00  0.00     0.019 A 
HETATM   12  C   UNL     1      62.239   9.481   1.059  1.00  0.00     0.019 A 
HETATM   13  C   UNL     1      62.257   8.360   1.860  1.00  0.00     0.096 A 
ENDBRANCH   1   9
TORSDOF 1
ENDMDL
MODEL 6
REMARK VINA RESULT:      -4.6      1.423      4.827
REMARK  1 active torsions:
REMARK  status: ('A' for Active; 'I' for Inactive)
REMARK    1  A    between atoms: N_1  and  C_2 
ROOT
HETATM    1  C   UNL     1      64.312   8.165   5.291  1.00  0.00     0.059 A 
HETATM    2  N   UNL     1      61.414   6.525   6.651  1.00  0.00    -0.191 NA
HETATM    3  C   UNL     1      62.514   6.830   6.436  1.00  0.00     0.102 C 
HETATM    4  C   UNL     1      63.887   7.180   6.204  1.00  0.00     0.071 A 
HETATM    5  C   UNL     1      65.694   8.346   5.074  1.00  0.00     0.031 A 
HETATM    6  C   UNL     1      64.849   6.410   6.884  1.00  0.00     0.025 A 
HETATM    7  C   UNL     1      66.634   7.577   5.765  1.00  0.00     0.002 A 
HETATM    8  C   UNL     1      66.213   6.610   6.669  1.00  0.00     0.002 A 
ENDROOT
BRANCH   1   9
HETATM    9  N   UNL     1      63.404   8.995   4.564  1.00  0.00    -0.331 N 
HETATM   10  C   UNL     1      62.848   8.750   3.325  1.00  0.00     0.096 A 
HETATM   11  C   UNL     1      62.051   9.817   2.964  1.00  0.00     0.019 A 
HETATM   12  C   UNL     1      62.080  10.737   4.026  1.00  0.00     0.019 A 
HETATM   13  C   UNL     1      62.889  10.203   5.005  1.00  0.00     0.096 A 
ENDBRANCH   1   9
TORSDOF 1
ENDMDL
MODEL 7
REMARK VINA RESULT:      -4.5      1.958      4.097
REMARK  1 active torsions:
REMARK  status: ('A' for Active; 'I' for Inactive)
REMARK    1  A    between atoms: N_1  and  C_2 
ROOT
HETATM    1  C   UNL     1      62.639   8.020   3.284  1.00  0.00     0.059 A 
HETATM    2  N   UNL     1      61.704  11.404   4.065  1.00  0.00    -0.191 NA
HETATM    3  C   UNL     1      62.276  10.394   4.031  1.00  0.00     0.102 C 
HETATM    4  C   UNL     1      63.018   9.164   4.012  1.00  0.00     0.071 A 
HETATM    5  C   UNL     1      63.392   6.836   3.429  1.00  0.00     0.031 A 
HETATM    6  C   UNL     1      64.142   9.102   4.857  1.00  0.00     0.025 A 
HETATM    7  C   UNL     1      64.510   6.797   4.265  1.00  0.00     0.002 A 
HETATM    8  C   UNL     1      64.885   7.928   4.979  1.00  0.00     0.002 A 
ENDROOT
BRANCH   1   9
HETATM    9  N   UNL     1      61.516   7.997   2.400  1.00  0.00    -0.331 N 
HETATM   10  C   UNL     1      60.232   7.578   2.682  1.00  0.00     0.096 A 
HETATM   11  C   UNL     1      59.457   7.685   1.545  1.00  0.00     0.019 A 
HETATM   12  C   UNL     1      60.273   8.223   0.534  1.00  0.00     0.019 A 
HETATM   13  C   UNL     1      61.518   8.433   1.085  1.00  0.00     0.096 A 
ENDBRANCH   1   9
TORSDOF 1
ENDMDL
MODEL 8
REMARK VINA RESULT:      -4.4      3.032      6.607
REMARK  1 active torsions:
REMARK  status: ('A' for Active; 'I' for Inactive)
REMARK    1  A    between atoms: N_1  and  C_2 
ROOT
HETATM    1  C   UNL     1      66.164   6.596   7.021  1.00  0.00     0.059 A 
HETATM    2  N   UNL     1      67.272   5.095   3.945  1.00  0.00    -0.191 NA
HETATM    3  C   UNL     1      67.170   5.368   5.069  1.00  0.00     0.102 C 
HETATM    4  C   UNL     1      67.074   5.673   6.470  1.00  0.00     0.071 A 
HETATM    5  C   UNL     1      66.237   6.889   8.398  1.00  0.00     0.031 A 
HETATM    6  C   UNL     1      68.025   5.059   7.307  1.00  0.00     0.025 A 
HETATM    7  C   UNL     1      67.181   6.262   9.214  1.00  0.00     0.002 A 
HETATM    8  C   UNL     1      68.075   5.349   8.670  1.00  0.00     0.002 A 
ENDROOT
BRANCH   1   9
HETATM    9  N   UNL     1      65.164   7.259   6.244  1.00  0.00    -0.331 N 
HETATM   10  C   UNL     1      63.830   6.925   6.129  1.00  0.00     0.096 A 
HETATM   11  C   UNL     1      63.215   7.798   5.255  1.00  0.00     0.019 A 
HETATM   12  C   UNL     1      64.186   8.728   4.844  1.00  0.00     0.019 A 
HETATM   13  C   UNL     1      65.362   8.398   5.481  1.00  0.00     0.096 A 
ENDBRANCH   1   9
TORSDOF 1
ENDMDL
MODEL 9
REMARK VINA RESULT:      -4.0      2.379      3.357
REMARK  1 active torsions:
REMARK  status: ('A' for Active; 'I' for Inactive)
REMARK    1  A    between atoms: N_1  and  C_2 
ROOT
HETATM    1  C   UNL     1      64.770   6.467   3.931  1.00  0.00     0.059 A 
HETATM    2  N   UNL     1      64.737   9.564   5.762  1.00  0.00    -0.191 NA
HETATM    3  C   UNL     1      64.492   8.733   4.988  1.00  0.00     0.102 C 
HETATM    4  C   UNL     1      64.154   7.731   4.015  1.00  0.00     0.071 A 
HETATM    5  C   UNL     1      64.426   5.609   2.867  1.00  0.00     0.031 A 
HETATM    6  C   UNL     1      63.206   8.102   3.044  1.00  0.00     0.025 A 
HETATM    7  C   UNL     1      63.475   5.991   1.917  1.00  0.00     0.002 A 
HETATM    8  C   UNL     1      62.866   7.236   2.004  1.00  0.00     0.002 A 
ENDROOT
BRANCH   1   9
HETATM    9  N   UNL     1      65.737   6.009   4.878  1.00  0.00    -0.331 N 
HETATM   10  C   UNL     1      65.503   5.364   6.076  1.00  0.00     0.096 A 
HETATM   11  C   UNL     1      66.706   5.124   6.707  1.00  0.00     0.019 A 
HETATM   12  C   UNL     1      67.723   5.598   5.860  1.00  0.00     0.019 A 
HETATM   13  C   UNL     1      67.111   6.109   4.737  1.00  0.00     0.096 A 
ENDBRANCH   1   9
TORSDOF 1
ENDMDL
