MODEL 1
REMARK VINA RESULT:      -4.9      0.000      0.000
REMARK  4 active torsions:
REMARK  status: ('A' for Active; 'I' for Inactive)
REMARK    1  A    between atoms: C_1  and  C_5 
REMARK    2  A    between atoms: S_3  and  C_5 
REMARK    3  A    between atoms: S_3  and  C_7 
REMARK    4  A    between atoms: C_6  and  C_7 
ROOT
HETATM    1  C   UNL     1      62.698   8.904   3.473  1.00  0.00    -0.049 A 
HETATM    2  C   UNL     1      62.521   9.997   4.335  1.00  0.00     0.008 A 
HETATM    3  C   UNL     1      62.386   9.063   2.114  1.00  0.00     0.008 A 
HETATM    4  C   UNL     1      61.907  10.283   1.633  1.00  0.00     0.001 A 
HETATM    5  C   UNL     1      62.037  11.214   3.853  1.00  0.00     0.001 A 
HETATM    6  C   UNL     1      61.732  11.357   2.502  1.00  0.00     0.000 A 
ENDROOT
BRANCH   1   7
HETATM    7  C   UNL     1      63.273   7.602   3.974  1.00  0.00     0.112 C 
BRANCH   7   8
HETATM    8  S   UNL     1      63.157   7.361   5.777  1.00  0.00    -0.154 SA
BRANCH   8   9
HETATM    9  C   UNL     1      64.913   7.146   6.204  1.00  0.00     0.187 C 
BRANCH   9  10
HETATM   10  C   UNL     1      65.808   8.246   5.681  1.00  0.00     0.182 C 
HETATM   11  O   UNL     1      66.770   8.167   4.937  1.00  0.00    -0.647 OA
HETATM   12  O   UNL     1      65.429   9.459   6.146  1.00  0.00    -0.647 OA
ENDBRANCH   9  10
ENDBRANCH   8   9
ENDBRANCH   7   8
ENDBRANCH   1   7
TORSDOF 4
ENDMDL
MODEL 2
REMARK VINA RESULT:      -4.8      0.151      1.401
REMARK  4 active torsions:
REMARK  status: ('A' for Active; 'I' for Inactive)
REMARK    1  A    between atoms: C_1  and  C_5 
REMARK    2  A    between atoms: S_3  and  C_5 
REMARK    3  A    between atoms: S_3  and  C_7 
REMARK    4  A    between atoms: C_6  and  C_7 
ROOT
HETATM    1  C   UNL     1      62.783   8.760   3.423  1.00  0.00    -0.049 A 
HETATM    2  C   UNL     1      62.469   8.877   2.061  1.00  0.00     0.008 A 
HETATM    3  C   UNL     1      62.562   9.863   4.261  1.00  0.00     0.008 A 
HETATM    4  C   UNL     1      62.041  11.053   3.748  1.00  0.00     0.001 A 
HETATM    5  C   UNL     1      61.954  10.069   1.548  1.00  0.00     0.001 A 
HETATM    6  C   UNL     1      61.738  11.155   2.392  1.00  0.00     0.000 A 
ENDROOT
BRANCH   1   7
HETATM    7  C   UNL     1      63.287   7.458   3.997  1.00  0.00     0.112 C 
BRANCH   7   8
HETATM    8  S   UNL     1      63.190   7.338   5.813  1.00  0.00    -0.154 SA
BRANCH   8   9
HETATM    9  C   UNL     1      64.949   7.134   6.234  1.00  0.00     0.187 C 
BRANCH   9  10
HETATM   10  C   UNL     1      65.836   8.235   5.699  1.00  0.00     0.182 C 
HETATM   11  O   UNL     1      66.800   8.154   4.957  1.00  0.00    -0.647 OA
HETATM   12  O   UNL     1      65.447   9.450   6.150  1.00  0.00    -0.647 OA
ENDBRANCH   9  10
ENDBRANCH   8   9
ENDBRANCH   7   8
ENDBRANCH   1   7
TORSDOF 4
ENDMDL
MODEL 3
REMARK VINA RESULT:      -4.1      2.200      5.059
REMARK  4 active torsions:
REMARK  status: ('A' for Active; 'I' for Inactive)
REMARK    1  A    between atoms: C_1  and  C_5 
REMARK    2  A    between atoms: S_3  and  C_5 
REMARK    3  A    between atoms: S_3  and  C_7 
REMARK    4  A    between atoms: C_6  and  C_7 
ROOT
HETATM    1  C   UNL     1      64.289   7.405   5.673  1.00  0.00    -0.049 A 
HETATM    2  C   UNL     1      64.491   6.551   6.768  1.00  0.00     0.008 A 
HETATM    3  C   UNL     1      65.345   8.231   5.261  1.00  0.00     0.008 A 
HETATM    4  C   UNL     1      66.571   8.204   5.929  1.00  0.00     0.001 A 
HETATM    5  C   UNL     1      65.715   6.529   7.438  1.00  0.00     0.001 A 
HETATM    6  C   UNL     1      66.755   7.354   7.017  1.00  0.00     0.000 A 
ENDROOT
BRANCH   1   7
HETATM    7  C   UNL     1      62.989   7.395   4.908  1.00  0.00     0.112 C 
BRANCH   7   8
HETATM    8  S   UNL     1      63.005   8.366   3.365  1.00  0.00    -0.154 SA
BRANCH   8   9
HETATM    9  C   UNL     1      61.690   9.577   3.713  1.00  0.00     0.187 C 
BRANCH   9  10
HETATM   10  C   UNL     1      62.195  10.873   4.305  1.00  0.00     0.182 C 
HETATM   11  O   UNL     1      62.794  11.059   5.350  1.00  0.00    -0.647 OA
HETATM   12  O   UNL     1      61.904  11.929   3.511  1.00  0.00    -0.647 OA
ENDBRANCH   9  10
ENDBRANCH   8   9
ENDBRANCH   7   8
ENDBRANCH   1   7
TORSDOF 4
ENDMDL
MODEL 4
REMARK VINA RESULT:      -3.8      3.278      3.984
REMARK  4 active torsions:
REMARK  status: ('A' for Active; 'I' for Inactive)
REMARK    1  A    between atoms: C_1  and  C_5 
REMARK    2  A    between atoms: S_3  and  C_5 
REMARK    3  A    between atoms: S_3  and  C_7 
REMARK    4  A    between atoms: C_6  and  C_7 
ROOT
HETATM    1  C   UNL     1      62.684   8.378   3.334  1.00  0.00    -0.049 A 
HETATM    2  C   UNL     1      62.525   8.376   1.939  1.00  0.00     0.008 A 
HETATM    3  C   UNL     1      62.408   9.559   4.040  1.00  0.00     0.008 A 
HETATM    4  C   UNL     1      61.987  10.708   3.367  1.00  0.00     0.001 A 
HETATM    5  C   UNL     1      62.110   9.527   1.268  1.00  0.00     0.001 A 
HETATM    6  C   UNL     1      61.839  10.691   1.982  1.00  0.00     0.000 A 
ENDROOT
BRANCH   1   7
HETATM    7  C   UNL     1      63.078   7.124   4.074  1.00  0.00     0.112 C 
BRANCH   7   8
HETATM    8  S   UNL     1      62.500   7.046   5.802  1.00  0.00    -0.154 SA
BRANCH   8   9
HETATM    9  C   UNL     1      61.296   5.685   5.696  1.00  0.00     0.187 C 
BRANCH   9  10
HETATM   10  C   UNL     1      60.011   5.947   6.448  1.00  0.00     0.182 C 
HETATM   11  O   UNL     1      58.865   5.952   6.034  1.00  0.00    -0.647 OA
HETATM   12  O   UNL     1      60.244   6.205   7.755  1.00  0.00    -0.647 OA
ENDBRANCH   9  10
ENDBRANCH   8   9
ENDBRANCH   7   8
ENDBRANCH   1   7
TORSDOF 4
ENDMDL
MODEL 5
REMARK VINA RESULT:      -3.8      2.727      6.270
REMARK  4 active torsions:
REMARK  status: ('A' for Active; 'I' for Inactive)
REMARK    1  A    between atoms: C_1  and  C_5 
REMARK    2  A    between atoms: S_3  and  C_5 
REMARK    3  A    between atoms: S_3  and  C_7 
REMARK    4  A    between atoms: C_6  and  C_7 
ROOT
HETATM    1  C   UNL     1      65.922   5.820   7.189  1.00  0.00    -0.049 A 
HETATM    2  C   UNL     1      65.934   6.570   8.375  1.00  0.00     0.008 A 
HETATM    3  C   UNL     1      67.006   4.971   6.920  1.00  0.00     0.008 A 
HETATM    4  C   UNL     1      68.075   4.877   7.814  1.00  0.00     0.001 A 
HETATM    5  C   UNL     1      67.006   6.480   9.264  1.00  0.00     0.001 A 
HETATM    6  C   UNL     1      68.074   5.632   8.985  1.00  0.00     0.000 A 
ENDROOT
BRANCH   1   7
HETATM    7  C   UNL     1      64.743   5.868   6.249  1.00  0.00     0.112 C 
BRANCH   7   8
HETATM    8  S   UNL     1      65.170   6.194   4.507  1.00  0.00    -0.154 SA
BRANCH   8   9
HETATM    9  C   UNL     1      64.086   7.612   4.151  1.00  0.00     0.187 C 
BRANCH   9  10
HETATM   10  C   UNL     1      64.202   8.736   5.156  1.00  0.00     0.182 C 
HETATM   11  O   UNL     1      63.320   9.316   5.765  1.00  0.00    -0.647 OA
HETATM   12  O   UNL     1      65.490   9.095   5.353  1.00  0.00    -0.647 OA
ENDBRANCH   9  10
ENDBRANCH   8   9
ENDBRANCH   7   8
ENDBRANCH   1   7
TORSDOF 4
ENDMDL
MODEL 6
REMARK VINA RESULT:      -3.7     12.705     14.225
REMARK  4 active torsions:
REMARK  status: ('A' for Active; 'I' for Inactive)
REMARK    1  A    between atoms: C_1  and  C_5 
REMARK    2  A    between atoms: S_3  and  C_5 
REMARK    3  A    between atoms: S_3  and  C_7 
REMARK    4  A    between atoms: C_6  and  C_7 
ROOT
HETATM    1  C   UNL     1      56.620   1.674  13.047  1.00  0.00    -0.049 A 
HETATM    2  C   UNL     1      57.201   1.093  14.184  1.00  0.00     0.008 A 
HETATM    3  C   UNL     1      57.461   2.235  12.075  1.00  0.00     0.008 A 
HETATM    4  C   UNL     1      58.848   2.217  12.238  1.00  0.00     0.001 A 
HETATM    5  C   UNL     1      58.587   1.080  14.348  1.00  0.00     0.001 A 
HETATM    6  C   UNL     1      59.410   1.640  13.374  1.00  0.00     0.000 A 
ENDROOT
BRANCH   1   7
HETATM    7  C   UNL     1      55.127   1.642  12.834  1.00  0.00     0.112 C 
BRANCH   7   8
HETATM    8  S   UNL     1      54.136   1.814  14.355  1.00  0.00    -0.154 SA
BRANCH   8   9
HETATM    9  C   UNL     1      52.966   3.115  13.852  1.00  0.00     0.187 C 
BRANCH   9  10
HETATM   10  C   UNL     1      53.610   4.259  13.104  1.00  0.00     0.182 C 
HETATM   11  O   UNL     1      53.434   4.624  11.954  1.00  0.00    -0.647 OA
HETATM   12  O   UNL     1      54.496   4.925  13.881  1.00  0.00    -0.647 OA
ENDBRANCH   9  10
ENDBRANCH   8   9
ENDBRANCH   7   8
ENDBRANCH   1   7
TORSDOF 4
ENDMDL
MODEL 7
REMARK VINA RESULT:      -3.7      2.736      3.599
REMARK  4 active torsions:
REMARK  status: ('A' for Active; 'I' for Inactive)
REMARK    1  A    between atoms: C_1  and  C_5 
REMARK    2  A    between atoms: S_3  and  C_5 
REMARK    3  A    between atoms: S_3  and  C_7 
REMARK    4  A    between atoms: C_6  and  C_7 
ROOT
HETATM    1  C   UNL     1      64.789   7.436   4.376  1.00  0.00    -0.049 A 
HETATM    2  C   UNL     1      64.128   6.928   3.248  1.00  0.00     0.008 A 
HETATM    3  C   UNL     1      64.296   8.605   4.974  1.00  0.00     0.008 A 
HETATM    4  C   UNL     1      63.170   9.249   4.455  1.00  0.00     0.001 A 
HETATM    5  C   UNL     1      63.007   7.576   2.727  1.00  0.00     0.001 A 
HETATM    6  C   UNL     1      62.527   8.735   3.332  1.00  0.00     0.000 A 
ENDROOT
BRANCH   1   7
HETATM    7  C   UNL     1      65.967   6.712   4.980  1.00  0.00     0.112 C 
BRANCH   7   8
HETATM    8  S   UNL     1      66.964   7.709   6.135  1.00  0.00    -0.154 SA
BRANCH   8   9
HETATM    9  C   UNL     1      66.439   7.006   7.730  1.00  0.00     0.187 C 
BRANCH   9  10
HETATM   10  C   UNL     1      67.021   5.640   8.015  1.00  0.00     0.182 C 
HETATM   11  O   UNL     1      68.073   5.157   7.634  1.00  0.00    -0.647 OA
HETATM   12  O   UNL     1      66.205   4.908   8.808  1.00  0.00    -0.647 OA
ENDBRANCH   9  10
ENDBRANCH   8   9
ENDBRANCH   7   8
ENDBRANCH   1   7
TORSDOF 4
ENDMDL
MODEL 8
REMARK VINA RESULT:      -3.4      2.169      2.588
REMARK  4 active torsions:
REMARK  status: ('A' for Active; 'I' for Inactive)
REMARK    1  A    between atoms: C_1  and  C_5 
REMARK    2  A    between atoms: S_3  and  C_5 
REMARK    3  A    between atoms: S_3  and  C_7 
REMARK    4  A    between atoms: C_6  and  C_7 
ROOT
HETATM    1  C   UNL     1      62.509   7.654   2.707  1.00  0.00    -0.049 A 
HETATM    2  C   UNL     1      61.256   7.165   3.108  1.00  0.00     0.008 A 
HETATM    3  C   UNL     1      62.582   8.452   1.555  1.00  0.00     0.008 A 
HETATM    4  C   UNL     1      61.430   8.751   0.823  1.00  0.00     0.001 A 
HETATM    5  C   UNL     1      60.108   7.460   2.372  1.00  0.00     0.001 A 
HETATM    6  C   UNL     1      60.195   8.255   1.232  1.00  0.00     0.000 A 
ENDROOT
BRANCH   1   7
HETATM    7  C   UNL     1      63.747   7.388   3.526  1.00  0.00     0.112 C 
BRANCH   7   8
HETATM    8  S   UNL     1      64.102   8.642   4.801  1.00  0.00    -0.154 SA
BRANCH   8   9
HETATM    9  C   UNL     1      65.722   8.067   5.401  1.00  0.00     0.187 C 
BRANCH   9  10
HETATM   10  C   UNL     1      65.651   7.279   6.689  1.00  0.00     0.182 C 
HETATM   11  O   UNL     1      64.678   7.009   7.373  1.00  0.00    -0.647 OA
HETATM   12  O   UNL     1      66.873   6.848   7.077  1.00  0.00    -0.647 OA
ENDBRANCH   9  10
ENDBRANCH   8   9
ENDBRANCH   7   8
ENDBRANCH   1   7
TORSDOF 4
ENDMDL
MODEL 9
REMARK VINA RESULT:      -3.4      3.200      5.289
REMARK  4 active torsions:
REMARK  status: ('A' for Active; 'I' for Inactive)
REMARK    1  A    between atoms: C_1  and  C_5 
REMARK    2  A    between atoms: S_3  and  C_5 
REMARK    3  A    between atoms: S_3  and  C_7 
REMARK    4  A    between atoms: C_6  and  C_7 
ROOT
HETATM    1  C   UNL     1      66.013   6.208   4.273  1.00  0.00    -0.049 A 
HETATM    2  C   UNL     1      66.562   7.437   4.670  1.00  0.00     0.008 A 
HETATM    3  C   UNL     1      66.389   5.048   4.968  1.00  0.00     0.008 A 
HETATM    4  C   UNL     1      67.292   5.118   6.031  1.00  0.00     0.001 A 
HETATM    5  C   UNL     1      67.469   7.503   5.729  1.00  0.00     0.001 A 
HETATM    6  C   UNL     1      67.832   6.344   6.410  1.00  0.00     0.000 A 
ENDROOT
BRANCH   1   7
HETATM    7  C   UNL     1      64.990   6.134   3.167  1.00  0.00     0.112 C 
BRANCH   7   8
HETATM    8  S   UNL     1      63.639   7.350   3.295  1.00  0.00    -0.154 SA
BRANCH   8   9
HETATM    9  C   UNL     1      62.838   6.806   4.837  1.00  0.00     0.187 C 
BRANCH   9  10
HETATM   10  C   UNL     1      62.928   7.813   5.960  1.00  0.00     0.182 C 
HETATM   11  O   UNL     1      62.540   7.718   7.112  1.00  0.00    -0.647 OA
HETATM   12  O   UNL     1      63.532   8.955   5.557  1.00  0.00    -0.647 OA
ENDBRANCH   9  10
ENDBRANCH   8   9
ENDBRANCH   7   8
ENDBRANCH   1   7
TORSDOF 4
ENDMDL
