MODEL 1
REMARK VINA RESULT:      -4.5      0.000      0.000
REMARK  2 active torsions:
REMARK  status: ('A' for Active; 'I' for Inactive)
REMARK    1  A    between atoms: N_1  and  C_8 
REMARK    2  A    between atoms: C_8  and  C_9 
ROOT
HETATM    1  N   UNL     1      62.158  10.379   4.269  1.00  0.00    -0.368 N 
ATOM      2  HN  UNL     1      62.200  10.503   5.281  1.00  0.00     0.165 HD
HETATM    3  C   UNL     1      62.352   9.161   3.699  1.00  0.00     0.027 A 
HETATM    4  C   UNL     1      61.907  11.421   3.445  1.00  0.00     0.088 A 
HETATM    5  C   UNL     1      62.271   8.966   2.320  1.00  0.00     0.027 A 
HETATM    6  C   UNL     1      61.818  11.311   2.068  1.00  0.00     0.017 A 
HETATM    7  C   UNL     1      61.997  10.057   1.499  1.00  0.00     0.003 A 
ENDROOT
BRANCH   3   8
HETATM    8  C   UNL     1      62.688   8.014   4.616  1.00  0.00     0.184 C 
BRANCH   8   9
HETATM    9  N   UNL     1      64.117   7.724   4.588  1.00  0.00    -0.361 N 
HETATM   10  C   UNL     1      65.076   8.409   5.288  1.00  0.00     0.091 A 
HETATM   11  C   UNL     1      66.300   7.843   5.004  1.00  0.00     0.019 A 
HETATM   12  C   UNL     1      66.067   6.763   4.120  1.00  0.00     0.019 A 
HETATM   13  C   UNL     1      64.710   6.697   3.893  1.00  0.00     0.091 A 
ENDBRANCH   8   9
ENDBRANCH   3   8
TORSDOF 2
ENDMDL
MODEL 2
REMARK VINA RESULT:      -4.5      1.277      1.555
REMARK  2 active torsions:
REMARK  status: ('A' for Active; 'I' for Inactive)
REMARK    1  A    between atoms: N_1  and  C_8 
REMARK    2  A    between atoms: C_8  and  C_9 
ROOT
HETATM    1  N   UNL     1      63.206   9.963   5.767  1.00  0.00    -0.368 N 
ATOM      2  HN  UNL     1      63.609  10.006   6.703  1.00  0.00     0.165 HD
HETATM    3  C   UNL     1      63.186   8.803   5.060  1.00  0.00     0.027 A 
HETATM    4  C   UNL     1      62.671  11.059   5.183  1.00  0.00     0.088 A 
HETATM    5  C   UNL     1      62.615   8.717   3.790  1.00  0.00     0.027 A 
HETATM    6  C   UNL     1      62.093  11.057   3.926  1.00  0.00     0.017 A 
HETATM    7  C   UNL     1      62.060   9.860   3.222  1.00  0.00     0.003 A 
ENDROOT
BRANCH   3   8
HETATM    8  C   UNL     1      63.836   7.598   5.691  1.00  0.00     0.184 C 
BRANCH   8   9
HETATM    9  N   UNL     1      65.237   7.496   5.302  1.00  0.00    -0.361 N 
HETATM   10  C   UNL     1      66.286   8.067   5.974  1.00  0.00     0.091 A 
HETATM   11  C   UNL     1      67.448   7.749   5.305  1.00  0.00     0.019 A 
HETATM   12  C   UNL     1      67.088   6.937   4.204  1.00  0.00     0.019 A 
HETATM   13  C   UNL     1      65.720   6.779   4.234  1.00  0.00     0.091 A 
ENDBRANCH   8   9
ENDBRANCH   3   8
TORSDOF 2
ENDMDL
MODEL 3
REMARK VINA RESULT:      -4.3      1.133      4.800
REMARK  2 active torsions:
REMARK  status: ('A' for Active; 'I' for Inactive)
REMARK    1  A    between atoms: N_1  and  C_8 
REMARK    2  A    between atoms: C_8  and  C_9 
ROOT
HETATM    1  N   UNL     1      65.241   8.301   6.147  1.00  0.00    -0.368 N 
ATOM      2  HN  UNL     1      64.691   8.815   6.836  1.00  0.00     0.165 HD
HETATM    3  C   UNL     1      64.648   7.673   5.098  1.00  0.00     0.027 A 
HETATM    4  C   UNL     1      66.587   8.220   6.243  1.00  0.00     0.088 A 
HETATM    5  C   UNL     1      65.384   6.989   4.130  1.00  0.00     0.027 A 
HETATM    6  C   UNL     1      67.386   7.555   5.329  1.00  0.00     0.017 A 
HETATM    7  C   UNL     1      66.770   6.935   4.250  1.00  0.00     0.003 A 
ENDROOT
BRANCH   3   8
HETATM    8  C   UNL     1      63.143   7.717   5.027  1.00  0.00     0.184 C 
BRANCH   8   9
HETATM    9  N   UNL     1      62.691   8.805   4.168  1.00  0.00    -0.361 N 
HETATM   10  C   UNL     1      62.363   8.681   2.843  1.00  0.00     0.091 A 
HETATM   11  C   UNL     1      61.985   9.922   2.378  1.00  0.00     0.019 A 
HETATM   12  C   UNL     1      62.067  10.821   3.467  1.00  0.00     0.019 A 
HETATM   13  C   UNL     1      62.487  10.105   4.566  1.00  0.00     0.091 A 
ENDBRANCH   8   9
ENDBRANCH   3   8
TORSDOF 2
ENDMDL
MODEL 4
REMARK VINA RESULT:      -4.2      2.635      4.070
REMARK  2 active torsions:
REMARK  status: ('A' for Active; 'I' for Inactive)
REMARK    1  A    between atoms: N_1  and  C_8 
REMARK    2  A    between atoms: C_8  and  C_9 
ROOT
HETATM    1  N   UNL     1      64.628   9.039   5.613  1.00  0.00    -0.368 N 
ATOM      2  HN  UNL     1      64.731   9.740   6.346  1.00  0.00     0.165 HD
HETATM    3  C   UNL     1      65.574   8.085   5.412  1.00  0.00     0.027 A 
HETATM    4  C   UNL     1      63.545   9.023   4.804  1.00  0.00     0.088 A 
HETATM    5  C   UNL     1      65.440   7.100   4.433  1.00  0.00     0.027 A 
HETATM    6  C   UNL     1      63.342   8.086   3.806  1.00  0.00     0.017 A 
HETATM    7  C   UNL     1      64.306   7.103   3.625  1.00  0.00     0.003 A 
ENDROOT
BRANCH   3   8
HETATM    8  C   UNL     1      66.807   8.141   6.278  1.00  0.00     0.184 C 
BRANCH   8   9
HETATM    9  N   UNL     1      66.917   6.947   7.108  1.00  0.00    -0.361 N 
HETATM   10  C   UNL     1      67.947   6.043   7.059  1.00  0.00     0.091 A 
HETATM   11  C   UNL     1      67.696   5.059   7.989  1.00  0.00     0.019 A 
HETATM   12  C   UNL     1      66.484   5.393   8.639  1.00  0.00     0.019 A 
HETATM   13  C   UNL     1      66.032   6.573   8.091  1.00  0.00     0.091 A 
ENDBRANCH   8   9
ENDBRANCH   3   8
TORSDOF 2
ENDMDL
MODEL 5
REMARK VINA RESULT:      -4.0      1.809      2.985
REMARK  2 active torsions:
REMARK  status: ('A' for Active; 'I' for Inactive)
REMARK    1  A    between atoms: N_1  and  C_8 
REMARK    2  A    between atoms: C_8  and  C_9 
ROOT
HETATM    1  N   UNL     1      62.389   9.865   4.194  1.00  0.00    -0.368 N 
ATOM      2  HN  UNL     1      62.516   9.824   5.205  1.00  0.00     0.165 HD
HETATM    3  C   UNL     1      62.609   8.777   3.412  1.00  0.00     0.027 A 
HETATM    4  C   UNL     1      61.996  11.005   3.582  1.00  0.00     0.088 A 
HETATM    5  C   UNL     1      62.414   8.804   2.030  1.00  0.00     0.027 A 
HETATM    6  C   UNL     1      61.788  11.114   2.218  1.00  0.00     0.017 A 
HETATM    7  C   UNL     1      61.996   9.989   1.432  1.00  0.00     0.003 A 
ENDROOT
BRANCH   3   8
HETATM    8  C   UNL     1      63.104   7.525   4.091  1.00  0.00     0.184 C 
BRANCH   8   9
HETATM    9  N   UNL     1      62.058   6.929   4.913  1.00  0.00    -0.361 N 
HETATM   10  C   UNL     1      62.164   6.663   6.254  1.00  0.00     0.091 A 
HETATM   11  C   UNL     1      60.977   6.103   6.674  1.00  0.00     0.019 A 
HETATM   12  C   UNL     1      60.116   6.052   5.552  1.00  0.00     0.019 A 
HETATM   13  C   UNL     1      60.800   6.585   4.481  1.00  0.00     0.091 A 
ENDBRANCH   8   9
ENDBRANCH   3   8
TORSDOF 2
ENDMDL
MODEL 6
REMARK VINA RESULT:      -4.0      1.501      2.018
REMARK  2 active torsions:
REMARK  status: ('A' for Active; 'I' for Inactive)
REMARK    1  A    between atoms: N_1  and  C_8 
REMARK    2  A    between atoms: C_8  and  C_9 
ROOT
HETATM    1  N   UNL     1      62.555   7.639   2.767  1.00  0.00    -0.368 N 
ATOM      2  HN  UNL     1      62.786   6.713   3.129  1.00  0.00     0.165 HD
HETATM    3  C   UNL     1      62.354   8.692   3.601  1.00  0.00     0.027 A 
HETATM    4  C   UNL     1      62.436   7.863   1.439  1.00  0.00     0.088 A 
HETATM    5  C   UNL     1      62.064   9.971   3.125  1.00  0.00     0.027 A 
HETATM    6  C   UNL     1      62.145   9.098   0.890  1.00  0.00     0.017 A 
HETATM    7  C   UNL     1      61.963  10.172   1.752  1.00  0.00     0.003 A 
ENDROOT
BRANCH   3   8
HETATM    8  C   UNL     1      62.429   8.425   5.083  1.00  0.00     0.184 C 
BRANCH   8   9
HETATM    9  N   UNL     1      63.770   8.007   5.472  1.00  0.00    -0.361 N 
HETATM   10  C   UNL     1      64.926   8.677   5.163  1.00  0.00     0.091 A 
HETATM   11  C   UNL     1      65.983   7.977   5.701  1.00  0.00     0.019 A 
HETATM   12  C   UNL     1      65.444   6.857   6.379  1.00  0.00     0.019 A 
HETATM   13  C   UNL     1      64.075   6.909   6.239  1.00  0.00     0.091 A 
ENDBRANCH   8   9
ENDBRANCH   3   8
TORSDOF 2
ENDMDL
MODEL 7
REMARK VINA RESULT:      -3.8      3.078      6.660
REMARK  2 active torsions:
REMARK  status: ('A' for Active; 'I' for Inactive)
REMARK    1  A    between atoms: N_1  and  C_8 
REMARK    2  A    between atoms: C_8  and  C_9 
ROOT
HETATM    1  N   UNL     1      67.609   5.678   6.448  1.00  0.00    -0.368 N 
ATOM      2  HN  UNL     1      67.644   5.496   5.445  1.00  0.00     0.165 HD
HETATM    3  C   UNL     1      67.093   6.835   6.937  1.00  0.00     0.027 A 
HETATM    4  C   UNL     1      68.075   4.776   7.341  1.00  0.00     0.088 A 
HETATM    5  C   UNL     1      67.010   7.092   8.306  1.00  0.00     0.027 A 
HETATM    6  C   UNL     1      68.036   4.959   8.712  1.00  0.00     0.017 A 
HETATM    7  C   UNL     1      67.486   6.137   9.200  1.00  0.00     0.003 A 
ENDROOT
BRANCH   3   8
HETATM    8  C   UNL     1      66.628   7.862   5.936  1.00  0.00     0.184 C 
BRANCH   8   9
HETATM    9  N   UNL     1      65.175   7.853   5.813  1.00  0.00    -0.361 N 
HETATM   10  C   UNL     1      64.436   8.767   5.108  1.00  0.00     0.091 A 
HETATM   11  C   UNL     1      63.107   8.426   5.227  1.00  0.00     0.019 A 
HETATM   12  C   UNL     1      63.043   7.252   6.014  1.00  0.00     0.019 A 
HETATM   13  C   UNL     1      64.334   6.906   6.348  1.00  0.00     0.091 A 
ENDBRANCH   8   9
ENDBRANCH   3   8
TORSDOF 2
ENDMDL
MODEL 8
REMARK VINA RESULT:      -3.8      1.487      4.645
REMARK  2 active torsions:
REMARK  status: ('A' for Active; 'I' for Inactive)
REMARK    1  A    between atoms: N_1  and  C_8 
REMARK    2  A    between atoms: C_8  and  C_9 
ROOT
HETATM    1  N   UNL     1      64.688   8.796   4.912  1.00  0.00    -0.368 N 
ATOM      2  HN  UNL     1      64.884   9.572   4.279  1.00  0.00     0.165 HD
HETATM    3  C   UNL     1      63.417   8.370   5.132  1.00  0.00     0.027 A 
HETATM    4  C   UNL     1      65.683   8.154   5.564  1.00  0.00     0.088 A 
HETATM    5  C   UNL     1      63.130   7.294   5.973  1.00  0.00     0.027 A 
HETATM    6  C   UNL     1      65.480   7.085   6.418  1.00  0.00     0.017 A 
HETATM    7  C   UNL     1      64.178   6.645   6.619  1.00  0.00     0.003 A 
ENDROOT
BRANCH   3   8
HETATM    8  C   UNL     1      62.306   9.126   4.449  1.00  0.00     0.184 C 
BRANCH   8   9
HETATM    9  N   UNL     1      62.295   8.858   3.016  1.00  0.00    -0.361 N 
HETATM   10  C   UNL     1      62.471   7.625   2.443  1.00  0.00     0.091 A 
HETATM   11  C   UNL     1      62.395   7.774   1.075  1.00  0.00     0.019 A 
HETATM   12  C   UNL     1      62.141   9.142   0.816  1.00  0.00     0.019 A 
HETATM   13  C   UNL     1      62.064   9.787   2.031  1.00  0.00     0.091 A 
ENDBRANCH   8   9
ENDBRANCH   3   8
TORSDOF 2
ENDMDL
MODEL 9
REMARK VINA RESULT:      -3.7      2.544      4.105
REMARK  2 active torsions:
REMARK  status: ('A' for Active; 'I' for Inactive)
REMARK    1  A    between atoms: N_1  and  C_8 
REMARK    2  A    between atoms: C_8  and  C_9 
ROOT
HETATM    1  N   UNL     1      59.794   8.280   2.071  1.00  0.00    -0.368 N 
ATOM      2  HN  UNL     1      59.476   8.954   2.767  1.00  0.00     0.165 HD
HETATM    3  C   UNL     1      60.930   8.488   1.356  1.00  0.00     0.027 A 
HETATM    4  C   UNL     1      59.102   7.145   1.826  1.00  0.00     0.088 A 
HETATM    5  C   UNL     1      61.398   7.565   0.420  1.00  0.00     0.027 A 
HETATM    6  C   UNL     1      59.495   6.185   0.910  1.00  0.00     0.017 A 
HETATM    7  C   UNL     1      60.670   6.400   0.200  1.00  0.00     0.003 A 
ENDROOT
BRANCH   3   8
HETATM    8  C   UNL     1      61.668   9.782   1.590  1.00  0.00     0.184 C 
BRANCH   8   9
HETATM    9  N   UNL     1      62.200   9.842   2.947  1.00  0.00    -0.361 N 
HETATM   10  C   UNL     1      62.960   8.868   3.540  1.00  0.00     0.091 A 
HETATM   11  C   UNL     1      63.270   9.285   4.816  1.00  0.00     0.019 A 
HETATM   12  C   UNL     1      62.696  10.567   4.990  1.00  0.00     0.019 A 
HETATM   13  C   UNL     1      62.057  10.897   3.815  1.00  0.00     0.091 A 
ENDBRANCH   8   9
ENDBRANCH   3   8
TORSDOF 2
ENDMDL
