MODEL 1
REMARK VINA RESULT:      -4.2      0.000      0.000
REMARK  2 active torsions:
REMARK  status: ('A' for Active; 'I' for Inactive)
REMARK    1  A    between atoms: C_1  and  N_6 
REMARK    2  A    between atoms: C_3  and  S_7 
ROOT
HETATM    1  C   UNL     1      62.614  10.439   4.969  1.00  0.00     0.044 A 
HETATM    2  C   UNL     1      62.196  11.426   4.063  1.00  0.00     0.054 A 
HETATM    3  C   UNL     1      62.832   9.126   4.498  1.00  0.00     0.026 A 
HETATM    4  C   UNL     1      62.538   8.809   3.163  1.00  0.00     0.022 A 
HETATM    5  C   UNL     1      61.897  11.093   2.745  1.00  0.00     0.036 A 
HETATM    6  C   UNL     1      62.065   9.789   2.287  1.00  0.00     0.025 A 
HETATM    7 CL   UNL     1      61.297  12.300   1.673  1.00  0.00    -0.084 Cl
ENDROOT
BRANCH   1   8
HETATM    8  N   UNL     1      62.988  10.829   6.271  1.00  0.00    -0.398 N 
HETATM    9  H   UNL     1      62.551  11.601   6.698  1.00  0.00     0.156 HD
HETATM   10  H   UNL     1      63.687  10.330   6.753  1.00  0.00     0.156 HD
ENDBRANCH   1   8
BRANCH   3  11
HETATM   11  S   UNL     1      63.306   7.775   5.585  1.00  0.00    -0.132 SA
HETATM   12  C   UNL     1      65.113   7.914   5.532  1.00  0.00     0.095 C 
ENDBRANCH   3  11
TORSDOF 2
ENDMDL
MODEL 2
REMARK VINA RESULT:      -3.9      1.411      1.542
REMARK  2 active torsions:
REMARK  status: ('A' for Active; 'I' for Inactive)
REMARK    1  A    between atoms: C_1  and  N_6 
REMARK    2  A    between atoms: C_3  and  S_7 
ROOT
HETATM    1  C   UNL     1      62.633   9.083   4.334  1.00  0.00     0.044 A 
HETATM    2  C   UNL     1      62.311  10.364   3.859  1.00  0.00     0.054 A 
HETATM    3  C   UNL     1      62.771   8.025   3.408  1.00  0.00     0.026 A 
HETATM    4  C   UNL     1      62.493   8.249   2.051  1.00  0.00     0.022 A 
HETATM    5  C   UNL     1      62.026  10.567   2.511  1.00  0.00     0.036 A 
HETATM    6  C   UNL     1      62.115   9.516   1.602  1.00  0.00     0.025 A 
HETATM    7 CL   UNL     1      61.543  12.126   1.964  1.00  0.00    -0.084 Cl
ENDROOT
BRANCH   1   8
HETATM    8  N   UNL     1      62.996   8.933   5.687  1.00  0.00    -0.398 N 
HETATM    9  H   UNL     1      63.233   8.045   6.037  1.00  0.00     0.156 HD
HETATM   10  H   UNL     1      63.011   9.718   6.282  1.00  0.00     0.156 HD
ENDBRANCH   1   8
BRANCH   3  11
HETATM   11  S   UNL     1      63.117   6.336   3.916  1.00  0.00    -0.132 SA
HETATM   12  C   UNL     1      64.903   6.249   3.614  1.00  0.00     0.095 C 
ENDBRANCH   3  11
TORSDOF 2
ENDMDL
MODEL 3
REMARK VINA RESULT:      -3.8      1.696      2.286
REMARK  2 active torsions:
REMARK  status: ('A' for Active; 'I' for Inactive)
REMARK    1  A    between atoms: C_1  and  N_6 
REMARK    2  A    between atoms: C_3  and  S_7 
ROOT
HETATM    1  C   UNL     1      62.498   8.344   3.331  1.00  0.00     0.044 A 
HETATM    2  C   UNL     1      62.074   9.397   2.505  1.00  0.00     0.054 A 
HETATM    3  C   UNL     1      62.784   8.613   4.688  1.00  0.00     0.026 A 
HETATM    4  C   UNL     1      62.732   9.933   5.161  1.00  0.00     0.022 A 
HETATM    5  C   UNL     1      62.039  10.702   2.986  1.00  0.00     0.036 A 
HETATM    6  C   UNL     1      62.366  10.979   4.311  1.00  0.00     0.025 A 
HETATM    7 CL   UNL     1      61.604  11.991   1.931  1.00  0.00    -0.084 Cl
ENDROOT
BRANCH   1   8
HETATM    8  N   UNL     1      62.441   7.027   2.834  1.00  0.00    -0.398 N 
HETATM    9  H   UNL     1      63.213   6.426   2.942  1.00  0.00     0.156 HD
HETATM   10  H   UNL     1      61.628   6.708   2.378  1.00  0.00     0.156 HD
ENDBRANCH   1   8
BRANCH   3  11
HETATM   11  S   UNL     1      63.395   7.352   5.814  1.00  0.00    -0.132 SA
HETATM   12  C   UNL     1      65.180   7.665   5.740  1.00  0.00     0.095 C 
ENDBRANCH   3  11
TORSDOF 2
ENDMDL
MODEL 4
REMARK VINA RESULT:      -3.6      1.690      2.098
REMARK  2 active torsions:
REMARK  status: ('A' for Active; 'I' for Inactive)
REMARK    1  A    between atoms: C_1  and  N_6 
REMARK    2  A    between atoms: C_3  and  S_7 
ROOT
HETATM    1  C   UNL     1      63.159   9.057   4.718  1.00  0.00     0.044 A 
HETATM    2  C   UNL     1      62.526   9.464   3.534  1.00  0.00     0.054 A 
HETATM    3  C   UNL     1      63.887   7.846   4.723  1.00  0.00     0.026 A 
HETATM    4  C   UNL     1      63.885   7.030   3.582  1.00  0.00     0.022 A 
HETATM    5  C   UNL     1      62.523   8.637   2.414  1.00  0.00     0.036 A 
HETATM    6  C   UNL     1      63.199   7.420   2.429  1.00  0.00     0.025 A 
HETATM    7 CL   UNL     1      61.662   9.114   1.001  1.00  0.00    -0.084 Cl
ENDROOT
BRANCH   1   8
HETATM    8  N   UNL     1      63.212   9.955   5.802  1.00  0.00    -0.398 N 
HETATM    9  H   UNL     1      62.730   9.751   6.635  1.00  0.00     0.156 HD
HETATM   10  H   UNL     1      63.732  10.789   5.726  1.00  0.00     0.156 HD
ENDBRANCH   1   8
BRANCH   3  11
HETATM   11  S   UNL     1      64.680   7.202   6.202  1.00  0.00    -0.132 SA
HETATM   12  C   UNL     1      66.292   8.028   6.110  1.00  0.00     0.095 C 
ENDBRANCH   3  11
TORSDOF 2
ENDMDL
MODEL 5
REMARK VINA RESULT:      -3.5      3.309      4.412
REMARK  2 active torsions:
REMARK  status: ('A' for Active; 'I' for Inactive)
REMARK    1  A    between atoms: C_1  and  N_6 
REMARK    2  A    between atoms: C_3  and  S_7 
ROOT
HETATM    1  C   UNL     1      64.044   9.077   4.894  1.00  0.00     0.044 A 
HETATM    2  C   UNL     1      65.150   8.283   5.233  1.00  0.00     0.054 A 
HETATM    3  C   UNL     1      63.180   8.642   3.864  1.00  0.00     0.026 A 
HETATM    4  C   UNL     1      63.492   7.482   3.139  1.00  0.00     0.022 A 
HETATM    5  C   UNL     1      65.453   7.142   4.495  1.00  0.00     0.036 A 
HETATM    6  C   UNL     1      64.630   6.735   3.449  1.00  0.00     0.025 A 
HETATM    7 CL   UNL     1      66.866   6.232   4.868  1.00  0.00    -0.084 Cl
ENDROOT
BRANCH   1   8
HETATM    8  N   UNL     1      63.722  10.177   5.714  1.00  0.00    -0.398 N 
HETATM    9  H   UNL     1      64.432  10.648   6.206  1.00  0.00     0.156 HD
HETATM   10  H   UNL     1      62.787  10.473   5.796  1.00  0.00     0.156 HD
ENDBRANCH   1   8
BRANCH   3  11
HETATM   11  S   UNL     1      61.773   9.614   3.310  1.00  0.00    -0.132 SA
HETATM   12  C   UNL     1      61.975   9.511   1.511  1.00  0.00     0.095 C 
ENDBRANCH   3  11
TORSDOF 2
ENDMDL
MODEL 6
REMARK VINA RESULT:      -3.5      2.408      2.808
REMARK  2 active torsions:
REMARK  status: ('A' for Active; 'I' for Inactive)
REMARK    1  A    between atoms: C_1  and  N_6 
REMARK    2  A    between atoms: C_3  and  S_7 
ROOT
HETATM    1  C   UNL     1      61.953   8.171   3.453  1.00  0.00     0.044 A 
HETATM    2  C   UNL     1      61.871   9.568   3.344  1.00  0.00     0.054 A 
HETATM    3  C   UNL     1      62.206   7.408   2.291  1.00  0.00     0.026 A 
HETATM    4  C   UNL     1      62.277   8.046   1.043  1.00  0.00     0.022 A 
HETATM    5  C   UNL     1      61.930  10.184   2.097  1.00  0.00     0.036 A 
HETATM    6  C   UNL     1      62.133   9.431   0.943  1.00  0.00     0.025 A 
HETATM    7 CL   UNL     1      61.735  11.890   1.976  1.00  0.00    -0.084 Cl
ENDROOT
BRANCH   1   8
HETATM    8  N   UNL     1      61.972   7.591   4.737  1.00  0.00    -0.398 N 
HETATM    9  H   UNL     1      61.720   6.647   4.854  1.00  0.00     0.156 HD
HETATM   10  H   UNL     1      62.237   8.131   5.517  1.00  0.00     0.156 HD
ENDBRANCH   1   8
BRANCH   3  11
HETATM   11  S   UNL     1      62.267   5.612   2.309  1.00  0.00    -0.132 SA
HETATM   12  C   UNL     1      64.047   5.329   2.111  1.00  0.00     0.095 C 
ENDBRANCH   3  11
TORSDOF 2
ENDMDL
MODEL 7
REMARK VINA RESULT:      -3.4      3.872      4.821
REMARK  2 active torsions:
REMARK  status: ('A' for Active; 'I' for Inactive)
REMARK    1  A    between atoms: C_1  and  N_6 
REMARK    2  A    between atoms: C_3  and  S_7 
ROOT
HETATM    1  C   UNL     1      66.499   7.615   5.992  1.00  0.00     0.044 A 
HETATM    2  C   UNL     1      65.634   8.373   5.188  1.00  0.00     0.054 A 
HETATM    3  C   UNL     1      65.969   6.545   6.747  1.00  0.00     0.026 A 
HETATM    4  C   UNL     1      64.584   6.320   6.755  1.00  0.00     0.022 A 
HETATM    5  C   UNL     1      64.261   8.145   5.217  1.00  0.00     0.036 A 
HETATM    6  C   UNL     1      63.729   7.121   5.996  1.00  0.00     0.025 A 
HETATM    7 CL   UNL     1      63.208   9.147   4.294  1.00  0.00    -0.084 Cl
ENDROOT
BRANCH   1   8
HETATM    8  N   UNL     1      67.888   7.819   5.874  1.00  0.00    -0.398 N 
HETATM    9  H   UNL     1      68.477   7.660   6.646  1.00  0.00     0.156 HD
HETATM   10  H   UNL     1      68.270   8.122   5.018  1.00  0.00     0.156 HD
ENDBRANCH   1   8
BRANCH   3  11
HETATM   11  S   UNL     1      66.977   5.553   7.856  1.00  0.00    -0.132 SA
HETATM   12  C   UNL     1      66.919   6.561   9.362  1.00  0.00     0.095 C 
ENDBRANCH   3  11
TORSDOF 2
ENDMDL
MODEL 8
REMARK VINA RESULT:      -3.4      2.945      3.662
REMARK  2 active torsions:
REMARK  status: ('A' for Active; 'I' for Inactive)
REMARK    1  A    between atoms: C_1  and  N_6 
REMARK    2  A    between atoms: C_3  and  S_7 
ROOT
HETATM    1  C   UNL     1      65.431   7.998   5.474  1.00  0.00     0.044 A 
HETATM    2  C   UNL     1      64.333   8.789   5.103  1.00  0.00     0.054 A 
HETATM    3  C   UNL     1      65.776   6.887   4.672  1.00  0.00     0.026 A 
HETATM    4  C   UNL     1      64.965   6.540   3.581  1.00  0.00     0.022 A 
HETATM    5  C   UNL     1      63.532   8.424   4.025  1.00  0.00     0.036 A 
HETATM    6  C   UNL     1      63.841   7.303   3.260  1.00  0.00     0.025 A 
HETATM    7 CL   UNL     1      62.137   9.357   3.642  1.00  0.00    -0.084 Cl
ENDROOT
BRANCH   1   8
HETATM    8  N   UNL     1      66.267   8.444   6.518  1.00  0.00    -0.398 N 
HETATM    9  H   UNL     1      67.195   8.123   6.575  1.00  0.00     0.156 HD
HETATM   10  H   UNL     1      65.921   9.075   7.190  1.00  0.00     0.156 HD
ENDBRANCH   1   8
BRANCH   3  11
HETATM   11  S   UNL     1      67.122   5.773   5.093  1.00  0.00    -0.132 SA
HETATM   12  C   UNL     1      66.343   4.771   6.389  1.00  0.00     0.095 C 
ENDBRANCH   3  11
TORSDOF 2
ENDMDL
MODEL 9
REMARK VINA RESULT:      -3.2      2.818      3.562
REMARK  2 active torsions:
REMARK  status: ('A' for Active; 'I' for Inactive)
REMARK    1  A    between atoms: C_1  and  N_6 
REMARK    2  A    between atoms: C_3  and  S_7 
ROOT
HETATM    1  C   UNL     1      64.138   7.768   4.177  1.00  0.00     0.044 A 
HETATM    2  C   UNL     1      64.026   8.913   4.982  1.00  0.00     0.054 A 
HETATM    3  C   UNL     1      63.327   7.659   3.026  1.00  0.00     0.026 A 
HETATM    4  C   UNL     1      62.362   8.643   2.761  1.00  0.00     0.022 A 
HETATM    5  C   UNL     1      63.055   9.873   4.712  1.00  0.00     0.036 A 
HETATM    6  C   UNL     1      62.221   9.746   3.604  1.00  0.00     0.025 A 
HETATM    7 CL   UNL     1      62.872  11.223   5.764  1.00  0.00    -0.084 Cl
ENDROOT
BRANCH   1   8
HETATM    8  N   UNL     1      65.186   6.860   4.432  1.00  0.00    -0.398 N 
HETATM    9  H   UNL     1      65.316   6.082   3.844  1.00  0.00     0.156 HD
HETATM   10  H   UNL     1      65.787   7.005   5.199  1.00  0.00     0.156 HD
ENDBRANCH   1   8
BRANCH   3  11
HETATM   11  S   UNL     1      63.347   6.209   1.965  1.00  0.00    -0.132 SA
HETATM   12  C   UNL     1      62.619   6.886   0.448  1.00  0.00     0.095 C 
ENDBRANCH   3  11
TORSDOF 2
ENDMDL
