MODEL 1
REMARK VINA RESULT:      -3.6      0.000      0.000
REMARK  0 active torsions:
REMARK  status: ('A' for Active; 'I' for Inactive)
ROOT
HETATM    1  N   UNL     1      62.663   8.545   3.240  1.00  0.00    -0.303 N 
ATOM      2  HN  UNL     1      62.954   7.908   3.982  1.00  0.00     0.186 HD
HETATM    3  N   UNL     1      62.372   9.856   3.344  1.00  0.00    -0.301 N 
HETATM    4  C   UNL     1      62.017  10.429   2.148  1.00  0.00     0.026 A 
HETATM    5  C   UNL     1      62.069   9.406   1.224  1.00  0.00     0.052 A 
HETATM    6  C   UNL     1      62.483   8.266   1.945  1.00  0.00     0.024 A 
HETATM    7  C   UNL     1      62.473  10.477   4.642  1.00  0.00     0.177 C 
HETATM    8  C   UNL     1      61.673  11.860   1.982  1.00  0.00     0.070 C 
HETATM    9  C   UNL     1      62.731   6.898   1.435  1.00  0.00     0.070 C 
ENDROOT
TORSDOF 0
ENDMDL
MODEL 2
REMARK VINA RESULT:      -3.5      1.364      2.298
REMARK  0 active torsions:
REMARK  status: ('A' for Active; 'I' for Inactive)
ROOT
HETATM    1  N   UNL     1      63.047   8.454   3.006  1.00  0.00    -0.303 N 
ATOM      2  HN  UNL     1      63.413   7.572   2.646  1.00  0.00     0.186 HD
HETATM    3  N   UNL     1      63.326   9.044   4.185  1.00  0.00    -0.301 N 
HETATM    4  C   UNL     1      62.668  10.236   4.363  1.00  0.00     0.026 A 
HETATM    5  C   UNL     1      61.905  10.406   3.226  1.00  0.00     0.052 A 
HETATM    6  C   UNL     1      62.183   9.285   2.415  1.00  0.00     0.024 A 
HETATM    7  C   UNL     1      64.250   8.386   5.077  1.00  0.00     0.177 C 
HETATM    8  C   UNL     1      62.817  11.095   5.560  1.00  0.00     0.070 C 
HETATM    9  C   UNL     1      61.655   8.976   1.066  1.00  0.00     0.070 C 
ENDROOT
TORSDOF 0
ENDMDL
MODEL 3
REMARK VINA RESULT:      -3.5      1.185      2.574
REMARK  0 active torsions:
REMARK  status: ('A' for Active; 'I' for Inactive)
ROOT
HETATM    1  N   UNL     1      62.557   8.351   3.099  1.00  0.00    -0.303 N 
ATOM      2  HN  UNL     1      62.746   7.367   2.908  1.00  0.00     0.186 HD
HETATM    3  N   UNL     1      62.253   9.320   2.215  1.00  0.00    -0.301 N 
HETATM    4  C   UNL     1      62.050  10.545   2.800  1.00  0.00     0.026 A 
HETATM    5  C   UNL     1      62.257  10.343   4.149  1.00  0.00     0.052 A 
HETATM    6  C   UNL     1      62.556   8.971   4.284  1.00  0.00     0.024 A 
HETATM    7  C   UNL     1      62.172   8.969   0.817  1.00  0.00     0.177 C 
HETATM    8  C   UNL     1      61.681  11.771   2.056  1.00  0.00     0.070 C 
HETATM    9  C   UNL     1      62.835   8.210   5.524  1.00  0.00     0.070 C 
ENDROOT
TORSDOF 0
ENDMDL
MODEL 4
REMARK VINA RESULT:      -3.4      1.605      2.528
REMARK  0 active torsions:
REMARK  status: ('A' for Active; 'I' for Inactive)
ROOT
HETATM    1  N   UNL     1      61.571  10.165   3.044  1.00  0.00    -0.303 N 
ATOM      2  HN  UNL     1      60.889  10.904   2.871  1.00  0.00     0.186 HD
HETATM    3  N   UNL     1      62.469  10.088   4.045  1.00  0.00    -0.301 N 
HETATM    4  C   UNL     1      63.241   8.954   3.997  1.00  0.00     0.026 A 
HETATM    5  C   UNL     1      62.815   8.271   2.876  1.00  0.00     0.052 A 
HETATM    6  C   UNL     1      61.775   9.054   2.330  1.00  0.00     0.024 A 
HETATM    7  C   UNL     1      62.506  11.158   5.014  1.00  0.00     0.177 C 
HETATM    8  C   UNL     1      64.285   8.616   4.990  1.00  0.00     0.070 C 
HETATM    9  C   UNL     1      60.945   8.772   1.136  1.00  0.00     0.070 C 
ENDROOT
TORSDOF 0
ENDMDL
MODEL 5
REMARK VINA RESULT:      -3.4      1.310      2.646
REMARK  0 active torsions:
REMARK  status: ('A' for Active; 'I' for Inactive)
ROOT
HETATM    1  N   UNL     1      62.329  10.214   4.009  1.00  0.00    -0.303 N 
ATOM      2  HN  UNL     1      62.263  10.971   4.690  1.00  0.00     0.186 HD
HETATM    3  N   UNL     1      62.120  10.278   2.680  1.00  0.00    -0.301 N 
HETATM    4  C   UNL     1      62.296   9.075   2.044  1.00  0.00     0.026 A 
HETATM    5  C   UNL     1      62.622   8.180   3.042  1.00  0.00     0.052 A 
HETATM    6  C   UNL     1      62.641   8.934   4.234  1.00  0.00     0.024 A 
HETATM    7  C   UNL     1      61.760  11.553   2.106  1.00  0.00     0.177 C 
HETATM    8  C   UNL     1      62.151   8.878   0.584  1.00  0.00     0.070 C 
HETATM    9  C   UNL     1      62.962   8.474   5.605  1.00  0.00     0.070 C 
ENDROOT
TORSDOF 0
ENDMDL
MODEL 6
REMARK VINA RESULT:      -3.4      0.922      2.989
REMARK  0 active torsions:
REMARK  status: ('A' for Active; 'I' for Inactive)
ROOT
HETATM    1  N   UNL     1      62.191  10.319   3.714  1.00  0.00    -0.303 N 
ATOM      2  HN  UNL     1      62.118  10.972   4.495  1.00  0.00     0.186 HD
HETATM    3  N   UNL     1      62.503   9.010   3.758  1.00  0.00    -0.301 N 
HETATM    4  C   UNL     1      62.509   8.412   2.523  1.00  0.00     0.026 A 
HETATM    5  C   UNL     1      62.197   9.416   1.630  1.00  0.00     0.052 A 
HETATM    6  C   UNL     1      61.999  10.571   2.416  1.00  0.00     0.024 A 
HETATM    7  C   UNL     1      62.772   8.415   5.045  1.00  0.00     0.177 C 
HETATM    8  C   UNL     1      62.797   6.977   2.296  1.00  0.00     0.070 C 
HETATM    9  C   UNL     1      61.614  11.930   1.968  1.00  0.00     0.070 C 
ENDROOT
TORSDOF 0
ENDMDL
MODEL 7
REMARK VINA RESULT:      -3.3      1.634      3.506
REMARK  0 active torsions:
REMARK  status: ('A' for Active; 'I' for Inactive)
ROOT
HETATM    1  N   UNL     1      61.116   9.394   2.382  1.00  0.00    -0.303 N 
ATOM      2  HN  UNL     1      60.531   9.349   1.547  1.00  0.00     0.186 HD
HETATM    3  N   UNL     1      61.363   8.412   3.270  1.00  0.00    -0.301 N 
HETATM    4  C   UNL     1      62.202   8.797   4.285  1.00  0.00     0.026 A 
HETATM    5  C   UNL     1      62.493  10.122   4.035  1.00  0.00     0.052 A 
HETATM    6  C   UNL     1      61.808  10.440   2.843  1.00  0.00     0.024 A 
HETATM    7  C   UNL     1      60.751   7.123   3.052  1.00  0.00     0.177 C 
HETATM    8  C   UNL     1      62.652   7.903   5.376  1.00  0.00     0.070 C 
HETATM    9  C   UNL     1      61.796  11.725   2.106  1.00  0.00     0.070 C 
ENDROOT
TORSDOF 0
ENDMDL
MODEL 8
REMARK VINA RESULT:      -3.3      2.611      2.997
REMARK  0 active torsions:
REMARK  status: ('A' for Active; 'I' for Inactive)
ROOT
HETATM    1  N   UNL     1      64.396   9.190   5.577  1.00  0.00    -0.303 N 
ATOM      2  HN  UNL     1      64.919   9.486   6.401  1.00  0.00     0.186 HD
HETATM    3  N   UNL     1      63.350   9.810   4.997  1.00  0.00    -0.301 N 
HETATM    4  C   UNL     1      62.873   9.150   3.892  1.00  0.00     0.026 A 
HETATM    5  C   UNL     1      63.660   8.023   3.772  1.00  0.00     0.052 A 
HETATM    6  C   UNL     1      64.591   8.099   4.830  1.00  0.00     0.024 A 
HETATM    7  C   UNL     1      62.881  11.046   5.575  1.00  0.00     0.177 C 
HETATM    8  C   UNL     1      61.747   9.630   3.059  1.00  0.00     0.070 C 
HETATM    9  C   UNL     1      65.690   7.160   5.154  1.00  0.00     0.070 C 
ENDROOT
TORSDOF 0
ENDMDL
MODEL 9
REMARK VINA RESULT:      -3.2      2.599      4.164
REMARK  0 active torsions:
REMARK  status: ('A' for Active; 'I' for Inactive)
ROOT
HETATM    1  N   UNL     1      64.238   9.383   5.601  1.00  0.00    -0.303 N 
ATOM      2  HN  UNL     1      64.599   9.865   6.425  1.00  0.00     0.186 HD
HETATM    3  N   UNL     1      64.642   8.204   5.090  1.00  0.00    -0.301 N 
HETATM    4  C   UNL     1      63.943   7.830   3.970  1.00  0.00     0.026 A 
HETATM    5  C   UNL     1      63.043   8.852   3.743  1.00  0.00     0.052 A 
HETATM    6  C   UNL     1      63.258   9.781   4.783  1.00  0.00     0.024 A 
HETATM    7  C   UNL     1      65.710   7.500   5.758  1.00  0.00     0.177 C 
HETATM    8  C   UNL     1      64.172   6.568   3.230  1.00  0.00     0.070 C 
HETATM    9  C   UNL     1      62.543  11.052   5.040  1.00  0.00     0.070 C 
ENDROOT
TORSDOF 0
ENDMDL
