MODEL 1
REMARK VINA RESULT:      -4.4      0.000      0.000
REMARK  2 active torsions:
REMARK  status: ('A' for Active; 'I' for Inactive)
REMARK    1  A    between atoms: C_2  and  N_7 
REMARK    2  A    between atoms: C_3  and  N_6 
ROOT
HETATM    1  C   UNL     1      63.160   8.265   3.645  1.00  0.00     0.097 A 
HETATM    2  C   UNL     1      63.717   8.692   4.896  1.00  0.00     0.052 A 
HETATM    3  C   UNL     1      62.208   9.049   2.915  1.00  0.00     0.052 A 
HETATM    4  C   UNL     1      63.698   7.082   3.023  1.00  0.00     0.104 C 
HETATM    5  N   UNL     1      64.102   6.109   2.531  1.00  0.00    -0.191 NA
HETATM    6  C   UNL     1      63.345   9.973   5.342  1.00  0.00     0.031 A 
HETATM    7  C   UNL     1      61.901  10.316   3.444  1.00  0.00     0.031 A 
HETATM    8  C   UNL     1      62.464  10.780   4.626  1.00  0.00     0.005 A 
ENDROOT
BRANCH   2   9
HETATM    9  N   UNL     1      64.608   7.944   5.668  1.00  0.00    -0.388 N 
HETATM   10  C   UNL     1      66.060   8.090   5.581  1.00  0.00     0.149 C 
HETATM   11  C   UNL     1      64.134   6.850   6.512  1.00  0.00     0.149 C 
ENDBRANCH   2   9
BRANCH   3  12
HETATM   12  N   UNL     1      61.596   8.652   1.723  1.00  0.00    -0.388 N 
HETATM   13  C   UNL     1      62.217   8.822   0.411  1.00  0.00     0.149 C 
HETATM   14  C   UNL     1      60.332   7.926   1.737  1.00  0.00     0.149 C 
ENDBRANCH   3  12
TORSDOF 2
ENDMDL
MODEL 2
REMARK VINA RESULT:      -4.3      0.302      4.229
REMARK  2 active torsions:
REMARK  status: ('A' for Active; 'I' for Inactive)
REMARK    1  A    between atoms: C_2  and  N_7 
REMARK    2  A    between atoms: C_3  and  N_6 
ROOT
HETATM    1  C   UNL     1      63.211   8.143   3.566  1.00  0.00     0.097 A 
HETATM    2  C   UNL     1      62.277   8.933   2.818  1.00  0.00     0.052 A 
HETATM    3  C   UNL     1      63.818   8.606   4.779  1.00  0.00     0.052 A 
HETATM    4  C   UNL     1      63.423   6.774   3.170  1.00  0.00     0.104 C 
HETATM    5  N   UNL     1      63.627   5.678   2.837  1.00  0.00    -0.191 NA
HETATM    6  C   UNL     1      61.913  10.170   3.379  1.00  0.00     0.031 A 
HETATM    7  C   UNL     1      63.387   9.856   5.259  1.00  0.00     0.031 A 
HETATM    8  C   UNL     1      62.444  10.622   4.585  1.00  0.00     0.005 A 
ENDROOT
BRANCH   2   9
HETATM    9  N   UNL     1      61.698   8.548   1.607  1.00  0.00    -0.388 N 
HETATM   10  C   UNL     1      62.346   8.742   0.312  1.00  0.00     0.149 C 
HETATM   11  C   UNL     1      60.323   8.057   1.556  1.00  0.00     0.149 C 
ENDBRANCH   2   9
BRANCH   3  12
HETATM   12  N   UNL     1      64.773   7.897   5.514  1.00  0.00    -0.388 N 
HETATM   13  C   UNL     1      64.426   6.915   6.538  1.00  0.00     0.149 C 
HETATM   14  C   UNL     1      66.193   8.018   5.206  1.00  0.00     0.149 C 
ENDBRANCH   3  12
TORSDOF 2
ENDMDL
MODEL 3
REMARK VINA RESULT:      -4.1      1.502      5.098
REMARK  2 active torsions:
REMARK  status: ('A' for Active; 'I' for Inactive)
REMARK    1  A    between atoms: C_2  and  N_7 
REMARK    2  A    between atoms: C_3  and  N_6 
ROOT
HETATM    1  C   UNL     1      63.771   7.956   4.276  1.00  0.00     0.097 A 
HETATM    2  C   UNL     1      62.989   7.742   3.093  1.00  0.00     0.052 A 
HETATM    3  C   UNL     1      64.863   7.105   4.645  1.00  0.00     0.052 A 
HETATM    4  C   UNL     1      63.555   9.163   5.031  1.00  0.00     0.104 C 
HETATM    5  N   UNL     1      63.362  10.119   5.668  1.00  0.00    -0.191 NA
HETATM    6  C   UNL     1      63.398   6.689   2.255  1.00  0.00     0.031 A 
HETATM    7  C   UNL     1      65.195   6.081   3.740  1.00  0.00     0.031 A 
HETATM    8  C   UNL     1      64.489   5.879   2.560  1.00  0.00     0.005 A 
ENDROOT
BRANCH   2   9
HETATM    9  N   UNL     1      61.886   8.512   2.717  1.00  0.00    -0.388 N 
HETATM   10  C   UNL     1      60.521   8.219   3.146  1.00  0.00     0.149 C 
HETATM   11  C   UNL     1      62.022   9.583   1.733  1.00  0.00     0.149 C 
ENDBRANCH   2   9
BRANCH   3  12
HETATM   12  N   UNL     1      65.619   7.240   5.813  1.00  0.00    -0.388 N 
HETATM   13  C   UNL     1      66.840   8.040   5.887  1.00  0.00     0.149 C 
HETATM   14  C   UNL     1      65.155   6.674   7.074  1.00  0.00     0.149 C 
ENDBRANCH   3  12
TORSDOF 2
ENDMDL
MODEL 4
REMARK VINA RESULT:      -4.0      1.616      3.030
REMARK  2 active torsions:
REMARK  status: ('A' for Active; 'I' for Inactive)
REMARK    1  A    between atoms: C_2  and  N_7 
REMARK    2  A    between atoms: C_3  and  N_6 
ROOT
HETATM    1  C   UNL     1      63.998   7.984   4.027  1.00  0.00     0.097 A 
HETATM    2  C   UNL     1      65.133   7.151   4.300  1.00  0.00     0.052 A 
HETATM    3  C   UNL     1      63.077   7.710   2.964  1.00  0.00     0.052 A 
HETATM    4  C   UNL     1      63.683   9.040   4.954  1.00  0.00     0.104 C 
HETATM    5  N   UNL     1      63.441   9.917   5.680  1.00  0.00    -0.191 NA
HETATM    6  C   UNL     1      65.260   5.989   3.518  1.00  0.00     0.031 A 
HETATM    7  C   UNL     1      63.289   6.523   2.239  1.00  0.00     0.031 A 
HETATM    8  C   UNL     1      64.349   5.668   2.514  1.00  0.00     0.005 A 
ENDROOT
BRANCH   2   9
HETATM    9  N   UNL     1      66.085   7.402   5.291  1.00  0.00    -0.388 N 
HETATM   10  C   UNL     1      67.416   7.933   5.005  1.00  0.00     0.149 C 
HETATM   11  C   UNL     1      65.850   6.999   6.675  1.00  0.00     0.149 C 
ENDBRANCH   2   9
BRANCH   3  12
HETATM   12  N   UNL     1      61.989   8.519   2.623  1.00  0.00    -0.388 N 
HETATM   13  C   UNL     1      62.074   9.605   1.648  1.00  0.00     0.149 C 
HETATM   14  C   UNL     1      60.657   8.239   3.146  1.00  0.00     0.149 C 
ENDBRANCH   3  12
TORSDOF 2
ENDMDL
MODEL 5
REMARK VINA RESULT:      -3.8      2.365      4.441
REMARK  2 active torsions:
REMARK  status: ('A' for Active; 'I' for Inactive)
REMARK    1  A    between atoms: C_2  and  N_7 
REMARK    2  A    between atoms: C_3  and  N_6 
ROOT
HETATM    1  C   UNL     1      61.552   7.710   4.168  1.00  0.00     0.097 A 
HETATM    2  C   UNL     1      62.418   8.736   3.665  1.00  0.00     0.052 A 
HETATM    3  C   UNL     1      61.936   6.824   5.227  1.00  0.00     0.052 A 
HETATM    4  C   UNL     1      60.189   7.674   3.703  1.00  0.00     0.104 C 
HETATM    5  N   UNL     1      59.096   7.616   3.307  1.00  0.00    -0.191 NA
HETATM    6  C   UNL     1      63.652   8.891   4.323  1.00  0.00     0.031 A 
HETATM    7  C   UNL     1      63.189   7.062   5.821  1.00  0.00     0.031 A 
HETATM    8  C   UNL     1      64.030   8.081   5.391  1.00  0.00     0.005 A 
ENDROOT
BRANCH   2   9
HETATM    9  N   UNL     1      62.109   9.590   2.604  1.00  0.00    -0.388 N 
HETATM   10  C   UNL     1      62.178   9.182   1.203  1.00  0.00     0.149 C 
HETATM   11  C   UNL     1      61.841  11.007   2.836  1.00  0.00     0.149 C 
ENDBRANCH   2   9
BRANCH   3  12
HETATM   12  N   UNL     1      61.150   5.776   5.715  1.00  0.00    -0.388 N 
HETATM   13  C   UNL     1      61.089   4.461   5.081  1.00  0.00     0.149 C 
HETATM   14  C   UNL     1      60.429   5.906   6.975  1.00  0.00     0.149 C 
ENDBRANCH   3  12
TORSDOF 2
ENDMDL
MODEL 6
REMARK VINA RESULT:      -3.7      2.252      4.422
REMARK  2 active torsions:
REMARK  status: ('A' for Active; 'I' for Inactive)
REMARK    1  A    between atoms: C_2  and  N_7 
REMARK    2  A    between atoms: C_3  and  N_6 
ROOT
HETATM    1  C   UNL     1      61.711   7.573   4.160  1.00  0.00     0.097 A 
HETATM    2  C   UNL     1      60.856   6.973   3.177  1.00  0.00     0.052 A 
HETATM    3  C   UNL     1      62.440   8.782   3.915  1.00  0.00     0.052 A 
HETATM    4  C   UNL     1      61.711   7.029   5.493  1.00  0.00     0.104 C 
HETATM    5  N   UNL     1      61.743   6.574   6.564  1.00  0.00    -0.191 NA
HETATM    6  C   UNL     1      60.697   7.680   1.971  1.00  0.00     0.031 A 
HETATM    7  C   UNL     1      62.212   9.414   2.679  1.00  0.00     0.031 A 
HETATM    8  C   UNL     1      61.350   8.886   1.726  1.00  0.00     0.005 A 
ENDROOT
BRANCH   2   9
HETATM    9  N   UNL     1      60.165   5.772   3.349  1.00  0.00    -0.388 N 
HETATM   10  C   UNL     1      60.735   4.467   3.023  1.00  0.00     0.149 C 
HETATM   11  C   UNL     1      58.755   5.767   3.731  1.00  0.00     0.149 C 
ENDBRANCH   2   9
BRANCH   3  12
HETATM   12  N   UNL     1      63.327   9.376   4.819  1.00  0.00    -0.388 N 
HETATM   13  C   UNL     1      64.652   8.835   5.111  1.00  0.00     0.149 C 
HETATM   14  C   UNL     1      63.014  10.658   5.439  1.00  0.00     0.149 C 
ENDBRANCH   3  12
TORSDOF 2
ENDMDL
MODEL 7
REMARK VINA RESULT:      -3.7      1.618      4.347
REMARK  2 active torsions:
REMARK  status: ('A' for Active; 'I' for Inactive)
REMARK    1  A    between atoms: C_2  and  N_7 
REMARK    2  A    between atoms: C_3  and  N_6 
ROOT
HETATM    1  C   UNL     1      62.845   8.257   4.138  1.00  0.00     0.097 A 
HETATM    2  C   UNL     1      62.007   9.142   3.382  1.00  0.00     0.052 A 
HETATM    3  C   UNL     1      62.686   6.833   4.112  1.00  0.00     0.052 A 
HETATM    4  C   UNL     1      63.988   8.809   4.818  1.00  0.00     0.104 C 
HETATM    5  N   UNL     1      64.894   9.251   5.400  1.00  0.00    -0.191 NA
HETATM    6  C   UNL     1      61.059   8.537   2.537  1.00  0.00     0.031 A 
HETATM    7  C   UNL     1      61.711   6.326   3.234  1.00  0.00     0.031 A 
HETATM    8  C   UNL     1      60.919   7.155   2.450  1.00  0.00     0.005 A 
ENDROOT
BRANCH   2   9
HETATM    9  N   UNL     1      62.090  10.536   3.411  1.00  0.00    -0.388 N 
HETATM   10  C   UNL     1      62.232  11.303   4.647  1.00  0.00     0.149 C 
HETATM   11  C   UNL     1      61.884  11.325   2.199  1.00  0.00     0.149 C 
ENDBRANCH   2   9
BRANCH   3  12
HETATM   12  N   UNL     1      63.440   5.933   4.871  1.00  0.00    -0.388 N 
HETATM   13  C   UNL     1      64.684   5.333   4.395  1.00  0.00     0.149 C 
HETATM   14  C   UNL     1      63.079   5.633   6.251  1.00  0.00     0.149 C 
ENDBRANCH   3  12
TORSDOF 2
ENDMDL
MODEL 8
REMARK VINA RESULT:      -3.7      2.393      3.531
REMARK  2 active torsions:
REMARK  status: ('A' for Active; 'I' for Inactive)
REMARK    1  A    between atoms: C_2  and  N_7 
REMARK    2  A    between atoms: C_3  and  N_6 
ROOT
HETATM    1  C   UNL     1      61.573   7.707   4.311  1.00  0.00     0.097 A 
HETATM    2  C   UNL     1      61.949   6.755   5.315  1.00  0.00     0.052 A 
HETATM    3  C   UNL     1      62.480   8.693   3.802  1.00  0.00     0.052 A 
HETATM    4  C   UNL     1      60.287   7.564   3.678  1.00  0.00     0.104 C 
HETATM    5  N   UNL     1      59.236   7.476   3.185  1.00  0.00    -0.191 NA
HETATM    6  C   UNL     1      63.294   6.777   5.726  1.00  0.00     0.031 A 
HETATM    7  C   UNL     1      63.803   8.631   4.275  1.00  0.00     0.031 A 
HETATM    8  C   UNL     1      64.212   7.687   5.208  1.00  0.00     0.005 A 
ENDROOT
BRANCH   2   9
HETATM    9  N   UNL     1      61.089   5.809   5.879  1.00  0.00    -0.388 N 
HETATM   10  C   UNL     1      60.363   6.031   7.127  1.00  0.00     0.149 C 
HETATM   11  C   UNL     1      60.983   4.465   5.318  1.00  0.00     0.149 C 
ENDBRANCH   2   9
BRANCH   3  12
HETATM   12  N   UNL     1      62.146   9.675   2.865  1.00  0.00    -0.388 N 
HETATM   13  C   UNL     1      61.866  11.063   3.227  1.00  0.00     0.149 C 
HETATM   14  C   UNL     1      62.178   9.387   1.436  1.00  0.00     0.149 C 
ENDBRANCH   3  12
TORSDOF 2
ENDMDL
MODEL 9
REMARK VINA RESULT:      -3.7      3.206      4.366
REMARK  2 active torsions:
REMARK  status: ('A' for Active; 'I' for Inactive)
REMARK    1  A    between atoms: C_2  and  N_7 
REMARK    2  A    between atoms: C_3  and  N_6 
ROOT
HETATM    1  C   UNL     1      61.175   6.811   5.287  1.00  0.00     0.097 A 
HETATM    2  C   UNL     1      60.191   5.903   5.800  1.00  0.00     0.052 A 
HETATM    3  C   UNL     1      61.022   7.489   4.034  1.00  0.00     0.052 A 
HETATM    4  C   UNL     1      62.279   7.178   6.136  1.00  0.00     0.104 C 
HETATM    5  N   UNL     1      63.193   7.453   6.802  1.00  0.00    -0.191 NA
HETATM    6  C   UNL     1      59.011   5.767   5.046  1.00  0.00     0.031 A 
HETATM    7  C   UNL     1      59.806   7.288   3.355  1.00  0.00     0.031 A 
HETATM    8  C   UNL     1      58.811   6.455   3.852  1.00  0.00     0.005 A 
ENDROOT
BRANCH   2   9
HETATM    9  N   UNL     1      60.316   5.182   6.990  1.00  0.00    -0.388 N 
HETATM   10  C   UNL     1      61.077   3.939   7.095  1.00  0.00     0.149 C 
HETATM   11  C   UNL     1      59.555   5.558   8.178  1.00  0.00     0.149 C 
ENDBRANCH   2   9
BRANCH   3  12
HETATM   12  N   UNL     1      61.975   8.339   3.466  1.00  0.00    -0.388 N 
HETATM   13  C   UNL     1      63.035   7.872   2.575  1.00  0.00     0.149 C 
HETATM   14  C   UNL     1      61.886   9.784   3.641  1.00  0.00     0.149 C 
ENDBRANCH   3  12
TORSDOF 2
ENDMDL
