MODEL 1
REMARK VINA RESULT:      -3.4      0.000      0.000
REMARK  1 active torsions:
REMARK  status: ('A' for Active; 'I' for Inactive)
REMARK    1  A    between atoms: N_3  and  C_5 
ROOT
HETATM    1  N   UNL     1      61.939  11.809   3.960  1.00  0.00    -0.196 NA
HETATM    2  C   UNL     1      61.991  10.668   3.749  1.00  0.00     0.086 C 
HETATM    3  C   UNL     1      62.034   9.206   3.514  1.00  0.00     0.357 C 
ENDROOT
BRANCH   3   4
HETATM    4  N   UNL     1      63.385   8.597   3.627  1.00  0.00    -0.058 N 
HETATM    5  C   UNL     1      63.298   7.160   3.283  1.00  0.00     0.246 C 
HETATM    6  C   UNL     1      64.646   6.426   3.272  1.00  0.00     0.101 C 
HETATM    7  S   UNL     1      65.443   6.446   4.903  1.00  0.00    -0.166 SA
HETATM    8  C   UNL     1      65.363   8.242   5.166  1.00  0.00     0.101 C 
HETATM    9  C   UNL     1      63.938   8.784   4.989  1.00  0.00     0.246 C 
HETATM   10  H   UNL     1      64.018   9.061   2.976  1.00  0.00     0.281 HD
ENDBRANCH   3   4
TORSDOF 1
ENDMDL
MODEL 2
REMARK VINA RESULT:      -3.3      2.961      3.525
REMARK  1 active torsions:
REMARK  status: ('A' for Active; 'I' for Inactive)
REMARK    1  A    between atoms: N_3  and  C_5 
ROOT
HETATM    1  N   UNL     1      63.209  11.017   6.189  1.00  0.00    -0.196 NA
HETATM    2  C   UNL     1      62.701  11.002   5.144  1.00  0.00     0.086 C 
HETATM    3  C   UNL     1      62.016  10.986   3.831  1.00  0.00     0.357 C 
ENDROOT
BRANCH   3   4
HETATM    4  N   UNL     1      62.200   9.736   3.049  1.00  0.00    -0.058 N 
HETATM    5  C   UNL     1      61.907  10.010   1.624  1.00  0.00     0.246 C 
HETATM    6  C   UNL     1      62.146   8.820   0.685  1.00  0.00     0.101 C 
HETATM    7  S   UNL     1      61.080   7.407   1.095  1.00  0.00    -0.166 SA
HETATM    8  C   UNL     1      61.517   7.306   2.856  1.00  0.00     0.101 C 
HETATM    9  C   UNL     1      61.333   8.653   3.570  1.00  0.00     0.246 C 
HETATM   10  H   UNL     1      63.166   9.422   3.139  1.00  0.00     0.281 HD
ENDBRANCH   3   4
TORSDOF 1
ENDMDL
MODEL 3
REMARK VINA RESULT:      -3.3      3.396      5.095
REMARK  1 active torsions:
REMARK  status: ('A' for Active; 'I' for Inactive)
REMARK    1  A    between atoms: N_3  and  C_5 
ROOT
HETATM    1  N   UNL     1      66.230   5.095   8.801  1.00  0.00    -0.196 NA
HETATM    2  C   UNL     1      66.259   5.878   7.943  1.00  0.00     0.086 C 
HETATM    3  C   UNL     1      66.321   6.901   6.873  1.00  0.00     0.357 C 
ENDROOT
BRANCH   3   4
HETATM    4  N   UNL     1      65.025   7.561   6.568  1.00  0.00    -0.058 N 
HETATM    5  C   UNL     1      63.976   6.527   6.431  1.00  0.00     0.246 C 
HETATM    6  C   UNL     1      62.563   7.081   6.203  1.00  0.00     0.101 C 
HETATM    7  S   UNL     1      62.449   8.037   4.663  1.00  0.00    -0.166 SA
HETATM    8  C   UNL     1      63.844   9.153   4.993  1.00  0.00     0.101 C 
HETATM    9  C   UNL     1      65.126   8.381   5.338  1.00  0.00     0.246 C 
HETATM   10  H   UNL     1      64.780   8.191   7.332  1.00  0.00     0.281 HD
ENDBRANCH   3   4
TORSDOF 1
ENDMDL
MODEL 4
REMARK VINA RESULT:      -3.2      3.883      5.091
REMARK  1 active torsions:
REMARK  status: ('A' for Active; 'I' for Inactive)
REMARK    1  A    between atoms: N_3  and  C_5 
ROOT
HETATM    1  N   UNL     1      64.315   8.038   5.832  1.00  0.00    -0.196 NA
HETATM    2  C   UNL     1      65.476   8.014   5.857  1.00  0.00     0.086 C 
HETATM    3  C   UNL     1      66.957   7.971   5.847  1.00  0.00     0.357 C 
ENDROOT
BRANCH   3   4
HETATM    4  N   UNL     1      67.555   6.959   6.756  1.00  0.00    -0.058 N 
HETATM    5  C   UNL     1      67.415   5.618   6.146  1.00  0.00     0.246 C 
HETATM    6  C   UNL     1      68.074   4.484   6.943  1.00  0.00     0.101 C 
HETATM    7  S   UNL     1      67.342   4.301   8.595  1.00  0.00    -0.166 SA
HETATM    8  C   UNL     1      67.528   6.033   9.112  1.00  0.00     0.101 C 
HETATM    9  C   UNL     1      66.916   7.003   8.092  1.00  0.00     0.246 C 
HETATM   10  H   UNL     1      68.545   7.167   6.887  1.00  0.00     0.281 HD
ENDBRANCH   3   4
TORSDOF 1
ENDMDL
MODEL 5
REMARK VINA RESULT:      -3.1      4.354      6.309
REMARK  1 active torsions:
REMARK  status: ('A' for Active; 'I' for Inactive)
REMARK    1  A    between atoms: N_3  and  C_5 
ROOT
HETATM    1  N   UNL     1      67.163   3.724   8.828  1.00  0.00    -0.196 NA
HETATM    2  C   UNL     1      67.276   4.880   8.804  1.00  0.00     0.086 C 
HETATM    3  C   UNL     1      67.389   6.357   8.803  1.00  0.00     0.357 C 
ENDROOT
BRANCH   3   4
HETATM    4  N   UNL     1      67.030   7.008   7.516  1.00  0.00    -0.058 N 
HETATM    5  C   UNL     1      65.593   6.780   7.244  1.00  0.00     0.246 C 
HETATM    6  C   UNL     1      65.067   7.478   5.982  1.00  0.00     0.101 C 
HETATM    7  S   UNL     1      65.904   6.889   4.482  1.00  0.00    -0.166 SA
HETATM    8  C   UNL     1      67.605   7.164   5.056  1.00  0.00     0.101 C 
HETATM    9  C   UNL     1      67.869   6.490   6.409  1.00  0.00     0.246 C 
HETATM   10  H   UNL     1      67.205   8.010   7.585  1.00  0.00     0.281 HD
ENDBRANCH   3   4
TORSDOF 1
ENDMDL
MODEL 6
REMARK VINA RESULT:      -3.1      2.895      3.839
REMARK  1 active torsions:
REMARK  status: ('A' for Active; 'I' for Inactive)
REMARK    1  A    between atoms: N_3  and  C_5 
ROOT
HETATM    1  N   UNL     1      63.989   9.164   5.385  1.00  0.00    -0.196 NA
HETATM    2  C   UNL     1      63.134   9.702   4.811  1.00  0.00     0.086 C 
HETATM    3  C   UNL     1      62.023  10.392   4.116  1.00  0.00     0.357 C 
ENDROOT
BRANCH   3   4
HETATM    4  N   UNL     1      61.312   9.565   3.106  1.00  0.00    -0.058 N 
HETATM    5  C   UNL     1      60.994   8.247   3.699  1.00  0.00     0.246 C 
HETATM    6  C   UNL     1      60.176   7.321   2.788  1.00  0.00     0.101 C 
HETATM    7  S   UNL     1      61.063   6.919   1.256  1.00  0.00    -0.166 SA
HETATM    8  C   UNL     1      61.430   8.627   0.758  1.00  0.00     0.101 C 
HETATM    9  C   UNL     1      62.126   9.412   1.878  1.00  0.00     0.246 C 
HETATM   10  H   UNL     1      60.445  10.032   2.839  1.00  0.00     0.281 HD
ENDBRANCH   3   4
TORSDOF 1
ENDMDL
MODEL 7
REMARK VINA RESULT:      -3.1      3.188      3.931
REMARK  1 active torsions:
REMARK  status: ('A' for Active; 'I' for Inactive)
REMARK    1  A    between atoms: N_3  and  C_5 
ROOT
HETATM    1  N   UNL     1      61.165   6.289   6.870  1.00  0.00    -0.196 NA
HETATM    2  C   UNL     1      62.048   6.886   6.407  1.00  0.00     0.086 C 
HETATM    3  C   UNL     1      63.170   7.622   5.781  1.00  0.00     0.357 C 
ENDROOT
BRANCH   3   4
HETATM    4  N   UNL     1      64.479   7.462   6.467  1.00  0.00    -0.058 N 
HETATM    5  C   UNL     1      65.538   8.079   5.638  1.00  0.00     0.246 C 
HETATM    6  C   UNL     1      66.934   8.063   6.274  1.00  0.00     0.101 C 
HETATM    7  S   UNL     1      67.527   6.372   6.569  1.00  0.00    -0.166 SA
HETATM    8  C   UNL     1      66.076   5.787   7.493  1.00  0.00     0.101 C 
HETATM    9  C   UNL     1      64.771   6.031   6.723  1.00  0.00     0.246 C 
HETATM   10  H   UNL     1      64.444   7.931   7.372  1.00  0.00     0.281 HD
ENDBRANCH   3   4
TORSDOF 1
ENDMDL
MODEL 8
REMARK VINA RESULT:      -3.0      1.957      2.542
REMARK  1 active torsions:
REMARK  status: ('A' for Active; 'I' for Inactive)
REMARK    1  A    between atoms: N_3  and  C_5 
ROOT
HETATM    1  N   UNL     1      62.418  10.112   3.960  1.00  0.00    -0.196 NA
HETATM    2  C   UNL     1      62.667   9.168   4.590  1.00  0.00     0.086 C 
HETATM    3  C   UNL     1      62.956   7.977   5.423  1.00  0.00     0.357 C 
ENDROOT
BRANCH   3   4
HETATM    4  N   UNL     1      64.340   7.915   5.960  1.00  0.00    -0.058 N 
HETATM    5  C   UNL     1      65.298   7.923   4.831  1.00  0.00     0.246 C 
HETATM    6  C   UNL     1      66.774   7.953   5.249  1.00  0.00     0.101 C 
HETATM    7  S   UNL     1      67.235   6.485   6.214  1.00  0.00    -0.166 SA
HETATM    8  C   UNL     1      65.914   6.612   7.454  1.00  0.00     0.101 C 
HETATM    9  C   UNL     1      64.527   6.712   6.805  1.00  0.00     0.246 C 
HETATM   10  H   UNL     1      64.509   8.729   6.550  1.00  0.00     0.281 HD
ENDBRANCH   3   4
TORSDOF 1
ENDMDL
MODEL 9
REMARK VINA RESULT:      -2.8      2.089      2.858
REMARK  1 active torsions:
REMARK  status: ('A' for Active; 'I' for Inactive)
REMARK    1  A    between atoms: N_3  and  C_5 
ROOT
HETATM    1  N   UNL     1      61.954  11.926   4.245  1.00  0.00    -0.196 NA
HETATM    2  C   UNL     1      62.370  10.867   4.479  1.00  0.00     0.086 C 
HETATM    3  C   UNL     1      62.936   9.527   4.757  1.00  0.00     0.357 C 
ENDROOT
BRANCH   3   4
HETATM    4  N   UNL     1      62.220   8.401   4.103  1.00  0.00    -0.058 N 
HETATM    5  C   UNL     1      63.155   7.265   3.936  1.00  0.00     0.246 C 
HETATM    6  C   UNL     1      62.518   5.997   3.351  1.00  0.00     0.101 C 
HETATM    7  S   UNL     1      61.856   6.278   1.684  1.00  0.00    -0.166 SA
HETATM    8  C   UNL     1      60.839   7.727   2.091  1.00  0.00     0.101 C 
HETATM    9  C   UNL     1      61.655   8.819   2.799  1.00  0.00     0.246 C 
HETATM   10  H   UNL     1      61.440   8.110   4.693  1.00  0.00     0.281 HD
ENDBRANCH   3   4
TORSDOF 1
ENDMDL
