MODEL 1
REMARK VINA RESULT:      -4.1      0.000      0.000
REMARK  1 active torsions:
REMARK  status: ('A' for Active; 'I' for Inactive)
REMARK    1  A    between atoms: C_1  and  C_7 
ROOT
HETATM    1  C   UNL     1      63.230   8.883   4.174  1.00  0.00     0.074 A 
HETATM    2  N   UNL     1      61.691  10.064   2.861  1.00  0.00    -0.357 N 
ATOM      3  HN  UNL     1      61.081  10.836   2.593  1.00  0.00     0.166 HD
HETATM    4  C   UNL     1      62.476  10.039   4.008  1.00  0.00     0.026 A 
HETATM    5  S   UNL     1      62.925   7.821   2.856  1.00  0.00    -0.072 SA
HETATM    6  C   UNL     1      61.844   8.958   2.172  1.00  0.00     0.048 A 
HETATM    7  C   UNL     1      62.403  11.242   4.882  1.00  0.00     0.070 C 
HETATM    8  C   UNL     1      61.146   8.682   0.886  1.00  0.00     0.076 C 
ENDROOT
BRANCH   1   9
HETATM    9  C   UNL     1      64.153   8.540   5.250  1.00  0.00     0.164 C 
HETATM   10  O   UNL     1      65.102   9.257   5.569  1.00  0.00    -0.292 OA
HETATM   11  C   UNL     1      63.948   7.250   6.014  1.00  0.00     0.097 C 
ENDBRANCH   1   9
TORSDOF 1
ENDMDL
MODEL 2
REMARK VINA RESULT:      -3.9      1.736      1.854
REMARK  1 active torsions:
REMARK  status: ('A' for Active; 'I' for Inactive)
REMARK    1  A    between atoms: C_1  and  C_7 
ROOT
HETATM    1  C   UNL     1      62.658   8.868   4.508  1.00  0.00     0.074 A 
HETATM    2  N   UNL     1      60.647   9.029   3.319  1.00  0.00    -0.357 N 
ATOM      3  HN  UNL     1      59.919   9.471   2.757  1.00  0.00     0.166 HD
HETATM    4  C   UNL     1      61.805   9.663   3.753  1.00  0.00     0.026 A 
HETATM    5  S   UNL     1      61.968   7.301   4.667  1.00  0.00    -0.072 SA
HETATM    6  C   UNL     1      60.619   7.784   3.732  1.00  0.00     0.048 A 
HETATM    7  C   UNL     1      61.967  11.087   3.347  1.00  0.00     0.070 C 
HETATM    8  C   UNL     1      59.514   6.836   3.423  1.00  0.00     0.076 C 
ENDROOT
BRANCH   1   9
HETATM    9  C   UNL     1      63.943   9.215   5.105  1.00  0.00     0.164 C 
HETATM   10  O   UNL     1      64.123  10.252   5.745  1.00  0.00    -0.292 OA
HETATM   11  C   UNL     1      65.112   8.269   4.938  1.00  0.00     0.097 C 
ENDBRANCH   1   9
TORSDOF 1
ENDMDL
MODEL 3
REMARK VINA RESULT:      -3.9      2.527      3.495
REMARK  1 active torsions:
REMARK  status: ('A' for Active; 'I' for Inactive)
REMARK    1  A    between atoms: C_1  and  C_7 
ROOT
HETATM    1  C   UNL     1      61.979   9.333   3.796  1.00  0.00     0.074 A 
HETATM    2  N   UNL     1      62.701   7.248   4.582  1.00  0.00    -0.357 N 
ATOM      3  HN  UNL     1      63.320   6.578   5.039  1.00  0.00     0.166 HD
HETATM    4  C   UNL     1      62.962   8.608   4.459  1.00  0.00     0.026 A 
HETATM    5  S   UNL     1      60.717   8.264   3.323  1.00  0.00    -0.072 SA
HETATM    6  C   UNL     1      61.551   6.946   4.028  1.00  0.00     0.048 A 
HETATM    7  C   UNL     1      64.239   9.089   5.053  1.00  0.00     0.070 C 
HETATM    8  C   UNL     1      60.982   5.570   4.002  1.00  0.00     0.076 C 
ENDROOT
BRANCH   1   9
HETATM    9  C   UNL     1      61.935  10.762   3.506  1.00  0.00     0.164 C 
HETATM   10  O   UNL     1      61.952  11.622   4.387  1.00  0.00    -0.292 OA
HETATM   11  C   UNL     1      61.866  11.219   2.066  1.00  0.00     0.097 C 
ENDBRANCH   1   9
TORSDOF 1
ENDMDL
MODEL 4
REMARK VINA RESULT:      -3.8      2.238      3.916
REMARK  1 active torsions:
REMARK  status: ('A' for Active; 'I' for Inactive)
REMARK    1  A    between atoms: C_1  and  C_7 
ROOT
HETATM    1  C   UNL     1      62.824   8.800   3.674  1.00  0.00     0.074 A 
HETATM    2  N   UNL     1      64.169   9.453   5.477  1.00  0.00    -0.357 N 
ATOM      3  HN  UNL     1      64.510  10.055   6.226  1.00  0.00     0.166 HD
HETATM    4  C   UNL     1      63.117   9.770   4.625  1.00  0.00     0.026 A 
HETATM    5  S   UNL     1      63.906   7.478   3.870  1.00  0.00    -0.072 SA
HETATM    6  C   UNL     1      64.662   8.274   5.183  1.00  0.00     0.048 A 
HETATM    7  C   UNL     1      62.459  11.086   4.853  1.00  0.00     0.070 C 
HETATM    8  C   UNL     1      65.792   7.644   5.921  1.00  0.00     0.076 C 
ENDROOT
BRANCH   1   9
HETATM    9  C   UNL     1      61.791   8.811   2.645  1.00  0.00     0.164 C 
HETATM   10  O   UNL     1      60.685   8.290   2.804  1.00  0.00    -0.292 OA
HETATM   11  C   UNL     1      62.075   9.486   1.321  1.00  0.00     0.097 C 
ENDBRANCH   1   9
TORSDOF 1
ENDMDL
MODEL 5
REMARK VINA RESULT:      -3.8      2.347      4.078
REMARK  1 active torsions:
REMARK  status: ('A' for Active; 'I' for Inactive)
REMARK    1  A    between atoms: C_1  and  C_7 
ROOT
HETATM    1  C   UNL     1      62.248   9.239   4.062  1.00  0.00     0.074 A 
HETATM    2  N   UNL     1      62.054   7.098   4.990  1.00  0.00    -0.357 N 
ATOM      3  HN  UNL     1      61.630   6.190   5.181  1.00  0.00     0.166 HD
HETATM    4  C   UNL     1      61.494   8.077   4.179  1.00  0.00     0.026 A 
HETATM    5  S   UNL     1      63.678   9.077   5.003  1.00  0.00    -0.072 SA
HETATM    6  C   UNL     1      63.203   7.503   5.477  1.00  0.00     0.048 A 
HETATM    7  C   UNL     1      60.185   7.744   3.553  1.00  0.00     0.070 C 
HETATM    8  C   UNL     1      64.057   6.677   6.376  1.00  0.00     0.076 C 
ENDROOT
BRANCH   1   9
HETATM    9  C   UNL     1      61.957  10.444   3.293  1.00  0.00     0.164 C 
HETATM   10  O   UNL     1      61.688  11.524   3.821  1.00  0.00    -0.292 OA
HETATM   11  C   UNL     1      61.984  10.379   1.782  1.00  0.00     0.097 C 
ENDBRANCH   1   9
TORSDOF 1
ENDMDL
MODEL 6
REMARK VINA RESULT:      -3.5      3.529      4.818
REMARK  1 active torsions:
REMARK  status: ('A' for Active; 'I' for Inactive)
REMARK    1  A    between atoms: C_1  and  C_7 
ROOT
HETATM    1  C   UNL     1      65.633   6.571   6.810  1.00  0.00     0.074 A 
HETATM    2  N   UNL     1      65.794   7.802   4.823  1.00  0.00    -0.357 N 
ATOM      3  HN  UNL     1      66.252   8.267   4.039  1.00  0.00     0.166 HD
HETATM    4  C   UNL     1      66.459   7.129   5.841  1.00  0.00     0.026 A 
HETATM    5  S   UNL     1      63.995   6.917   6.415  1.00  0.00    -0.072 SA
HETATM    6  C   UNL     1      64.496   7.757   5.011  1.00  0.00     0.048 A 
HETATM    7  C   UNL     1      67.945   7.097   5.748  1.00  0.00     0.070 C 
HETATM    8  C   UNL     1      63.506   8.377   4.088  1.00  0.00     0.076 C 
ENDROOT
BRANCH   1   9
HETATM    9  C   UNL     1      66.000   5.803   7.994  1.00  0.00     0.164 C 
HETATM   10  O   UNL     1      65.788   4.594   8.097  1.00  0.00    -0.292 OA
HETATM   11  C   UNL     1      66.670   6.509   9.152  1.00  0.00     0.097 C 
ENDBRANCH   1   9
TORSDOF 1
ENDMDL
MODEL 7
REMARK VINA RESULT:      -3.4      2.177      2.270
REMARK  1 active torsions:
REMARK  status: ('A' for Active; 'I' for Inactive)
REMARK    1  A    between atoms: C_1  and  C_7 
ROOT
HETATM    1  C   UNL     1      61.955   7.965   4.741  1.00  0.00     0.074 A 
HETATM    2  N   UNL     1      60.401   8.662   3.133  1.00  0.00    -0.357 N 
ATOM      3  HN  UNL     1      59.964   9.288   2.457  1.00  0.00     0.166 HD
HETATM    4  C   UNL     1      61.533   8.969   3.878  1.00  0.00     0.026 A 
HETATM    5  S   UNL     1      60.891   6.621   4.599  1.00  0.00    -0.072 SA
HETATM    6  C   UNL     1      59.973   7.455   3.420  1.00  0.00     0.048 A 
HETATM    7  C   UNL     1      62.130  10.313   3.645  1.00  0.00     0.070 C 
HETATM    8  C   UNL     1      58.784   6.827   2.781  1.00  0.00     0.076 C 
ENDROOT
BRANCH   1   9
HETATM    9  C   UNL     1      63.097   7.958   5.649  1.00  0.00     0.164 C 
HETATM   10  O   UNL     1      62.984   7.772   6.861  1.00  0.00    -0.292 OA
HETATM   11  C   UNL     1      64.484   8.188   5.090  1.00  0.00     0.097 C 
ENDBRANCH   1   9
TORSDOF 1
ENDMDL
MODEL 8
REMARK VINA RESULT:      -3.4      5.533      5.955
REMARK  1 active torsions:
REMARK  status: ('A' for Active; 'I' for Inactive)
REMARK    1  A    between atoms: C_1  and  C_7 
ROOT
HETATM    1  C   UNL     1      66.351   5.877   6.276  1.00  0.00     0.074 A 
HETATM    2  N   UNL     1      67.576   5.576   4.303  1.00  0.00    -0.357 N 
ATOM      3  HN  UNL     1      68.150   5.841   3.503  1.00  0.00     0.166 HD
HETATM    4  C   UNL     1      67.121   6.458   5.276  1.00  0.00     0.026 A 
HETATM    5  S   UNL     1      66.204   4.192   5.963  1.00  0.00    -0.072 SA
HETATM    6  C   UNL     1      67.163   4.357   4.555  1.00  0.00     0.048 A 
HETATM    7  C   UNL     1      67.524   7.882   5.114  1.00  0.00     0.070 C 
HETATM    8  C   UNL     1      67.492   3.180   3.704  1.00  0.00     0.076 C 
ENDROOT
BRANCH   1   9
HETATM    9  C   UNL     1      65.731   6.508   7.436  1.00  0.00     0.164 C 
HETATM   10  O   UNL     1      64.664   7.120   7.373  1.00  0.00    -0.292 OA
HETATM   11  C   UNL     1      66.418   6.413   8.781  1.00  0.00     0.097 C 
ENDBRANCH   1   9
TORSDOF 1
ENDMDL
MODEL 9
REMARK VINA RESULT:      -3.4     11.445     12.803
REMARK  1 active torsions:
REMARK  status: ('A' for Active; 'I' for Inactive)
REMARK    1  A    between atoms: C_1  and  C_7 
ROOT
HETATM    1  C   UNL     1      57.411   2.418  12.010  1.00  0.00     0.074 A 
HETATM    2  N   UNL     1      56.890   1.729  14.187  1.00  0.00    -0.357 N 
ATOM      3  HN  UNL     1      57.064   1.395  15.135  1.00  0.00     0.166 HD
HETATM    4  C   UNL     1      57.878   1.967  13.238  1.00  0.00     0.026 A 
HETATM    5  S   UNL     1      55.696   2.533  12.070  1.00  0.00    -0.072 SA
HETATM    6  C   UNL     1      55.703   1.993  13.694  1.00  0.00     0.048 A 
HETATM    7  C   UNL     1      59.279   1.712  13.670  1.00  0.00     0.070 C 
HETATM    8  C   UNL     1      54.438   1.850  14.466  1.00  0.00     0.076 C 
ENDROOT
BRANCH   1   9
HETATM    9  C   UNL     1      58.170   2.765  10.814  1.00  0.00     0.164 C 
HETATM   10  O   UNL     1      58.336   3.928  10.443  1.00  0.00    -0.292 OA
HETATM   11  C   UNL     1      58.784   1.659   9.984  1.00  0.00     0.097 C 
ENDBRANCH   1   9
TORSDOF 1
ENDMDL
