MODEL 1
REMARK VINA RESULT:      -4.6      0.000      0.000
REMARK  4 active torsions:
REMARK  status: ('A' for Active; 'I' for Inactive)
REMARK    1  A    between atoms: C_3  and  C_6 
REMARK    2  A    between atoms: C_6  and  C_8 
REMARK    3  A    between atoms: C_8  and  O_10 
REMARK    4  A    between atoms: O_10  and  C_12 
ROOT
HETATM    1  N   UNL     1      65.372   8.371   5.031  1.00  0.00    -0.357 N 
ATOM      2  HN  UNL     1      65.664   9.096   4.375  1.00  0.00     0.166 HD
HETATM    3  C   UNL     1      64.057   8.118   5.402  1.00  0.00     0.025 A 
HETATM    4  C   UNL     1      66.186   7.541   5.648  1.00  0.00     0.047 A 
HETATM    5  S   UNL     1      65.435   6.426   6.717  1.00  0.00    -0.087 SA
HETATM    6  C   UNL     1      63.911   7.102   6.329  1.00  0.00     0.077 A 
HETATM    7  C   UNL     1      67.663   7.522   5.474  1.00  0.00     0.076 C 
ENDROOT
BRANCH   3   8
HETATM    8  C   UNL     1      62.974   8.962   4.812  1.00  0.00     0.168 C 
BRANCH   8   9
HETATM    9  C   UNL     1      63.092  10.417   5.202  1.00  0.00     0.264 C 
HETATM   10  O   UNL     1      63.930  10.886   5.963  1.00  0.00    -0.265 OA
BRANCH   9  11
HETATM   11  O   UNL     1      62.173  11.159   4.515  1.00  0.00    -0.322 OA
BRANCH  11  12
HETATM   12  C   UNL     1      61.801  10.650   3.225  1.00  0.00     0.174 C 
HETATM   13  C   UNL     1      61.804  11.760   2.189  1.00  0.00     0.034 C 
ENDBRANCH  11  12
ENDBRANCH   9  11
ENDBRANCH   8   9
ENDBRANCH   3   8
TORSDOF 4
ENDMDL
MODEL 2
REMARK VINA RESULT:      -4.3      1.954      2.412
REMARK  4 active torsions:
REMARK  status: ('A' for Active; 'I' for Inactive)
REMARK    1  A    between atoms: C_3  and  C_6 
REMARK    2  A    between atoms: C_6  and  C_8 
REMARK    3  A    between atoms: C_8  and  O_10 
REMARK    4  A    between atoms: O_10  and  C_12 
ROOT
HETATM    1  N   UNL     1      65.421   7.052   7.236  1.00  0.00    -0.357 N 
ATOM      2  HN  UNL     1      64.581   7.433   7.671  1.00  0.00     0.166 HD
HETATM    3  C   UNL     1      65.622   6.933   5.866  1.00  0.00     0.025 A 
HETATM    4  C   UNL     1      66.471   6.602   7.891  1.00  0.00     0.047 A 
HETATM    5  S   UNL     1      67.747   5.995   6.914  1.00  0.00    -0.087 SA
HETATM    6  C   UNL     1      66.830   6.359   5.515  1.00  0.00     0.077 A 
HETATM    7  C   UNL     1      66.601   6.591   9.372  1.00  0.00     0.076 C 
ENDROOT
BRANCH   3   8
HETATM    8  C   UNL     1      64.537   7.386   4.944  1.00  0.00     0.168 C 
BRANCH   8   9
HETATM    9  C   UNL     1      64.255   8.866   5.057  1.00  0.00     0.264 C 
HETATM   10  O   UNL     1      64.902   9.666   5.722  1.00  0.00    -0.265 OA
BRANCH   9  11
HETATM   11  O   UNL     1      63.216   9.206   4.238  1.00  0.00    -0.322 OA
BRANCH  11  12
HETATM   12  C   UNL     1      62.465  10.364   4.634  1.00  0.00     0.174 C 
HETATM   13  C   UNL     1      61.952  11.112   3.417  1.00  0.00     0.034 C 
ENDBRANCH  11  12
ENDBRANCH   9  11
ENDBRANCH   8   9
ENDBRANCH   3   8
TORSDOF 4
ENDMDL
MODEL 3
REMARK VINA RESULT:      -4.3      2.959      5.317
REMARK  4 active torsions:
REMARK  status: ('A' for Active; 'I' for Inactive)
REMARK    1  A    between atoms: C_3  and  C_6 
REMARK    2  A    between atoms: C_6  and  C_8 
REMARK    3  A    between atoms: C_8  and  O_10 
REMARK    4  A    between atoms: O_10  and  C_12 
ROOT
HETATM    1  N   UNL     1      64.050   9.318   5.327  1.00  0.00    -0.357 N 
ATOM      2  HN  UNL     1      64.612   9.610   6.128  1.00  0.00     0.166 HD
HETATM    3  C   UNL     1      64.231   8.137   4.619  1.00  0.00     0.025 A 
HETATM    4  C   UNL     1      63.051  10.007   4.816  1.00  0.00     0.047 A 
HETATM    5  S   UNL     1      62.284   9.295   3.454  1.00  0.00    -0.087 SA
HETATM    6  C   UNL     1      63.366   7.972   3.553  1.00  0.00     0.077 A 
HETATM    7  C   UNL     1      62.575  11.315   5.337  1.00  0.00     0.076 C 
ENDROOT
BRANCH   3   8
HETATM    8  C   UNL     1      65.328   7.213   5.041  1.00  0.00     0.168 C 
BRANCH   8   9
HETATM    9  C   UNL     1      66.058   7.698   6.272  1.00  0.00     0.264 C 
HETATM   10  O   UNL     1      67.001   8.480   6.279  1.00  0.00    -0.265 OA
BRANCH   9  11
HETATM   11  O   UNL     1      65.459   7.202   7.395  1.00  0.00    -0.322 OA
BRANCH  11  12
HETATM   12  C   UNL     1      66.124   6.092   8.017  1.00  0.00     0.174 C 
HETATM   13  C   UNL     1      66.819   6.530   9.293  1.00  0.00     0.034 C 
ENDBRANCH  11  12
ENDBRANCH   9  11
ENDBRANCH   8   9
ENDBRANCH   3   8
TORSDOF 4
ENDMDL
MODEL 4
REMARK VINA RESULT:      -4.2      2.805      5.276
REMARK  4 active torsions:
REMARK  status: ('A' for Active; 'I' for Inactive)
REMARK    1  A    between atoms: C_3  and  C_6 
REMARK    2  A    between atoms: C_6  and  C_8 
REMARK    3  A    between atoms: C_8  and  O_10 
REMARK    4  A    between atoms: O_10  and  C_12 
ROOT
HETATM    1  N   UNL     1      62.463  10.012   3.544  1.00  0.00    -0.357 N 
ATOM      2  HN  UNL     1      62.536  10.613   4.366  1.00  0.00     0.166 HD
HETATM    3  C   UNL     1      62.784   8.660   3.518  1.00  0.00     0.025 A 
HETATM    4  C   UNL     1      62.052  10.405   2.357  1.00  0.00     0.047 A 
HETATM    5  S   UNL     1      62.043   9.194   1.140  1.00  0.00    -0.087 SA
HETATM    6  C   UNL     1      62.632   8.062   2.281  1.00  0.00     0.077 A 
HETATM    7  C   UNL     1      61.616  11.789   2.031  1.00  0.00     0.076 C 
ENDROOT
BRANCH   3   8
HETATM    8  C   UNL     1      63.280   8.020   4.774  1.00  0.00     0.168 C 
BRANCH   8   9
HETATM    9  C   UNL     1      64.536   8.671   5.304  1.00  0.00     0.264 C 
HETATM   10  O   UNL     1      64.633   9.832   5.681  1.00  0.00    -0.265 OA
BRANCH   9  11
HETATM   11  O   UNL     1      65.540   7.748   5.384  1.00  0.00    -0.322 OA
BRANCH  11  12
HETATM   12  C   UNL     1      66.548   8.009   6.374  1.00  0.00     0.174 C 
HETATM   13  C   UNL     1      66.434   7.027   7.525  1.00  0.00     0.034 C 
ENDBRANCH  11  12
ENDBRANCH   9  11
ENDBRANCH   8   9
ENDBRANCH   3   8
TORSDOF 4
ENDMDL
MODEL 5
REMARK VINA RESULT:      -3.9      3.060      5.145
REMARK  4 active torsions:
REMARK  status: ('A' for Active; 'I' for Inactive)
REMARK    1  A    between atoms: C_3  and  C_6 
REMARK    2  A    between atoms: C_6  and  C_8 
REMARK    3  A    between atoms: C_8  and  O_10 
REMARK    4  A    between atoms: O_10  and  C_12 
ROOT
HETATM    1  N   UNL     1      62.629   8.802   2.944  1.00  0.00    -0.357 N 
ATOM      2  HN  UNL     1      62.940   7.831   2.984  1.00  0.00     0.166 HD
HETATM    3  C   UNL     1      62.569   9.663   4.033  1.00  0.00     0.025 A 
HETATM    4  C   UNL     1      62.226   9.420   1.853  1.00  0.00     0.047 A 
HETATM    5  S   UNL     1      61.735  11.052   2.067  1.00  0.00    -0.087 SA
HETATM    6  C   UNL     1      62.086  10.925   3.737  1.00  0.00     0.077 A 
HETATM    7  C   UNL     1      62.173   8.800   0.503  1.00  0.00     0.076 C 
ENDROOT
BRANCH   3   8
HETATM    8  C   UNL     1      62.982   9.147   5.373  1.00  0.00     0.168 C 
BRANCH   8   9
HETATM    9  C   UNL     1      64.390   8.598   5.379  1.00  0.00     0.264 C 
HETATM   10  O   UNL     1      65.389   9.202   5.750  1.00  0.00    -0.265 OA
BRANCH   9  11
HETATM   11  O   UNL     1      64.381   7.290   4.987  1.00  0.00    -0.322 OA
BRANCH  11  12
HETATM   12  C   UNL     1      63.874   6.354   5.951  1.00  0.00     0.174 C 
HETATM   13  C   UNL     1      65.000   5.803   6.806  1.00  0.00     0.034 C 
ENDBRANCH  11  12
ENDBRANCH   9  11
ENDBRANCH   8   9
ENDBRANCH   3   8
TORSDOF 4
ENDMDL
MODEL 6
REMARK VINA RESULT:      -3.9      3.616      5.096
REMARK  4 active torsions:
REMARK  status: ('A' for Active; 'I' for Inactive)
REMARK    1  A    between atoms: C_3  and  C_6 
REMARK    2  A    between atoms: C_6  and  C_8 
REMARK    3  A    between atoms: C_8  and  O_10 
REMARK    4  A    between atoms: O_10  and  C_12 
ROOT
HETATM    1  N   UNL     1      59.836   8.405   2.740  1.00  0.00    -0.357 N 
ATOM      2  HN  UNL     1      59.284   9.250   2.595  1.00  0.00     0.166 HD
HETATM    3  C   UNL     1      61.173   8.260   2.391  1.00  0.00     0.025 A 
HETATM    4  C   UNL     1      59.386   7.295   3.286  1.00  0.00     0.047 A 
HETATM    5  S   UNL     1      60.522   6.011   3.395  1.00  0.00    -0.087 SA
HETATM    6  C   UNL     1      61.701   7.010   2.660  1.00  0.00     0.077 A 
HETATM    7  C   UNL     1      57.999   7.103   3.788  1.00  0.00     0.076 C 
ENDROOT
BRANCH   3   8
HETATM    8  C   UNL     1      61.872   9.414   1.748  1.00  0.00     0.168 C 
BRANCH   8   9
HETATM    9  C   UNL     1      61.858  10.656   2.608  1.00  0.00     0.264 C 
HETATM   10  O   UNL     1      62.011  11.803   2.206  1.00  0.00    -0.265 OA
BRANCH   9  11
HETATM   11  O   UNL     1      61.564  10.325   3.900  1.00  0.00    -0.322 OA
BRANCH  11  12
HETATM   12  C   UNL     1      62.694  10.095   4.757  1.00  0.00     0.174 C 
HETATM   13  C   UNL     1      62.912  11.275   5.686  1.00  0.00     0.034 C 
ENDBRANCH  11  12
ENDBRANCH   9  11
ENDBRANCH   8   9
ENDBRANCH   3   8
TORSDOF 4
ENDMDL
MODEL 7
REMARK VINA RESULT:      -3.9      3.041      4.728
REMARK  4 active torsions:
REMARK  status: ('A' for Active; 'I' for Inactive)
REMARK    1  A    between atoms: C_3  and  C_6 
REMARK    2  A    between atoms: C_6  and  C_8 
REMARK    3  A    between atoms: C_8  and  O_10 
REMARK    4  A    between atoms: O_10  and  C_12 
ROOT
HETATM    1  N   UNL     1      62.899   8.030   3.103  1.00  0.00    -0.357 N 
ATOM      2  HN  UNL     1      63.274   7.434   3.840  1.00  0.00     0.166 HD
HETATM    3  C   UNL     1      62.507   9.352   3.272  1.00  0.00     0.025 A 
HETATM    4  C   UNL     1      62.716   7.657   1.853  1.00  0.00     0.047 A 
HETATM    5  S   UNL     1      62.049   8.853   0.816  1.00  0.00    -0.087 SA
HETATM    6  C   UNL     1      62.001   9.948   2.131  1.00  0.00     0.077 A 
HETATM    7  C   UNL     1      63.041   6.309   1.318  1.00  0.00     0.076 C 
ENDROOT
BRANCH   3   8
HETATM    8  C   UNL     1      62.631   9.965   4.630  1.00  0.00     0.168 C 
BRANCH   8   9
HETATM    9  C   UNL     1      63.400   9.093   5.594  1.00  0.00     0.264 C 
HETATM   10  O   UNL     1      62.917   8.231   6.318  1.00  0.00    -0.265 OA
BRANCH   9  11
HETATM   11  O   UNL     1      64.738   9.346   5.485  1.00  0.00    -0.322 OA
BRANCH  11  12
HETATM   12  C   UNL     1      65.585   8.190   5.386  1.00  0.00     0.174 C 
HETATM   13  C   UNL     1      66.604   8.174   6.510  1.00  0.00     0.034 C 
ENDBRANCH  11  12
ENDBRANCH   9  11
ENDBRANCH   8   9
ENDBRANCH   3   8
TORSDOF 4
ENDMDL
MODEL 8
REMARK VINA RESULT:      -3.8      2.991      5.396
REMARK  4 active torsions:
REMARK  status: ('A' for Active; 'I' for Inactive)
REMARK    1  A    between atoms: C_3  and  C_6 
REMARK    2  A    between atoms: C_6  and  C_8 
REMARK    3  A    between atoms: C_8  and  O_10 
REMARK    4  A    between atoms: O_10  and  C_12 
ROOT
HETATM    1  N   UNL     1      63.302   8.389   3.377  1.00  0.00    -0.357 N 
ATOM      2  HN  UNL     1      63.656   7.530   2.953  1.00  0.00     0.166 HD
HETATM    3  C   UNL     1      63.697   8.887   4.612  1.00  0.00     0.025 A 
HETATM    4  C   UNL     1      62.405   9.183   2.831  1.00  0.00     0.047 A 
HETATM    5  S   UNL     1      61.968  10.556   3.766  1.00  0.00    -0.087 SA
HETATM    6  C   UNL     1      63.056  10.053   4.988  1.00  0.00     0.077 A 
HETATM    7  C   UNL     1      61.775   8.958   1.503  1.00  0.00     0.076 C 
ENDROOT
BRANCH   3   8
HETATM    8  C   UNL     1      64.712   8.122   5.398  1.00  0.00     0.168 C 
BRANCH   8   9
HETATM    9  C   UNL     1      64.090   7.263   6.474  1.00  0.00     0.264 C 
HETATM   10  O   UNL     1      62.924   7.321   6.847  1.00  0.00    -0.265 OA
BRANCH   9  11
HETATM   11  O   UNL     1      64.996   6.343   6.919  1.00  0.00    -0.322 OA
BRANCH  11  12
HETATM   12  C   UNL     1      66.213   6.880   7.462  1.00  0.00     0.174 C 
HETATM   13  C   UNL     1      66.419   6.403   8.888  1.00  0.00     0.034 C 
ENDBRANCH  11  12
ENDBRANCH   9  11
ENDBRANCH   8   9
ENDBRANCH   3   8
TORSDOF 4
ENDMDL
MODEL 9
REMARK VINA RESULT:      -3.6      2.470      3.607
REMARK  4 active torsions:
REMARK  status: ('A' for Active; 'I' for Inactive)
REMARK    1  A    between atoms: C_3  and  C_6 
REMARK    2  A    between atoms: C_6  and  C_8 
REMARK    3  A    between atoms: C_8  and  O_10 
REMARK    4  A    between atoms: O_10  and  C_12 
ROOT
HETATM    1  N   UNL     1      65.636   7.413   7.200  1.00  0.00    -0.357 N 
ATOM      2  HN  UNL     1      65.154   7.972   7.904  1.00  0.00     0.166 HD
HETATM    3  C   UNL     1      65.548   7.615   5.828  1.00  0.00     0.025 A 
HETATM    4  C   UNL     1      66.430   6.396   7.460  1.00  0.00     0.047 A 
HETATM    5  S   UNL     1      67.101   5.612   6.086  1.00  0.00    -0.087 SA
HETATM    6  C   UNL     1      66.269   6.711   5.070  1.00  0.00     0.077 A 
HETATM    7  C   UNL     1      66.760   5.910   8.826  1.00  0.00     0.076 C 
ENDROOT
BRANCH   3   8
HETATM    8  C   UNL     1      64.684   8.726   5.325  1.00  0.00     0.168 C 
BRANCH   8   9
HETATM    9  C   UNL     1      63.213   8.383   5.359  1.00  0.00     0.264 C 
HETATM   10  O   UNL     1      62.415   8.576   4.450  1.00  0.00    -0.265 OA
BRANCH   9  11
HETATM   11  O   UNL     1      62.911   7.742   6.527  1.00  0.00    -0.322 OA
BRANCH  11  12
HETATM   12  C   UNL     1      61.964   6.668   6.422  1.00  0.00     0.174 C 
HETATM   13  C   UNL     1      62.674   5.351   6.163  1.00  0.00     0.034 C 
ENDBRANCH  11  12
ENDBRANCH   9  11
ENDBRANCH   8   9
ENDBRANCH   3   8
TORSDOF 4
ENDMDL
