MODEL 1
REMARK VINA RESULT:      -3.7      0.000      0.000
REMARK  1 active torsions:
REMARK  status: ('A' for Active; 'I' for Inactive)
REMARK    1  A    between atoms: C_3  and  C_7 
ROOT
HETATM    1  N   UNL     1      64.436   9.232   5.521  1.00  0.00    -0.357 N 
ATOM      2  HN  UNL     1      64.948   9.658   6.294  1.00  0.00     0.166 HD
HETATM    3  C   UNL     1      64.774   8.028   4.917  1.00  0.00     0.024 A 
HETATM    4  C   UNL     1      63.366   9.749   4.959  1.00  0.00     0.047 A 
HETATM    5  S   UNL     1      62.696   8.834   3.671  1.00  0.00    -0.087 SA
HETATM    6  C   UNL     1      63.926   7.662   3.884  1.00  0.00     0.077 A 
HETATM    7  C   UNL     1      62.735  11.031   5.371  1.00  0.00     0.076 C 
ENDROOT
BRANCH   3   8
HETATM    8  C   UNL     1      65.980   7.249   5.422  1.00  0.00    -0.008 C 
HETATM    9  C   UNL     1      65.555   5.929   6.098  1.00  0.00     0.021 C 
HETATM   10  C   UNL     1      66.915   6.902   4.245  1.00  0.00     0.021 C 
HETATM   11  C   UNL     1      66.763   8.082   6.456  1.00  0.00     0.021 C 
ENDBRANCH   3   8
TORSDOF 1
ENDMDL
MODEL 2
REMARK VINA RESULT:      -3.7      2.350      4.117
REMARK  1 active torsions:
REMARK  status: ('A' for Active; 'I' for Inactive)
REMARK    1  A    between atoms: C_3  and  C_7 
ROOT
HETATM    1  N   UNL     1      65.030   7.280   6.963  1.00  0.00    -0.357 N 
ATOM      2  HN  UNL     1      64.232   7.266   7.598  1.00  0.00     0.166 HD
HETATM    3  C   UNL     1      64.967   7.630   5.621  1.00  0.00     0.024 A 
HETATM    4  C   UNL     1      66.262   6.968   7.304  1.00  0.00     0.047 A 
HETATM    5  S   UNL     1      67.422   7.069   6.044  1.00  0.00    -0.087 SA
HETATM    6  C   UNL     1      66.188   7.566   4.967  1.00  0.00     0.077 A 
HETATM    7  C   UNL     1      66.677   6.555   8.671  1.00  0.00     0.076 C 
ENDROOT
BRANCH   3   8
HETATM    8  C   UNL     1      63.633   8.041   5.015  1.00  0.00    -0.008 C 
HETATM    9  C   UNL     1      63.537   7.631   3.531  1.00  0.00     0.021 C 
HETATM   10  C   UNL     1      62.477   7.358   5.775  1.00  0.00     0.021 C 
HETATM   11  C   UNL     1      63.454   9.570   5.099  1.00  0.00     0.021 C 
ENDBRANCH   3   8
TORSDOF 1
ENDMDL
MODEL 3
REMARK VINA RESULT:      -3.7      2.046      2.434
REMARK  1 active torsions:
REMARK  status: ('A' for Active; 'I' for Inactive)
REMARK    1  A    between atoms: C_3  and  C_7 
ROOT
HETATM    1  N   UNL     1      63.146   8.290   3.033  1.00  0.00    -0.357 N 
ATOM      2  HN  UNL     1      63.446   7.503   2.457  1.00  0.00     0.166 HD
HETATM    3  C   UNL     1      63.536   8.499   4.349  1.00  0.00     0.024 A 
HETATM    4  C   UNL     1      62.337   9.245   2.631  1.00  0.00     0.047 A 
HETATM    5  S   UNL     1      61.986  10.452   3.799  1.00  0.00    -0.087 SA
HETATM    6  C   UNL     1      62.991   9.637   4.921  1.00  0.00     0.077 A 
HETATM    7  C   UNL     1      61.742   9.327   1.271  1.00  0.00     0.076 C 
ENDROOT
BRANCH   3   8
HETATM    8  C   UNL     1      64.488   7.515   5.015  1.00  0.00    -0.008 C 
HETATM    9  C   UNL     1      63.791   6.737   6.150  1.00  0.00     0.021 C 
HETATM   10  C   UNL     1      64.998   6.493   3.979  1.00  0.00     0.021 C 
HETATM   11  C   UNL     1      65.694   8.261   5.620  1.00  0.00     0.021 C 
ENDBRANCH   3   8
TORSDOF 1
ENDMDL
MODEL 4
REMARK VINA RESULT:      -3.6      4.517      5.780
REMARK  1 active torsions:
REMARK  status: ('A' for Active; 'I' for Inactive)
REMARK    1  A    between atoms: C_3  and  C_7 
ROOT
HETATM    1  N   UNL     1      59.935   8.163   3.161  1.00  0.00    -0.357 N 
ATOM      2  HN  UNL     1      60.418   8.457   4.010  1.00  0.00     0.166 HD
HETATM    3  C   UNL     1      60.460   8.258   1.879  1.00  0.00     0.024 A 
HETATM    4  C   UNL     1      58.727   7.644   3.131  1.00  0.00     0.047 A 
HETATM    5  S   UNL     1      58.140   7.238   1.571  1.00  0.00    -0.087 SA
HETATM    6  C   UNL     1      59.608   7.797   0.889  1.00  0.00     0.077 A 
HETATM    7  C   UNL     1      57.887   7.398   4.333  1.00  0.00     0.076 C 
ENDROOT
BRANCH   3   8
HETATM    8  C   UNL     1      61.860   8.823   1.682  1.00  0.00    -0.008 C 
HETATM    9  C   UNL     1      62.406   8.499   0.276  1.00  0.00     0.021 C 
HETATM   10  C   UNL     1      61.837  10.356   1.844  1.00  0.00     0.021 C 
HETATM   11  C   UNL     1      62.831   8.223   2.719  1.00  0.00     0.021 C 
ENDBRANCH   3   8
TORSDOF 1
ENDMDL
MODEL 5
REMARK VINA RESULT:      -3.6      3.849      5.095
REMARK  1 active torsions:
REMARK  status: ('A' for Active; 'I' for Inactive)
REMARK    1  A    between atoms: C_3  and  C_7 
ROOT
HETATM    1  N   UNL     1      59.729   8.283   3.362  1.00  0.00    -0.357 N 
ATOM      2  HN  UNL     1      59.426   9.061   2.775  1.00  0.00     0.166 HD
HETATM    3  C   UNL     1      61.044   8.039   3.736  1.00  0.00     0.024 A 
HETATM    4  C   UNL     1      58.925   7.374   3.869  1.00  0.00     0.047 A 
HETATM    5  S   UNL     1      59.689   6.167   4.821  1.00  0.00    -0.087 SA
HETATM    6  C   UNL     1      61.200   6.918   4.534  1.00  0.00     0.077 A 
HETATM    7  C   UNL     1      57.452   7.346   3.669  1.00  0.00     0.076 C 
ENDROOT
BRANCH   3   8
HETATM    8  C   UNL     1      62.143   8.982   3.268  1.00  0.00    -0.008 C 
HETATM    9  C   UNL     1      61.908  10.419   3.776  1.00  0.00     0.021 C 
HETATM   10  C   UNL     1      63.509   8.505   3.801  1.00  0.00     0.021 C 
HETATM   11  C   UNL     1      62.193   9.024   1.727  1.00  0.00     0.021 C 
ENDBRANCH   3   8
TORSDOF 1
ENDMDL
MODEL 6
REMARK VINA RESULT:      -3.5      2.485      4.246
REMARK  1 active torsions:
REMARK  status: ('A' for Active; 'I' for Inactive)
REMARK    1  A    between atoms: C_3  and  C_7 
ROOT
HETATM    1  N   UNL     1      62.411   9.538   3.599  1.00  0.00    -0.357 N 
ATOM      2  HN  UNL     1      61.681  10.146   3.226  1.00  0.00     0.166 HD
HETATM    3  C   UNL     1      62.817   8.343   3.020  1.00  0.00     0.024 A 
HETATM    4  C   UNL     1      63.097   9.780   4.695  1.00  0.00     0.047 A 
HETATM    5  S   UNL     1      64.267   8.595   5.107  1.00  0.00    -0.087 SA
HETATM    6  C   UNL     1      63.824   7.696   3.719  1.00  0.00     0.077 A 
HETATM    7  C   UNL     1      62.916  10.982   5.552  1.00  0.00     0.076 C 
ENDROOT
BRANCH   3   8
HETATM    8  C   UNL     1      62.161   7.874   1.730  1.00  0.00    -0.008 C 
HETATM    9  C   UNL     1      62.883   6.643   1.145  1.00  0.00     0.021 C 
HETATM   10  C   UNL     1      60.692   7.484   1.996  1.00  0.00     0.021 C 
HETATM   11  C   UNL     1      62.198   8.994   0.671  1.00  0.00     0.021 C 
ENDBRANCH   3   8
TORSDOF 1
ENDMDL
MODEL 7
REMARK VINA RESULT:      -3.5      2.533      4.539
REMARK  1 active torsions:
REMARK  status: ('A' for Active; 'I' for Inactive)
REMARK    1  A    between atoms: C_3  and  C_7 
ROOT
HETATM    1  N   UNL     1      63.746   8.080   3.642  1.00  0.00    -0.357 N 
ATOM      2  HN  UNL     1      64.236   7.285   3.233  1.00  0.00     0.166 HD
HETATM    3  C   UNL     1      62.600   8.660   3.114  1.00  0.00     0.024 A 
HETATM    4  C   UNL     1      64.113   8.697   4.744  1.00  0.00     0.047 A 
HETATM    5  S   UNL     1      63.117  10.011   5.218  1.00  0.00    -0.087 SA
HETATM    6  C   UNL     1      62.124   9.732   3.852  1.00  0.00     0.077 A 
HETATM    7  C   UNL     1      65.296   8.323   5.564  1.00  0.00     0.076 C 
ENDROOT
BRANCH   3   8
HETATM    8  C   UNL     1      61.991   8.092   1.840  1.00  0.00    -0.008 C 
HETATM    9  C   UNL     1      62.197   9.044   0.644  1.00  0.00     0.021 C 
HETATM   10  C   UNL     1      62.654   6.742   1.496  1.00  0.00     0.021 C 
HETATM   11  C   UNL     1      60.476   7.875   2.020  1.00  0.00     0.021 C 
ENDBRANCH   3   8
TORSDOF 1
ENDMDL
MODEL 8
REMARK VINA RESULT:      -3.5      1.887      4.007
REMARK  1 active torsions:
REMARK  status: ('A' for Active; 'I' for Inactive)
REMARK    1  A    between atoms: C_3  and  C_7 
ROOT
HETATM    1  N   UNL     1      64.558   8.634   5.284  1.00  0.00    -0.357 N 
ATOM      2  HN  UNL     1      64.241   9.432   5.834  1.00  0.00     0.166 HD
HETATM    3  C   UNL     1      63.874   8.097   4.201  1.00  0.00     0.024 A 
HETATM    4  C   UNL     1      65.672   7.970   5.505  1.00  0.00     0.047 A 
HETATM    5  S   UNL     1      65.972   6.661   4.437  1.00  0.00    -0.087 SA
HETATM    6  C   UNL     1      64.508   7.009   3.622  1.00  0.00     0.077 A 
HETATM    7  C   UNL     1      66.642   8.290   6.586  1.00  0.00     0.076 C 
ENDROOT
BRANCH   3   8
HETATM    8  C   UNL     1      62.559   8.723   3.761  1.00  0.00    -0.008 C 
HETATM    9  C   UNL     1      61.353   7.862   4.190  1.00  0.00     0.021 C 
HETATM   10  C   UNL     1      62.399  10.118   4.398  1.00  0.00     0.021 C 
HETATM   11  C   UNL     1      62.519   8.865   2.226  1.00  0.00     0.021 C 
ENDBRANCH   3   8
TORSDOF 1
ENDMDL
MODEL 9
REMARK VINA RESULT:      -3.3      1.522      1.994
REMARK  1 active torsions:
REMARK  status: ('A' for Active; 'I' for Inactive)
REMARK    1  A    between atoms: C_3  and  C_7 
ROOT
HETATM    1  N   UNL     1      64.843   8.185   4.617  1.00  0.00    -0.357 N 
ATOM      2  HN  UNL     1      65.380   8.753   3.961  1.00  0.00     0.166 HD
HETATM    3  C   UNL     1      65.326   7.055   5.264  1.00  0.00     0.024 A 
HETATM    4  C   UNL     1      63.598   8.423   4.966  1.00  0.00     0.047 A 
HETATM    5  S   UNL     1      62.923   7.312   6.086  1.00  0.00    -0.087 SA
HETATM    6  C   UNL     1      64.403   6.453   6.104  1.00  0.00     0.077 A 
HETATM    7  C   UNL     1      62.786   9.563   4.463  1.00  0.00     0.076 C 
ENDROOT
BRANCH   3   8
HETATM    8  C   UNL     1      66.758   6.603   5.014  1.00  0.00    -0.008 C 
HETATM    9  C   UNL     1      66.877   5.813   3.694  1.00  0.00     0.021 C 
HETATM   10  C   UNL     1      67.690   7.828   4.923  1.00  0.00     0.021 C 
HETATM   11  C   UNL     1      67.239   5.690   6.159  1.00  0.00     0.021 C 
ENDBRANCH   3   8
TORSDOF 1
ENDMDL
