MODEL 1
REMARK VINA RESULT:      -6.1      0.000      0.000
REMARK  2 active torsions:
REMARK  status: ('A' for Active; 'I' for Inactive)
REMARK    1  A    between atoms: C_1  and  C_2 
REMARK    2  A    between atoms: C_1  and  C_5 
ROOT
HETATM    1  C   UNL     1      63.507   7.765   5.820  1.00  0.00     0.163 C 
HETATM    2  O   UNL     1      62.974   7.626   6.913  1.00  0.00    -0.292 OA
ENDROOT
BRANCH   1   3
HETATM    3  C   UNL     1      62.986   8.856   4.929  1.00  0.00     0.010 A 
HETATM    4  C   UNL     1      62.872  10.195   5.355  1.00  0.00     0.018 A 
HETATM    5  C   UNL     1      62.383  11.182   4.488  1.00  0.00     0.043 A 
HETATM    6  C   UNL     1      61.990  10.850   3.191  1.00  0.00     0.116 A 
HETATM    7  C   UNL     1      62.074   9.527   2.759  1.00  0.00     0.043 A 
HETATM    8  F   UNL     1      61.518  11.808   2.354  1.00  0.00    -0.206 F 
HETATM    9  C   UNL     1      62.569   8.539   3.616  1.00  0.00     0.018 A 
ENDBRANCH   1   3
BRANCH   1  10
HETATM   10  C   UNL     1      64.726   6.904   5.474  1.00  0.00     0.064 C 
HETATM   11  C   UNL     1      65.143   5.885   6.566  1.00  0.00     0.040 C 
HETATM   12  C   UNL     1      65.838   6.553   7.765  1.00  0.00     0.233 C 
HETATM   13  N   UNL     1      66.993   7.344   7.322  1.00  0.00    -0.075 N 
HETATM   14  C   UNL     1      66.577   8.396   6.388  1.00  0.00     0.233 C 
HETATM   15  H   UNL     1      67.661   6.729   6.857  1.00  0.00     0.277 HD
HETATM   16  H   UNL     1      67.421   7.782   8.137  1.00  0.00     0.277 HD
HETATM   17  C   UNL     1      65.971   7.757   5.127  1.00  0.00     0.040 C 
ENDBRANCH   1  10
TORSDOF 2
ENDMDL
MODEL 2
REMARK VINA RESULT:      -6.1      0.056      1.249
REMARK  2 active torsions:
REMARK  status: ('A' for Active; 'I' for Inactive)
REMARK    1  A    between atoms: C_1  and  C_2 
REMARK    2  A    between atoms: C_1  and  C_5 
ROOT
HETATM    1  C   UNL     1      63.534   7.732   5.825  1.00  0.00     0.163 C 
HETATM    2  O   UNL     1      63.003   7.616   6.921  1.00  0.00    -0.292 OA
ENDROOT
BRANCH   1   3
HETATM    3  C   UNL     1      63.000   8.790   4.904  1.00  0.00     0.010 A 
HETATM    4  C   UNL     1      62.604   8.515   3.579  1.00  0.00     0.018 A 
HETATM    5  C   UNL     1      62.108   9.533   2.754  1.00  0.00     0.043 A 
HETATM    6  C   UNL     1      62.008  10.841   3.230  1.00  0.00     0.116 A 
HETATM    7  C   UNL     1      62.415  11.138   4.529  1.00  0.00     0.043 A 
HETATM    8  F   UNL     1      61.527  11.824   2.429  1.00  0.00    -0.206 F 
HETATM    9  C   UNL     1      62.904  10.125   5.360  1.00  0.00     0.018 A 
ENDBRANCH   1   3
BRANCH   1  10
HETATM   10  C   UNL     1      64.766   6.880   5.504  1.00  0.00     0.064 C 
HETATM   11  C   UNL     1      65.184   5.881   6.615  1.00  0.00     0.040 C 
HETATM   12  C   UNL     1      65.860   6.575   7.810  1.00  0.00     0.233 C 
HETATM   13  N   UNL     1      67.010   7.372   7.367  1.00  0.00    -0.075 N 
HETATM   14  C   UNL     1      66.592   8.405   6.413  1.00  0.00     0.233 C 
HETATM   15  H   UNL     1      67.689   6.757   6.917  1.00  0.00     0.277 HD
HETATM   16  H   UNL     1      67.426   7.827   8.179  1.00  0.00     0.277 HD
HETATM   17  C   UNL     1      66.005   7.740   5.155  1.00  0.00     0.040 C 
ENDBRANCH   1  10
TORSDOF 2
ENDMDL
MODEL 3
REMARK VINA RESULT:      -5.3      1.365      2.347
REMARK  2 active torsions:
REMARK  status: ('A' for Active; 'I' for Inactive)
REMARK    1  A    between atoms: C_1  and  C_2 
REMARK    2  A    between atoms: C_1  and  C_5 
ROOT
HETATM    1  C   UNL     1      64.575   7.788   5.973  1.00  0.00     0.163 C 
HETATM    2  O   UNL     1      63.979   7.223   6.880  1.00  0.00    -0.292 OA
ENDROOT
BRANCH   1   3
HETATM    3  C   UNL     1      63.755   8.339   4.843  1.00  0.00     0.010 A 
HETATM    4  C   UNL     1      63.595   7.661   3.618  1.00  0.00     0.018 A 
HETATM    5  C   UNL     1      62.818   8.211   2.590  1.00  0.00     0.043 A 
HETATM    6  C   UNL     1      62.198   9.449   2.760  1.00  0.00     0.116 A 
HETATM    7  C   UNL     1      62.362  10.147   3.956  1.00  0.00     0.043 A 
HETATM    8  F   UNL     1      61.445   9.980   1.764  1.00  0.00    -0.206 F 
HETATM    9  C   UNL     1      63.130   9.599   4.989  1.00  0.00     0.018 A 
ENDBRANCH   1   3
BRANCH   1  10
HETATM   10  C   UNL     1      66.088   7.995   6.095  1.00  0.00     0.064 C 
HETATM   11  C   UNL     1      66.891   7.769   4.787  1.00  0.00     0.040 C 
HETATM   12  C   UNL     1      67.029   6.280   4.428  1.00  0.00     0.233 C 
HETATM   13  N   UNL     1      67.624   5.529   5.540  1.00  0.00    -0.075 N 
HETATM   14  C   UNL     1      66.792   5.635   6.744  1.00  0.00     0.233 C 
HETATM   15  H   UNL     1      68.551   5.906   5.740  1.00  0.00     0.277 HD
HETATM   16  H   UNL     1      67.689   4.547   5.274  1.00  0.00     0.277 HD
HETATM   17  C   UNL     1      66.719   7.105   7.193  1.00  0.00     0.040 C 
ENDBRANCH   1  10
TORSDOF 2
ENDMDL
MODEL 4
REMARK VINA RESULT:      -4.7      3.577      4.412
REMARK  2 active torsions:
REMARK  status: ('A' for Active; 'I' for Inactive)
REMARK    1  A    between atoms: C_1  and  C_2 
REMARK    2  A    between atoms: C_1  and  C_5 
ROOT
HETATM    1  C   UNL     1      62.268   7.056   3.708  1.00  0.00     0.163 C 
HETATM    2  O   UNL     1      63.284   6.768   4.327  1.00  0.00    -0.292 OA
ENDROOT
BRANCH   1   3
HETATM    3  C   UNL     1      62.138   8.464   3.205  1.00  0.00     0.010 A 
HETATM    4  C   UNL     1      61.987   9.568   4.067  1.00  0.00     0.018 A 
HETATM    5  C   UNL     1      61.872  10.867   3.554  1.00  0.00     0.043 A 
HETATM    6  C   UNL     1      61.892  11.086   2.176  1.00  0.00     0.116 A 
HETATM    7  C   UNL     1      62.018  10.004   1.305  1.00  0.00     0.043 A 
HETATM    8  F   UNL     1      61.781  12.344   1.682  1.00  0.00    -0.206 F 
HETATM    9  C   UNL     1      62.142   8.707   1.812  1.00  0.00     0.018 A 
ENDBRANCH   1   3
BRANCH   1  10
HETATM   10  C   UNL     1      61.255   5.951   3.392  1.00  0.00     0.064 C 
HETATM   11  C   UNL     1      59.810   6.443   3.114  1.00  0.00     0.040 C 
HETATM   12  C   UNL     1      59.077   6.879   4.394  1.00  0.00     0.233 C 
HETATM   13  N   UNL     1      59.077   5.798   5.387  1.00  0.00    -0.075 N 
HETATM   14  C   UNL     1      60.448   5.423   5.750  1.00  0.00     0.233 C 
HETATM   15  H   UNL     1      58.600   4.985   4.997  1.00  0.00     0.277 HD
HETATM   16  H   UNL     1      58.595   6.124   6.225  1.00  0.00     0.277 HD
HETATM   17  C   UNL     1      61.180   4.881   4.509  1.00  0.00     0.040 C 
ENDBRANCH   1  10
TORSDOF 2
ENDMDL
MODEL 5
REMARK VINA RESULT:      -4.7      2.024      2.806
REMARK  2 active torsions:
REMARK  status: ('A' for Active; 'I' for Inactive)
REMARK    1  A    between atoms: C_1  and  C_2 
REMARK    2  A    between atoms: C_1  and  C_5 
ROOT
HETATM    1  C   UNL     1      63.403   8.739   4.631  1.00  0.00     0.163 C 
HETATM    2  O   UNL     1      63.133   9.465   5.578  1.00  0.00    -0.292 OA
ENDROOT
BRANCH   1   3
HETATM    3  C   UNL     1      62.376   8.607   3.544  1.00  0.00     0.010 A 
HETATM    4  C   UNL     1      61.236   7.787   3.671  1.00  0.00     0.018 A 
HETATM    5  C   UNL     1      60.301   7.695   2.632  1.00  0.00     0.043 A 
HETATM    6  C   UNL     1      60.490   8.406   1.447  1.00  0.00     0.116 A 
HETATM    7  C   UNL     1      61.623   9.205   1.292  1.00  0.00     0.043 A 
HETATM    8  F   UNL     1      59.583   8.316   0.442  1.00  0.00    -0.206 F 
HETATM    9  C   UNL     1      62.556   9.308   2.329  1.00  0.00     0.018 A 
ENDBRANCH   1   3
BRANCH   1  10
HETATM   10  C   UNL     1      64.795   8.105   4.556  1.00  0.00     0.064 C 
HETATM   11  C   UNL     1      64.866   6.760   3.788  1.00  0.00     0.040 C 
HETATM   12  C   UNL     1      64.273   5.589   4.591  1.00  0.00     0.233 C 
HETATM   13  N   UNL     1      64.924   5.475   5.901  1.00  0.00    -0.075 N 
HETATM   14  C   UNL     1      64.743   6.704   6.682  1.00  0.00     0.233 C 
HETATM   15  H   UNL     1      65.922   5.309   5.766  1.00  0.00     0.277 HD
HETATM   16  H   UNL     1      64.501   4.700   6.411  1.00  0.00     0.277 HD
HETATM   17  C   UNL     1      65.418   7.881   5.955  1.00  0.00     0.040 C 
ENDBRANCH   1  10
TORSDOF 2
ENDMDL
MODEL 6
REMARK VINA RESULT:      -4.7      2.560      3.199
REMARK  2 active torsions:
REMARK  status: ('A' for Active; 'I' for Inactive)
REMARK    1  A    between atoms: C_1  and  C_2 
REMARK    2  A    between atoms: C_1  and  C_5 
ROOT
HETATM    1  C   UNL     1      66.137   7.382   6.390  1.00  0.00     0.163 C 
HETATM    2  O   UNL     1      66.530   8.404   6.936  1.00  0.00    -0.292 OA
ENDROOT
BRANCH   1   3
HETATM    3  C   UNL     1      64.796   7.427   5.717  1.00  0.00     0.010 A 
HETATM    4  C   UNL     1      63.592   7.172   6.405  1.00  0.00     0.018 A 
HETATM    5  C   UNL     1      62.361   7.227   5.737  1.00  0.00     0.043 A 
HETATM    6  C   UNL     1      62.310   7.525   4.375  1.00  0.00     0.116 A 
HETATM    7  C   UNL     1      63.491   7.757   3.672  1.00  0.00     0.043 A 
HETATM    8  F   UNL     1      61.117   7.578   3.732  1.00  0.00    -0.206 F 
HETATM    9  C   UNL     1      64.722   7.712   4.335  1.00  0.00     0.018 A 
ENDBRANCH   1   3
BRANCH   1  10
HETATM   10  C   UNL     1      67.070   6.168   6.330  1.00  0.00     0.064 C 
HETATM   11  C   UNL     1      66.373   4.818   6.018  1.00  0.00     0.040 C 
HETATM   12  C   UNL     1      65.582   4.269   7.217  1.00  0.00     0.233 C 
HETATM   13  N   UNL     1      66.445   4.148   8.398  1.00  0.00    -0.075 N 
HETATM   14  C   UNL     1      67.000   5.453   8.774  1.00  0.00     0.233 C 
HETATM   15  H   UNL     1      67.211   3.507   8.189  1.00  0.00     0.277 HD
HETATM   16  H   UNL     1      65.888   3.794   9.176  1.00  0.00     0.277 HD
HETATM   17  C   UNL     1      67.886   5.985   7.634  1.00  0.00     0.040 C 
ENDBRANCH   1  10
TORSDOF 2
ENDMDL
MODEL 7
REMARK VINA RESULT:      -4.6      1.729      2.383
REMARK  2 active torsions:
REMARK  status: ('A' for Active; 'I' for Inactive)
REMARK    1  A    between atoms: C_1  and  C_2 
REMARK    2  A    between atoms: C_1  and  C_5 
ROOT
HETATM    1  C   UNL     1      63.334   7.633   4.822  1.00  0.00     0.163 C 
HETATM    2  O   UNL     1      62.540   7.080   5.570  1.00  0.00    -0.292 OA
ENDROOT
BRANCH   1   3
HETATM    3  C   UNL     1      62.837   8.806   4.027  1.00  0.00     0.010 A 
HETATM    4  C   UNL     1      62.604  10.071   4.604  1.00  0.00     0.018 A 
HETATM    5  C   UNL     1      62.142  11.139   3.823  1.00  0.00     0.043 A 
HETATM    6  C   UNL     1      61.893  10.963   2.462  1.00  0.00     0.116 A 
HETATM    7  C   UNL     1      62.095   9.713   1.878  1.00  0.00     0.043 A 
HETATM    8  F   UNL     1      61.446  11.998   1.709  1.00  0.00    -0.206 F 
HETATM    9  C   UNL     1      62.564   8.645   2.649  1.00  0.00     0.018 A 
ENDBRANCH   1   3
BRANCH   1  10
HETATM   10  C   UNL     1      64.796   7.175   4.823  1.00  0.00     0.064 C 
HETATM   11  C   UNL     1      65.287   6.539   3.496  1.00  0.00     0.040 C 
HETATM   12  C   UNL     1      64.743   5.115   3.287  1.00  0.00     0.233 C 
HETATM   13  N   UNL     1      65.076   4.257   4.430  1.00  0.00    -0.075 N 
HETATM   14  C   UNL     1      64.498   4.791   5.668  1.00  0.00     0.233 C 
HETATM   15  H   UNL     1      66.091   4.210   4.529  1.00  0.00     0.277 HD
HETATM   16  H   UNL     1      64.692   3.327   4.265  1.00  0.00     0.277 HD
HETATM   17  C   UNL     1      65.101   6.176   5.965  1.00  0.00     0.040 C 
ENDBRANCH   1  10
TORSDOF 2
ENDMDL
MODEL 8
REMARK VINA RESULT:      -4.5      1.698      2.478
REMARK  2 active torsions:
REMARK  status: ('A' for Active; 'I' for Inactive)
REMARK    1  A    between atoms: C_1  and  C_2 
REMARK    2  A    between atoms: C_1  and  C_5 
ROOT
HETATM    1  C   UNL     1      64.360   7.618   5.819  1.00  0.00     0.163 C 
HETATM    2  O   UNL     1      64.057   7.294   6.959  1.00  0.00    -0.292 OA
ENDROOT
BRANCH   1   3
HETATM    3  C   UNL     1      63.250   7.746   4.816  1.00  0.00     0.010 A 
HETATM    4  C   UNL     1      62.263   6.755   4.645  1.00  0.00     0.018 A 
HETATM    5  C   UNL     1      61.243   6.916   3.698  1.00  0.00     0.043 A 
HETATM    6  C   UNL     1      61.196   8.059   2.898  1.00  0.00     0.116 A 
HETATM    7  C   UNL     1      62.177   9.040   3.036  1.00  0.00     0.043 A 
HETATM    8  F   UNL     1      60.208   8.213   1.982  1.00  0.00    -0.206 F 
HETATM    9  C   UNL     1      63.193   8.889   3.985  1.00  0.00     0.018 A 
ENDBRANCH   1   3
BRANCH   1  10
HETATM   10  C   UNL     1      65.818   7.977   5.513  1.00  0.00     0.064 C 
HETATM   11  C   UNL     1      66.504   7.090   4.442  1.00  0.00     0.040 C 
HETATM   12  C   UNL     1      66.862   5.692   4.975  1.00  0.00     0.233 C 
HETATM   13  N   UNL     1      67.694   5.791   6.179  1.00  0.00    -0.075 N 
HETATM   14  C   UNL     1      66.990   6.519   7.241  1.00  0.00     0.233 C 
HETATM   15  H   UNL     1      68.557   6.286   5.951  1.00  0.00     0.277 HD
HETATM   16  H   UNL     1      67.903   4.850   6.512  1.00  0.00     0.277 HD
HETATM   17  C   UNL     1      66.708   7.960   6.779  1.00  0.00     0.040 C 
ENDBRANCH   1  10
TORSDOF 2
ENDMDL
MODEL 9
REMARK VINA RESULT:      -4.5      1.894      2.505
REMARK  2 active torsions:
REMARK  status: ('A' for Active; 'I' for Inactive)
REMARK    1  A    between atoms: C_1  and  C_2 
REMARK    2  A    between atoms: C_1  and  C_5 
ROOT
HETATM    1  C   UNL     1      62.890   7.965   5.208  1.00  0.00     0.163 C 
HETATM    2  O   UNL     1      63.010   8.954   5.920  1.00  0.00    -0.292 OA
ENDROOT
BRANCH   1   3
HETATM    3  C   UNL     1      62.150   8.130   3.912  1.00  0.00     0.010 A 
HETATM    4  C   UNL     1      62.641   8.918   2.852  1.00  0.00     0.018 A 
HETATM    5  C   UNL     1      61.918   9.041   1.657  1.00  0.00     0.043 A 
HETATM    6  C   UNL     1      60.692   8.393   1.504  1.00  0.00     0.116 A 
HETATM    7  C   UNL     1      60.179   7.628   2.550  1.00  0.00     0.043 A 
HETATM    8  F   UNL     1      59.995   8.514   0.347  1.00  0.00    -0.206 F 
HETATM    9  C   UNL     1      60.899   7.494   3.741  1.00  0.00     0.018 A 
ENDBRANCH   1   3
BRANCH   1  10
HETATM   10  C   UNL     1      63.586   6.665   5.622  1.00  0.00     0.064 C 
HETATM   11  C   UNL     1      64.670   6.819   6.720  1.00  0.00     0.040 C 
HETATM   12  C   UNL     1      65.966   7.452   6.186  1.00  0.00     0.233 C 
HETATM   13  N   UNL     1      66.486   6.690   5.044  1.00  0.00    -0.075 N 
HETATM   14  C   UNL     1      65.508   6.657   3.951  1.00  0.00     0.233 C 
HETATM   15  H   UNL     1      66.686   5.735   5.343  1.00  0.00     0.277 HD
HETATM   16  H   UNL     1      67.336   7.143   4.708  1.00  0.00     0.277 HD
HETATM   17  C   UNL     1      64.233   5.933   4.421  1.00  0.00     0.040 C 
ENDBRANCH   1  10
TORSDOF 2
ENDMDL
