MODEL 1
REMARK VINA RESULT:      -6.1      0.000      0.000
REMARK  2 active torsions:
REMARK  status: ('A' for Active; 'I' for Inactive)
REMARK    1  A    between atoms: C_1  and  C_2 
REMARK    2  A    between atoms: C_1  and  C_5 
ROOT
HETATM    1  C   UNL     1      63.536   7.624   5.837  1.00  0.00     0.163 C 
HETATM    2  O   UNL     1      62.965   7.540   6.912  1.00  0.00    -0.292 OA
ENDROOT
BRANCH   1   3
HETATM    3  C   UNL     1      63.039   8.665   4.868  1.00  0.00     0.010 A 
HETATM    4  C   UNL     1      62.881   9.996   5.319  1.00  0.00     0.017 A 
HETATM    5  C   UNL     1      62.431  11.002   4.458  1.00  0.00     0.025 A 
HETATM    6  C   UNL     1      62.121  10.701   3.132  1.00  0.00     0.034 A 
HETATM    7  C   UNL     1      62.263   9.393   2.666  1.00  0.00     0.025 A 
HETATM    8 CL   UNL     1      61.554  11.964   2.053  1.00  0.00    -0.084 Cl
HETATM    9  C   UNL     1      62.720   8.383   3.522  1.00  0.00     0.017 A 
ENDBRANCH   1   3
BRANCH   1  10
HETATM   10  C   UNL     1      64.733   6.697   5.563  1.00  0.00     0.064 C 
HETATM   11  C   UNL     1      65.131   5.819   6.770  1.00  0.00     0.040 C 
HETATM   12  C   UNL     1      65.775   6.649   7.890  1.00  0.00     0.233 C 
HETATM   13  N   UNL     1      66.962   7.352   7.379  1.00  0.00    -0.075 N 
HETATM   14  C   UNL     1      66.624   8.263   6.275  1.00  0.00     0.233 C 
HETATM   15  H   UNL     1      67.636   6.663   7.043  1.00  0.00     0.277 HD
HETATM   16  H   UNL     1      67.354   7.908   8.139  1.00  0.00     0.277 HD
HETATM   17  C   UNL     1      65.981   7.483   5.112  1.00  0.00     0.040 C 
ENDBRANCH   1  10
TORSDOF 2
ENDMDL
MODEL 2
REMARK VINA RESULT:      -5.3      1.562      2.283
REMARK  2 active torsions:
REMARK  status: ('A' for Active; 'I' for Inactive)
REMARK    1  A    between atoms: C_1  and  C_2 
REMARK    2  A    between atoms: C_1  and  C_5 
ROOT
HETATM    1  C   UNL     1      64.669   7.641   5.989  1.00  0.00     0.163 C 
HETATM    2  O   UNL     1      64.041   7.148   6.912  1.00  0.00    -0.292 OA
ENDROOT
BRANCH   1   3
HETATM    3  C   UNL     1      63.919   7.925   4.713  1.00  0.00     0.010 A 
HETATM    4  C   UNL     1      63.259   9.167   4.573  1.00  0.00     0.017 A 
HETATM    5  C   UNL     1      62.556   9.485   3.407  1.00  0.00     0.025 A 
HETATM    6  C   UNL     1      62.489   8.566   2.359  1.00  0.00     0.034 A 
HETATM    7  C   UNL     1      63.128   7.332   2.477  1.00  0.00     0.025 A 
HETATM    8 CL   UNL     1      61.605   8.965   0.896  1.00  0.00    -0.084 Cl
HETATM    9  C   UNL     1      63.838   7.011   3.640  1.00  0.00     0.017 A 
ENDBRANCH   1   3
BRANCH   1  10
HETATM   10  C   UNL     1      66.157   7.969   6.202  1.00  0.00     0.064 C 
HETATM   11  C   UNL     1      67.047   7.651   4.981  1.00  0.00     0.040 C 
HETATM   12  C   UNL     1      67.205   6.138   4.770  1.00  0.00     0.233 C 
HETATM   13  N   UNL     1      67.779   5.517   5.974  1.00  0.00    -0.075 N 
HETATM   14  C   UNL     1      66.927   5.725   7.155  1.00  0.00     0.233 C 
HETATM   15  H   UNL     1      68.696   5.928   6.153  1.00  0.00     0.277 HD
HETATM   16  H   UNL     1      67.852   4.513   5.809  1.00  0.00     0.277 HD
HETATM   17  C   UNL     1      66.741   7.231   7.425  1.00  0.00     0.040 C 
ENDBRANCH   1  10
TORSDOF 2
ENDMDL
MODEL 3
REMARK VINA RESULT:      -4.8      2.499      3.042
REMARK  2 active torsions:
REMARK  status: ('A' for Active; 'I' for Inactive)
REMARK    1  A    between atoms: C_1  and  C_2 
REMARK    2  A    between atoms: C_1  and  C_5 
ROOT
HETATM    1  C   UNL     1      65.537   8.201   5.314  1.00  0.00     0.163 C 
HETATM    2  O   UNL     1      65.763   8.993   6.215  1.00  0.00    -0.292 OA
ENDROOT
BRANCH   1   3
HETATM    3  C   UNL     1      64.095   7.910   4.991  1.00  0.00     0.010 A 
HETATM    4  C   UNL     1      63.333   7.146   5.905  1.00  0.00     0.017 A 
HETATM    5  C   UNL     1      61.988   6.854   5.658  1.00  0.00     0.025 A 
HETATM    6  C   UNL     1      61.376   7.311   4.490  1.00  0.00     0.034 A 
HETATM    7  C   UNL     1      62.110   8.061   3.571  1.00  0.00     0.025 A 
HETATM    8 CL   UNL     1      59.689   6.942   4.181  1.00  0.00    -0.084 Cl
HETATM    9  C   UNL     1      63.455   8.362   3.816  1.00  0.00     0.017 A 
ENDBRANCH   1   3
BRANCH   1  10
HETATM   10  C   UNL     1      66.728   7.590   4.555  1.00  0.00     0.064 C 
HETATM   11  C   UNL     1      66.428   6.210   3.930  1.00  0.00     0.040 C 
HETATM   12  C   UNL     1      66.294   5.118   5.001  1.00  0.00     0.233 C 
HETATM   13  N   UNL     1      67.527   5.040   5.801  1.00  0.00    -0.075 N 
HETATM   14  C   UNL     1      67.817   6.311   6.481  1.00  0.00     0.233 C 
HETATM   15  H   UNL     1      68.307   4.810   5.184  1.00  0.00     0.277 HD
HETATM   16  H   UNL     1      67.398   4.322   6.513  1.00  0.00     0.277 HD
HETATM   17  C   UNL     1      67.974   7.448   5.453  1.00  0.00     0.040 C 
ENDBRANCH   1  10
TORSDOF 2
ENDMDL
MODEL 4
REMARK VINA RESULT:      -4.7      2.216      2.766
REMARK  2 active torsions:
REMARK  status: ('A' for Active; 'I' for Inactive)
REMARK    1  A    between atoms: C_1  and  C_2 
REMARK    2  A    between atoms: C_1  and  C_5 
ROOT
HETATM    1  C   UNL     1      64.464   8.275   5.390  1.00  0.00     0.163 C 
HETATM    2  O   UNL     1      64.838   9.417   5.607  1.00  0.00    -0.292 OA
ENDROOT
BRANCH   1   3
HETATM    3  C   UNL     1      63.218   8.099   4.562  1.00  0.00     0.010 A 
HETATM    4  C   UNL     1      62.142   7.356   5.099  1.00  0.00     0.017 A 
HETATM    5  C   UNL     1      60.960   7.170   4.375  1.00  0.00     0.025 A 
HETATM    6  C   UNL     1      60.829   7.714   3.097  1.00  0.00     0.034 A 
HETATM    7  C   UNL     1      61.880   8.446   2.544  1.00  0.00     0.025 A 
HETATM    8 CL   UNL     1      59.346   7.477   2.189  1.00  0.00    -0.084 Cl
HETATM    9  C   UNL     1      63.064   8.640   3.267  1.00  0.00     0.017 A 
ENDBRANCH   1   3
BRANCH   1  10
HETATM   10  C   UNL     1      65.301   7.109   5.942  1.00  0.00     0.064 C 
HETATM   11  C   UNL     1      66.737   7.507   6.346  1.00  0.00     0.040 C 
HETATM   12  C   UNL     1      67.609   7.815   5.119  1.00  0.00     0.233 C 
HETATM   13  N   UNL     1      67.654   6.647   4.225  1.00  0.00    -0.075 N 
HETATM   14  C   UNL     1      66.314   6.272   3.749  1.00  0.00     0.233 C 
HETATM   15  H   UNL     1      68.056   5.858   4.733  1.00  0.00     0.277 HD
HETATM   16  H   UNL     1      68.222   6.889   3.415  1.00  0.00     0.277 HD
HETATM   17  C   UNL     1      65.394   5.940   4.939  1.00  0.00     0.040 C 
ENDBRANCH   1  10
TORSDOF 2
ENDMDL
MODEL 5
REMARK VINA RESULT:      -4.7      2.483      3.078
REMARK  2 active torsions:
REMARK  status: ('A' for Active; 'I' for Inactive)
REMARK    1  A    between atoms: C_1  and  C_2 
REMARK    2  A    between atoms: C_1  and  C_5 
ROOT
HETATM    1  C   UNL     1      65.870   7.632   6.098  1.00  0.00     0.163 C 
HETATM    2  O   UNL     1      66.203   8.714   6.554  1.00  0.00    -0.292 OA
ENDROOT
BRANCH   1   3
HETATM    3  C   UNL     1      64.527   7.547   5.422  1.00  0.00     0.010 A 
HETATM    4  C   UNL     1      64.467   7.632   4.012  1.00  0.00     0.017 A 
HETATM    5  C   UNL     1      63.247   7.550   3.334  1.00  0.00     0.025 A 
HETATM    6  C   UNL     1      62.060   7.391   4.048  1.00  0.00     0.034 A 
HETATM    7  C   UNL     1      62.093   7.312   5.440  1.00  0.00     0.025 A 
HETATM    8 CL   UNL     1      60.528   7.292   3.196  1.00  0.00    -0.084 Cl
HETATM    9  C   UNL     1      63.313   7.387   6.124  1.00  0.00     0.017 A 
ENDBRANCH   1   3
BRANCH   1  10
HETATM   10  C   UNL     1      66.851   6.452   6.214  1.00  0.00     0.064 C 
HETATM   11  C   UNL     1      66.185   5.069   6.045  1.00  0.00     0.040 C 
HETATM   12  C   UNL     1      65.302   4.711   7.249  1.00  0.00     0.233 C 
HETATM   13  N   UNL     1      66.101   4.727   8.485  1.00  0.00    -0.075 N 
HETATM   14  C   UNL     1      66.697   6.048   8.733  1.00  0.00     0.233 C 
HETATM   15  H   UNL     1      66.850   4.038   8.402  1.00  0.00     0.277 HD
HETATM   16  H   UNL     1      65.484   4.506   9.265  1.00  0.00     0.277 HD
HETATM   17  C   UNL     1      67.606   6.458   7.558  1.00  0.00     0.040 C 
ENDBRANCH   1  10
TORSDOF 2
ENDMDL
MODEL 6
REMARK VINA RESULT:      -4.6      3.609      5.626
REMARK  2 active torsions:
REMARK  status: ('A' for Active; 'I' for Inactive)
REMARK    1  A    between atoms: C_1  and  C_2 
REMARK    2  A    between atoms: C_1  and  C_5 
ROOT
HETATM    1  C   UNL     1      63.706   8.668   4.910  1.00  0.00     0.163 C 
HETATM    2  O   UNL     1      63.154   9.497   5.616  1.00  0.00    -0.292 OA
ENDROOT
BRANCH   1   3
HETATM    3  C   UNL     1      64.754   7.797   5.554  1.00  0.00     0.010 A 
HETATM    4  C   UNL     1      66.107   7.976   5.187  1.00  0.00     0.017 A 
HETATM    5  C   UNL     1      67.120   7.200   5.760  1.00  0.00     0.025 A 
HETATM    6  C   UNL     1      66.803   6.224   6.704  1.00  0.00     0.034 A 
HETATM    7  C   UNL     1      65.473   6.025   7.077  1.00  0.00     0.025 A 
HETATM    8 CL   UNL     1      68.074   5.249   7.421  1.00  0.00    -0.084 Cl
HETATM    9  C   UNL     1      64.456   6.803   6.511  1.00  0.00     0.017 A 
ENDBRANCH   1   3
BRANCH   1  10
HETATM   10  C   UNL     1      63.273   8.547   3.439  1.00  0.00     0.064 C 
HETATM   11  C   UNL     1      61.827   9.020   3.173  1.00  0.00     0.040 C 
HETATM   12  C   UNL     1      60.793   8.051   3.765  1.00  0.00     0.233 C 
HETATM   13  N   UNL     1      60.982   6.704   3.203  1.00  0.00    -0.075 N 
HETATM   14  C   UNL     1      62.322   6.174   3.496  1.00  0.00     0.233 C 
HETATM   15  H   UNL     1      60.859   6.748   2.191  1.00  0.00     0.277 HD
HETATM   16  H   UNL     1      60.295   6.083   3.630  1.00  0.00     0.277 HD
HETATM   17  C   UNL     1      63.406   7.102   2.915  1.00  0.00     0.040 C 
ENDBRANCH   1  10
TORSDOF 2
ENDMDL
MODEL 7
REMARK VINA RESULT:      -4.5      3.827      5.818
REMARK  2 active torsions:
REMARK  status: ('A' for Active; 'I' for Inactive)
REMARK    1  A    between atoms: C_1  and  C_2 
REMARK    2  A    between atoms: C_1  and  C_5 
ROOT
HETATM    1  C   UNL     1      63.444   7.580   3.033  1.00  0.00     0.163 C 
HETATM    2  O   UNL     1      63.609   6.763   2.142  1.00  0.00    -0.292 OA
ENDROOT
BRANCH   1   3
HETATM    3  C   UNL     1      64.075   7.287   4.369  1.00  0.00     0.010 A 
HETATM    4  C   UNL     1      65.172   8.072   4.792  1.00  0.00     0.017 A 
HETATM    5  C   UNL     1      65.789   7.846   6.026  1.00  0.00     0.025 A 
HETATM    6  C   UNL     1      65.330   6.827   6.862  1.00  0.00     0.034 A 
HETATM    7  C   UNL     1      64.253   6.036   6.462  1.00  0.00     0.025 A 
HETATM    8 CL   UNL     1      66.107   6.544   8.410  1.00  0.00    -0.084 Cl
HETATM    9  C   UNL     1      63.628   6.261   5.230  1.00  0.00     0.017 A 
ENDBRANCH   1   3
BRANCH   1  10
HETATM   10  C   UNL     1      62.642   8.856   2.723  1.00  0.00     0.064 C 
HETATM   11  C   UNL     1      61.469   9.108   3.695  1.00  0.00     0.040 C 
HETATM   12  C   UNL     1      60.329   8.100   3.483  1.00  0.00     0.233 C 
HETATM   13  N   UNL     1      59.844   8.170   2.095  1.00  0.00    -0.075 N 
HETATM   14  C   UNL     1      60.909   7.862   1.129  1.00  0.00     0.233 C 
HETATM   15  H   UNL     1      59.496   9.113   1.914  1.00  0.00     0.277 HD
HETATM   16  H   UNL     1      59.103   7.478   1.983  1.00  0.00     0.277 HD
HETATM   17  C   UNL     1      62.080   8.851   1.287  1.00  0.00     0.040 C 
ENDBRANCH   1  10
TORSDOF 2
ENDMDL
MODEL 8
REMARK VINA RESULT:      -4.5      3.762      5.759
REMARK  2 active torsions:
REMARK  status: ('A' for Active; 'I' for Inactive)
REMARK    1  A    between atoms: C_1  and  C_2 
REMARK    2  A    between atoms: C_1  and  C_5 
ROOT
HETATM    1  C   UNL     1      62.411   8.940   3.501  1.00  0.00     0.163 C 
HETATM    2  O   UNL     1      61.580   9.748   3.886  1.00  0.00    -0.292 OA
ENDROOT
BRANCH   1   3
HETATM    3  C   UNL     1      63.274   8.282   4.545  1.00  0.00     0.010 A 
HETATM    4  C   UNL     1      62.690   7.329   5.411  1.00  0.00     0.017 A 
HETATM    5  C   UNL     1      63.448   6.683   6.392  1.00  0.00     0.025 A 
HETATM    6  C   UNL     1      64.804   6.979   6.536  1.00  0.00     0.034 A 
HETATM    7  C   UNL     1      65.401   7.920   5.696  1.00  0.00     0.025 A 
HETATM    8 CL   UNL     1      65.755   6.169   7.769  1.00  0.00    -0.084 Cl
HETATM    9  C   UNL     1      64.647   8.566   4.708  1.00  0.00     0.017 A 
ENDBRANCH   1   3
BRANCH   1  10
HETATM   10  C   UNL     1      62.492   8.627   1.997  1.00  0.00     0.064 C 
HETATM   11  C   UNL     1      61.194   8.946   1.222  1.00  0.00     0.040 C 
HETATM   12  C   UNL     1      60.068   7.960   1.569  1.00  0.00     0.233 C 
HETATM   13  N   UNL     1      60.494   6.583   1.274  1.00  0.00    -0.075 N 
HETATM   14  C   UNL     1      61.685   6.202   2.048  1.00  0.00     0.233 C 
HETATM   15  H   UNL     1      60.709   6.509   0.279  1.00  0.00     0.277 HD
HETATM   16  H   UNL     1      59.734   5.954   1.533  1.00  0.00     0.277 HD
HETATM   17  C   UNL     1      62.857   7.152   1.732  1.00  0.00     0.040 C 
ENDBRANCH   1  10
TORSDOF 2
ENDMDL
MODEL 9
REMARK VINA RESULT:      -4.5      2.713      3.668
REMARK  2 active torsions:
REMARK  status: ('A' for Active; 'I' for Inactive)
REMARK    1  A    between atoms: C_1  and  C_2 
REMARK    2  A    between atoms: C_1  and  C_5 
ROOT
HETATM    1  C   UNL     1      63.226   7.115   5.011  1.00  0.00     0.163 C 
HETATM    2  O   UNL     1      64.346   6.677   4.801  1.00  0.00    -0.292 OA
ENDROOT
BRANCH   1   3
HETATM    3  C   UNL     1      62.819   8.362   4.270  1.00  0.00     0.010 A 
HETATM    4  C   UNL     1      62.571   8.278   2.881  1.00  0.00     0.017 A 
HETATM    5  C   UNL     1      62.182   9.404   2.147  1.00  0.00     0.025 A 
HETATM    6  C   UNL     1      62.041  10.638   2.782  1.00  0.00     0.034 A 
HETATM    7  C   UNL     1      62.287  10.745   4.151  1.00  0.00     0.025 A 
HETATM    8 CL   UNL     1      61.556  12.050   1.860  1.00  0.00    -0.084 Cl
HETATM    9  C   UNL     1      62.670   9.621   4.892  1.00  0.00     0.017 A 
ENDBRANCH   1   3
BRANCH   1  10
HETATM   10  C   UNL     1      62.306   6.352   5.979  1.00  0.00     0.064 C 
HETATM   11  C   UNL     1      62.729   4.885   6.218  1.00  0.00     0.040 C 
HETATM   12  C   UNL     1      62.480   4.013   4.978  1.00  0.00     0.233 C 
HETATM   13  N   UNL     1      61.058   4.062   4.603  1.00  0.00    -0.075 N 
HETATM   14  C   UNL     1      60.622   5.432   4.291  1.00  0.00     0.233 C 
HETATM   15  H   UNL     1      60.499   3.707   5.380  1.00  0.00     0.277 HD
HETATM   16  H   UNL     1      60.929   3.491   3.768  1.00  0.00     0.277 HD
HETATM   17  C   UNL     1      60.838   6.355   5.506  1.00  0.00     0.040 C 
ENDBRANCH   1  10
TORSDOF 2
ENDMDL
