MODEL 1
REMARK VINA RESULT:      -4.7      0.000      0.000
REMARK  1 active torsions:
REMARK  status: ('A' for Active; 'I' for Inactive)
REMARK    1  A    between atoms: N_3  and  O_4 
ROOT
HETATM    1  C   UNL     1      62.203  10.497   4.316  1.00  0.00     0.097 C 
HETATM    2  N   UNL     1      61.350  10.639   3.236  1.00  0.00    -0.378 N 
HETATM    3  N   UNL     1      62.592  11.556   4.972  1.00  0.00    -0.257 N 
HETATM    4  C   UNL     1      62.644   9.074   4.642  1.00  0.00     0.078 C 
HETATM    5  C   UNL     1      61.982  10.622   1.920  1.00  0.00     0.121 C 
HETATM    6  C   UNL     1      62.048   9.208   1.346  1.00  0.00     0.020 C 
HETATM    7  C   UNL     1      63.362   8.430   3.452  1.00  0.00     0.007 C 
HETATM    8  C   UNL     1      62.410   8.069   2.308  1.00  0.00     0.002 C 
HETATM    9  H   UNL     1      60.378  10.743   3.347  1.00  0.00     0.160 HD
HETATM   10  H   UNL     1      62.323  12.473   4.737  1.00  0.00     0.195 HD
ENDROOT
BRANCH   3  11
HETATM   11  O   UNL     1      63.433  11.245   6.043  1.00  0.00    -0.288 OA
HETATM   12  H   UNL     1      64.197  11.763   6.204  1.00  0.00     0.244 HD
ENDBRANCH   3  11
TORSDOF 1
ENDMDL
MODEL 2
REMARK VINA RESULT:      -4.1      1.476      2.125
REMARK  1 active torsions:
REMARK  status: ('A' for Active; 'I' for Inactive)
REMARK    1  A    between atoms: N_3  and  O_4 
ROOT
HETATM    1  C   UNL     1      62.044   9.920   3.853  1.00  0.00     0.097 C 
HETATM    2  N   UNL     1      61.687   8.772   3.167  1.00  0.00    -0.378 N 
HETATM    3  N   UNL     1      61.687  11.085   3.388  1.00  0.00    -0.257 N 
HETATM    4  C   UNL     1      62.867   9.716   5.120  1.00  0.00     0.078 C 
HETATM    5  C   UNL     1      62.717   8.200   2.306  1.00  0.00     0.121 C 
HETATM    6  C   UNL     1      63.567   7.172   3.051  1.00  0.00     0.020 C 
HETATM    7  C   UNL     1      64.177   8.981   4.818  1.00  0.00     0.007 C 
HETATM    8  C   UNL     1      63.967   7.499   4.496  1.00  0.00     0.002 C 
HETATM    9  H   UNL     1      60.794   8.367   3.255  1.00  0.00     0.160 HD
HETATM   10  H   UNL     1      61.177  11.207   2.555  1.00  0.00     0.195 HD
ENDROOT
BRANCH   3  11
HETATM   11  O   UNL     1      62.106  12.140   4.202  1.00  0.00    -0.288 OA
HETATM   12  H   UNL     1      62.833  12.670   3.944  1.00  0.00     0.244 HD
ENDBRANCH   3  11
TORSDOF 1
ENDMDL
MODEL 3
REMARK VINA RESULT:      -4.0      5.943      7.175
REMARK  1 active torsions:
REMARK  status: ('A' for Active; 'I' for Inactive)
REMARK    1  A    between atoms: N_3  and  O_4 
ROOT
HETATM    1  C   UNL     1      66.949   7.557   6.807  1.00  0.00     0.097 C 
HETATM    2  N   UNL     1      67.311   7.272   8.111  1.00  0.00    -0.378 N 
HETATM    3  N   UNL     1      66.071   8.492   6.572  1.00  0.00    -0.257 N 
HETATM    4  C   UNL     1      67.615   6.712   5.726  1.00  0.00     0.078 C 
HETATM    5  C   UNL     1      66.647   6.122   8.718  1.00  0.00     0.121 C 
HETATM    6  C   UNL     1      67.437   4.834   8.497  1.00  0.00     0.020 C 
HETATM    7  C   UNL     1      67.321   5.221   5.927  1.00  0.00     0.007 C 
HETATM    8  C   UNL     1      68.075   4.623   7.118  1.00  0.00     0.002 C 
HETATM    9  H   UNL     1      67.974   7.809   8.600  1.00  0.00     0.160 HD
HETATM   10  H   UNL     1      65.628   9.015   7.278  1.00  0.00     0.195 HD
ENDROOT
BRANCH   3  11
HETATM   11  O   UNL     1      65.830   8.672   5.208  1.00  0.00    -0.288 OA
HETATM   12  H   UNL     1      65.600   9.519   4.880  1.00  0.00     0.244 HD
ENDBRANCH   3  11
TORSDOF 1
ENDMDL
MODEL 4
REMARK VINA RESULT:      -3.9      2.217      2.972
REMARK  1 active torsions:
REMARK  status: ('A' for Active; 'I' for Inactive)
REMARK    1  A    between atoms: N_3  and  O_4 
ROOT
HETATM    1  C   UNL     1      61.943   9.919   2.592  1.00  0.00     0.097 C 
HETATM    2  N   UNL     1      61.811   8.941   3.562  1.00  0.00    -0.378 N 
HETATM    3  N   UNL     1      61.753  11.170   2.909  1.00  0.00    -0.257 N 
HETATM    4  C   UNL     1      62.289   9.431   1.189  1.00  0.00     0.078 C 
HETATM    5  C   UNL     1      60.534   8.234   3.583  1.00  0.00     0.121 C 
HETATM    6  C   UNL     1      60.567   6.985   2.704  1.00  0.00     0.020 C 
HETATM    7  C   UNL     1      61.229   8.457   0.663  1.00  0.00     0.007 C 
HETATM    8  C   UNL     1      61.284   7.090   1.351  1.00  0.00     0.002 C 
HETATM    9  H   UNL     1      62.533   8.734   4.197  1.00  0.00     0.160 HD
HETATM   10  H   UNL     1      61.504  11.472   3.812  1.00  0.00     0.195 HD
ENDROOT
BRANCH   3  11
HETATM   11  O   UNL     1      61.942  12.033   1.827  1.00  0.00    -0.288 OA
HETATM   12  H   UNL     1      61.414  12.803   1.744  1.00  0.00     0.244 HD
ENDBRANCH   3  11
TORSDOF 1
ENDMDL
MODEL 5
REMARK VINA RESULT:      -3.9      1.768      2.805
REMARK  1 active torsions:
REMARK  status: ('A' for Active; 'I' for Inactive)
REMARK    1  A    between atoms: N_3  and  O_4 
ROOT
HETATM    1  C   UNL     1      62.906  10.098   4.796  1.00  0.00     0.097 C 
HETATM    2  N   UNL     1      63.608   9.049   5.362  1.00  0.00    -0.378 N 
HETATM    3  N   UNL     1      62.814  11.232   5.436  1.00  0.00    -0.257 N 
HETATM    4  C   UNL     1      62.264   9.822   3.441  1.00  0.00     0.078 C 
HETATM    5  C   UNL     1      62.804   8.040   6.043  1.00  0.00     0.121 C 
HETATM    6  C   UNL     1      62.398   6.911   5.097  1.00  0.00     0.020 C 
HETATM    7  C   UNL     1      61.278   8.652   3.523  1.00  0.00     0.007 C 
HETATM    8  C   UNL     1      61.975   7.298   3.674  1.00  0.00     0.002 C 
HETATM    9  H   UNL     1      64.589   8.987   5.309  1.00  0.00     0.160 HD
HETATM   10  H   UNL     1      63.210  11.391   6.323  1.00  0.00     0.195 HD
ENDROOT
BRANCH   3  11
HETATM   11  O   UNL     1      62.092  12.193   4.725  1.00  0.00    -0.288 OA
HETATM   12  H   UNL     1      61.301  11.952   4.283  1.00  0.00     0.244 HD
ENDBRANCH   3  11
TORSDOF 1
ENDMDL
MODEL 6
REMARK VINA RESULT:      -3.8      2.211      2.750
REMARK  1 active torsions:
REMARK  status: ('A' for Active; 'I' for Inactive)
REMARK    1  A    between atoms: N_3  and  O_4 
ROOT
HETATM    1  C   UNL     1      63.186   8.317   4.597  1.00  0.00     0.097 C 
HETATM    2  N   UNL     1      63.542   7.918   3.321  1.00  0.00    -0.378 N 
HETATM    3  N   UNL     1      63.141   7.435   5.558  1.00  0.00    -0.257 N 
HETATM    4  C   UNL     1      62.848   9.794   4.770  1.00  0.00     0.078 C 
HETATM    5  C   UNL     1      62.437   7.687   2.396  1.00  0.00     0.121 C 
HETATM    6  C   UNL     1      62.081   8.953   1.616  1.00  0.00     0.020 C 
HETATM    7  C   UNL     1      61.685  10.206   3.861  1.00  0.00     0.007 C 
HETATM    8  C   UNL     1      62.083  10.281   2.385  1.00  0.00     0.002 C 
HETATM    9  H   UNL     1      64.481   7.799   3.053  1.00  0.00     0.160 HD
HETATM   10  H   UNL     1      63.336   6.479   5.430  1.00  0.00     0.195 HD
ENDROOT
BRANCH   3  11
HETATM   11  O   UNL     1      62.785   7.997   6.786  1.00  0.00    -0.288 OA
HETATM   12  H   UNL     1      62.365   7.470   7.438  1.00  0.00     0.244 HD
ENDBRANCH   3  11
TORSDOF 1
ENDMDL
MODEL 7
REMARK VINA RESULT:      -3.7      2.517      3.197
REMARK  1 active torsions:
REMARK  status: ('A' for Active; 'I' for Inactive)
REMARK    1  A    between atoms: N_3  and  O_4 
ROOT
HETATM    1  C   UNL     1      63.666   8.261   5.437  1.00  0.00     0.097 C 
HETATM    2  N   UNL     1      62.926   9.314   5.946  1.00  0.00    -0.378 N 
HETATM    3  N   UNL     1      64.788   7.926   6.010  1.00  0.00    -0.257 N 
HETATM    4  C   UNL     1      63.095   7.577   4.199  1.00  0.00     0.078 C 
HETATM    5  C   UNL     1      63.090  10.594   5.265  1.00  0.00     0.121 C 
HETATM    6  C   UNL     1      62.071  10.769   4.140  1.00  0.00     0.020 C 
HETATM    7  C   UNL     1      62.927   8.570   3.044  1.00  0.00     0.007 C 
HETATM    8  C   UNL     1      61.768   9.546   3.264  1.00  0.00     0.002 C 
HETATM    9  H   UNL     1      62.326   9.206   6.718  1.00  0.00     0.160 HD
HETATM   10  H   UNL     1      65.161   8.391   6.794  1.00  0.00     0.195 HD
ENDROOT
BRANCH   3  11
HETATM   11  O   UNL     1      65.404   6.836   5.391  1.00  0.00    -0.288 OA
HETATM   12  H   UNL     1      66.336   6.748   5.416  1.00  0.00     0.244 HD
ENDBRANCH   3  11
TORSDOF 1
ENDMDL
MODEL 8
REMARK VINA RESULT:      -3.5      5.272      6.037
REMARK  1 active torsions:
REMARK  status: ('A' for Active; 'I' for Inactive)
REMARK    1  A    between atoms: N_3  and  O_4 
ROOT
HETATM    1  C   UNL     1      66.435   6.683   7.402  1.00  0.00     0.097 C 
HETATM    2  N   UNL     1      65.337   7.296   6.825  1.00  0.00    -0.378 N 
HETATM    3  N   UNL     1      66.993   7.218   8.452  1.00  0.00    -0.257 N 
HETATM    4  C   UNL     1      66.923   5.406   6.726  1.00  0.00     0.078 C 
HETATM    5  C   UNL     1      65.612   8.121   5.653  1.00  0.00     0.121 C 
HETATM    6  C   UNL     1      65.510   7.314   4.359  1.00  0.00     0.020 C 
HETATM    7  C   UNL     1      67.305   5.664   5.265  1.00  0.00     0.007 C 
HETATM    8  C   UNL     1      66.089   5.893   4.364  1.00  0.00     0.002 C 
HETATM    9  H   UNL     1      64.427   7.182   7.181  1.00  0.00     0.160 HD
HETATM   10  H   UNL     1      66.685   8.057   8.866  1.00  0.00     0.195 HD
ENDROOT
BRANCH   3  11
HETATM   11  O   UNL     1      68.074   6.472   8.926  1.00  0.00    -0.288 OA
HETATM   12  H   UNL     1      68.875   6.448   8.440  1.00  0.00     0.244 HD
ENDBRANCH   3  11
TORSDOF 1
ENDMDL
MODEL 9
REMARK VINA RESULT:      -3.5      3.874      4.566
REMARK  1 active torsions:
REMARK  status: ('A' for Active; 'I' for Inactive)
REMARK    1  A    between atoms: N_3  and  O_4 
ROOT
HETATM    1  C   UNL     1      65.896   7.457   6.100  1.00  0.00     0.097 C 
HETATM    2  N   UNL     1      64.659   8.072   6.176  1.00  0.00    -0.378 N 
HETATM    3  N   UNL     1      66.905   7.955   6.760  1.00  0.00    -0.257 N 
HETATM    4  C   UNL     1      65.978   6.223   5.208  1.00  0.00     0.078 C 
HETATM    5  C   UNL     1      64.320   8.956   5.065  1.00  0.00     0.121 C 
HETATM    6  C   UNL     1      63.585   8.207   3.954  1.00  0.00     0.020 C 
HETATM    7  C   UNL     1      65.585   6.555   3.765  1.00  0.00     0.007 C 
HETATM    8  C   UNL     1      64.083   6.800   3.600  1.00  0.00     0.002 C 
HETATM    9  H   UNL     1      64.046   7.924   6.931  1.00  0.00     0.160 HD
HETATM   10  H   UNL     1      66.847   8.768   7.313  1.00  0.00     0.195 HD
ENDROOT
BRANCH   3  11
HETATM   11  O   UNL     1      68.075   7.210   6.597  1.00  0.00    -0.288 OA
HETATM   12  H   UNL     1      68.728   7.492   5.987  1.00  0.00     0.244 HD
ENDBRANCH   3  11
TORSDOF 1
ENDMDL
