MODEL 1
REMARK VINA RESULT:      -4.0      0.000      0.000
REMARK  3 active torsions:
REMARK  status: ('A' for Active; 'I' for Inactive)
REMARK    1  A    between atoms: C_1  and  S_4 
REMARK    2  A    between atoms: C_2  and  O_5 
REMARK    3  A    between atoms: C_3  and  O_6 
ROOT
HETATM    1  C   UNL     1      62.814   8.655   3.618  1.00  0.00     0.067 A 
HETATM    2  C   UNL     1      62.607   9.830   4.387  1.00  0.00     0.087 A 
HETATM    3  C   UNL     1      62.451   8.702   2.250  1.00  0.00     0.087 A 
HETATM    4  C   UNL     1      61.787  11.036   2.444  1.00  0.00     0.006 A 
HETATM    5  C   UNL     1      62.098  11.000   3.803  1.00  0.00     0.038 A 
HETATM    6  C   UNL     1      61.955   9.889   1.682  1.00  0.00     0.038 A 
ENDROOT
BRANCH   1   7
HETATM    7  S   UNL     1      63.839   7.310   4.259  1.00  0.00    -0.129 SA
HETATM    8  C   UNL     1      62.730   6.493   5.443  1.00  0.00     0.096 C 
ENDBRANCH   1   7
BRANCH   2   9
HETATM    9  O   UNL     1      63.065  10.020   5.666  1.00  0.00    -0.354 OA
HETATM   10  C   UNL     1      63.142  11.384   6.065  1.00  0.00     0.210 C 
ENDBRANCH   2   9
BRANCH   3  11
HETATM   11  O   UNL     1      62.704   7.736   1.306  1.00  0.00    -0.354 OA
HETATM   12  C   UNL     1      61.811   7.688   0.202  1.00  0.00     0.210 C 
ENDBRANCH   3  11
TORSDOF 3
ENDMDL
MODEL 2
REMARK VINA RESULT:      -3.9      1.745      3.737
REMARK  3 active torsions:
REMARK  status: ('A' for Active; 'I' for Inactive)
REMARK    1  A    between atoms: C_1  and  S_4 
REMARK    2  A    between atoms: C_2  and  O_5 
REMARK    3  A    between atoms: C_3  and  O_6 
ROOT
HETATM    1  C   UNL     1      62.863   8.410   3.849  1.00  0.00     0.067 A 
HETATM    2  C   UNL     1      62.083   9.267   3.030  1.00  0.00     0.087 A 
HETATM    3  C   UNL     1      63.446   8.974   5.009  1.00  0.00     0.087 A 
HETATM    4  C   UNL     1      62.419  11.132   4.549  1.00  0.00     0.006 A 
HETATM    5  C   UNL     1      61.870  10.609   3.379  1.00  0.00     0.038 A 
HETATM    6  C   UNL     1      63.208  10.318   5.348  1.00  0.00     0.038 A 
ENDROOT
BRANCH   1   7
HETATM    7  S   UNL     1      62.793   6.616   3.626  1.00  0.00    -0.129 SA
HETATM    8  C   UNL     1      64.377   6.253   2.815  1.00  0.00     0.096 C 
ENDBRANCH   1   7
BRANCH   2   9
HETATM    9  O   UNL     1      61.305   8.852   1.979  1.00  0.00    -0.354 OA
HETATM   10  C   UNL     1      61.958   8.888   0.715  1.00  0.00     0.210 C 
ENDBRANCH   2   9
BRANCH   3  11
HETATM   11  O   UNL     1      64.104   8.293   6.005  1.00  0.00    -0.354 OA
HETATM   12  C   UNL     1      65.506   8.139   5.839  1.00  0.00     0.210 C 
ENDBRANCH   3  11
TORSDOF 3
ENDMDL
MODEL 3
REMARK VINA RESULT:      -3.9      2.976      3.740
REMARK  3 active torsions:
REMARK  status: ('A' for Active; 'I' for Inactive)
REMARK    1  A    between atoms: C_1  and  S_4 
REMARK    2  A    between atoms: C_2  and  O_5 
REMARK    3  A    between atoms: C_3  and  O_6 
ROOT
HETATM    1  C   UNL     1      65.139   7.741   5.324  1.00  0.00     0.067 A 
HETATM    2  C   UNL     1      64.236   8.801   5.053  1.00  0.00     0.087 A 
HETATM    3  C   UNL     1      65.083   6.607   4.477  1.00  0.00     0.087 A 
HETATM    4  C   UNL     1      63.343   7.633   3.119  1.00  0.00     0.006 A 
HETATM    5  C   UNL     1      63.351   8.741   3.965  1.00  0.00     0.038 A 
HETATM    6  C   UNL     1      64.198   6.573   3.385  1.00  0.00     0.038 A 
ENDROOT
BRANCH   1   7
HETATM    7  S   UNL     1      66.536   7.992   6.445  1.00  0.00    -0.129 SA
HETATM    8  C   UNL     1      66.197   6.805   7.777  1.00  0.00     0.096 C 
ENDBRANCH   1   7
BRANCH   2   9
HETATM    9  O   UNL     1      64.274  10.036   5.651  1.00  0.00    -0.354 OA
HETATM   10  C   UNL     1      63.074  10.788   5.518  1.00  0.00     0.210 C 
ENDBRANCH   2   9
BRANCH   3  11
HETATM   11  O   UNL     1      65.960   5.549   4.473  1.00  0.00    -0.354 OA
HETATM   12  C   UNL     1      66.875   5.496   3.388  1.00  0.00     0.210 C 
ENDBRANCH   3  11
TORSDOF 3
ENDMDL
MODEL 4
REMARK VINA RESULT:      -3.8      1.606      1.879
REMARK  3 active torsions:
REMARK  status: ('A' for Active; 'I' for Inactive)
REMARK    1  A    between atoms: C_1  and  S_4 
REMARK    2  A    between atoms: C_2  and  O_5 
REMARK    3  A    between atoms: C_3  and  O_6 
ROOT
HETATM    1  C   UNL     1      62.829   8.486   3.559  1.00  0.00     0.067 A 
HETATM    2  C   UNL     1      63.173   8.943   4.857  1.00  0.00     0.087 A 
HETATM    3  C   UNL     1      62.174   9.402   2.700  1.00  0.00     0.087 A 
HETATM    4  C   UNL     1      62.300  11.159   4.380  1.00  0.00     0.006 A 
HETATM    5  C   UNL     1      62.907  10.262   5.257  1.00  0.00     0.038 A 
HETATM    6  C   UNL     1      61.929  10.723   3.116  1.00  0.00     0.038 A 
ENDROOT
BRANCH   1   7
HETATM    7  S   UNL     1      63.532   6.950   2.912  1.00  0.00    -0.129 SA
HETATM    8  C   UNL     1      62.314   5.705   3.425  1.00  0.00     0.096 C 
ENDBRANCH   1   7
BRANCH   2   9
HETATM    9  O   UNL     1      63.963   8.258   5.745  1.00  0.00    -0.354 OA
HETATM   10  C   UNL     1      65.359   8.467   5.570  1.00  0.00     0.210 C 
ENDBRANCH   2   9
BRANCH   3  11
HETATM   11  O   UNL     1      61.893   9.213   1.368  1.00  0.00    -0.354 OA
HETATM   12  C   UNL     1      60.669   8.555   1.073  1.00  0.00     0.210 C 
ENDBRANCH   3  11
TORSDOF 3
ENDMDL
MODEL 5
REMARK VINA RESULT:      -3.7      2.772      4.632
REMARK  3 active torsions:
REMARK  status: ('A' for Active; 'I' for Inactive)
REMARK    1  A    between atoms: C_1  and  S_4 
REMARK    2  A    between atoms: C_2  and  O_5 
REMARK    3  A    between atoms: C_3  and  O_6 
ROOT
HETATM    1  C   UNL     1      65.131   7.901   4.798  1.00  0.00     0.067 A 
HETATM    2  C   UNL     1      64.883   6.836   3.892  1.00  0.00     0.087 A 
HETATM    3  C   UNL     1      64.220   8.985   4.790  1.00  0.00     0.087 A 
HETATM    4  C   UNL     1      62.852   7.902   3.093  1.00  0.00     0.006 A 
HETATM    5  C   UNL     1      63.759   6.844   3.053  1.00  0.00     0.038 A 
HETATM    6  C   UNL     1      63.092   8.966   3.950  1.00  0.00     0.038 A 
ENDROOT
BRANCH   1   7
HETATM    7  S   UNL     1      66.321   7.700   6.145  1.00  0.00    -0.129 SA
HETATM    8  C   UNL     1      67.918   7.823   5.290  1.00  0.00     0.096 C 
ENDBRANCH   1   7
BRANCH   2   9
HETATM    9  O   UNL     1      65.551   5.638   3.891  1.00  0.00    -0.354 OA
HETATM   10  C   UNL     1      64.806   4.551   4.428  1.00  0.00     0.210 C 
ENDBRANCH   2   9
BRANCH   3  11
HETATM   11  O   UNL     1      64.192  10.032   5.679  1.00  0.00    -0.354 OA
HETATM   12  C   UNL     1      63.058  10.884   5.609  1.00  0.00     0.210 C 
ENDBRANCH   3  11
TORSDOF 3
ENDMDL
MODEL 6
REMARK VINA RESULT:      -3.6      0.866      3.794
REMARK  3 active torsions:
REMARK  status: ('A' for Active; 'I' for Inactive)
REMARK    1  A    between atoms: C_1  and  S_4 
REMARK    2  A    between atoms: C_2  and  O_5 
REMARK    3  A    between atoms: C_3  and  O_6 
ROOT
HETATM    1  C   UNL     1      62.771   8.479   3.482  1.00  0.00     0.067 A 
HETATM    2  C   UNL     1      62.646   8.263   2.085  1.00  0.00     0.087 A 
HETATM    3  C   UNL     1      62.406   9.755   3.977  1.00  0.00     0.087 A 
HETATM    4  C   UNL     1      61.753  10.498   1.753  1.00  0.00     0.006 A 
HETATM    5  C   UNL     1      62.146   9.264   1.237  1.00  0.00     0.038 A 
HETATM    6  C   UNL     1      61.895  10.739   3.112  1.00  0.00     0.038 A 
ENDROOT
BRANCH   1   7
HETATM    7  S   UNL     1      63.013   7.084   4.606  1.00  0.00    -0.129 SA
HETATM    8  C   UNL     1      61.316   6.516   4.911  1.00  0.00     0.096 C 
ENDBRANCH   1   7
BRANCH   2   9
HETATM    9  O   UNL     1      62.779   7.046   1.465  1.00  0.00    -0.354 OA
HETATM   10  C   UNL     1      61.547   6.448   1.079  1.00  0.00     0.210 C 
ENDBRANCH   2   9
BRANCH   3  11
HETATM   11  O   UNL     1      62.310  10.120   5.298  1.00  0.00    -0.354 OA
HETATM   12  C   UNL     1      63.099  11.230   5.702  1.00  0.00     0.210 C 
ENDBRANCH   3  11
TORSDOF 3
ENDMDL
MODEL 7
REMARK VINA RESULT:      -3.5      1.857      3.912
REMARK  3 active torsions:
REMARK  status: ('A' for Active; 'I' for Inactive)
REMARK    1  A    between atoms: C_1  and  S_4 
REMARK    2  A    between atoms: C_2  and  O_5 
REMARK    3  A    between atoms: C_3  and  O_6 
ROOT
HETATM    1  C   UNL     1      62.123   7.727   4.323  1.00  0.00     0.067 A 
HETATM    2  C   UNL     1      61.681   8.603   3.298  1.00  0.00     0.087 A 
HETATM    3  C   UNL     1      62.796   8.305   5.427  1.00  0.00     0.087 A 
HETATM    4  C   UNL     1      62.499  10.541   4.512  1.00  0.00     0.006 A 
HETATM    5  C   UNL     1      61.872   9.990   3.396  1.00  0.00     0.038 A 
HETATM    6  C   UNL     1      62.964   9.699   5.512  1.00  0.00     0.038 A 
ENDROOT
BRANCH   1   7
HETATM    7  S   UNL     1      61.521   6.023   4.394  1.00  0.00    -0.129 SA
HETATM    8  C   UNL     1      60.007   6.176   5.385  1.00  0.00     0.096 C 
ENDBRANCH   1   7
BRANCH   2   9
HETATM    9  O   UNL     1      60.863   8.242   2.257  1.00  0.00    -0.354 OA
HETATM   10  C   UNL     1      61.282   8.727   0.987  1.00  0.00     0.210 C 
ENDBRANCH   2   9
BRANCH   3  11
HETATM   11  O   UNL     1      63.168   7.663   6.583  1.00  0.00    -0.354 OA
HETATM   12  C   UNL     1      64.395   6.949   6.538  1.00  0.00     0.210 C 
ENDBRANCH   3  11
TORSDOF 3
ENDMDL
MODEL 8
REMARK VINA RESULT:      -3.4      5.310      7.771
REMARK  3 active torsions:
REMARK  status: ('A' for Active; 'I' for Inactive)
REMARK    1  A    between atoms: C_1  and  S_4 
REMARK    2  A    between atoms: C_2  and  O_5 
REMARK    3  A    between atoms: C_3  and  O_6 
ROOT
HETATM    1  C   UNL     1      65.846   4.966   7.423  1.00  0.00     0.067 A 
HETATM    2  C   UNL     1      66.805   4.120   8.038  1.00  0.00     0.087 A 
HETATM    3  C   UNL     1      65.936   6.353   7.691  1.00  0.00     0.087 A 
HETATM    4  C   UNL     1      67.917   6.019   9.066  1.00  0.00     0.006 A 
HETATM    5  C   UNL     1      67.822   4.645   8.849  1.00  0.00     0.038 A 
HETATM    6  C   UNL     1      66.971   6.860   8.497  1.00  0.00     0.038 A 
ENDROOT
BRANCH   1   7
HETATM    7  S   UNL     1      64.813   4.349   6.072  1.00  0.00    -0.129 SA
HETATM    8  C   UNL     1      63.480   3.485   6.952  1.00  0.00     0.096 C 
ENDBRANCH   1   7
BRANCH   2   9
HETATM    9  O   UNL     1      66.977   2.790   7.749  1.00  0.00    -0.354 OA
HETATM   10  C   UNL     1      68.075   2.515   6.887  1.00  0.00     0.210 C 
ENDBRANCH   2   9
BRANCH   3  11
HETATM   11  O   UNL     1      65.209   7.350   7.086  1.00  0.00    -0.354 OA
HETATM   12  C   UNL     1      65.847   8.028   6.013  1.00  0.00     0.210 C 
ENDBRANCH   3  11
TORSDOF 3
ENDMDL
MODEL 9
REMARK VINA RESULT:      -3.4      4.282      6.167
REMARK  3 active torsions:
REMARK  status: ('A' for Active; 'I' for Inactive)
REMARK    1  A    between atoms: C_1  and  S_4 
REMARK    2  A    between atoms: C_2  and  O_5 
REMARK    3  A    between atoms: C_3  and  O_6 
ROOT
HETATM    1  C   UNL     1      66.023   6.096   6.516  1.00  0.00     0.067 A 
HETATM    2  C   UNL     1      66.881   5.611   5.494  1.00  0.00     0.087 A 
HETATM    3  C   UNL     1      64.923   6.894   6.116  1.00  0.00     0.087 A 
HETATM    4  C   UNL     1      65.512   6.635   3.768  1.00  0.00     0.006 A 
HETATM    5  C   UNL     1      66.625   5.883   4.142  1.00  0.00     0.038 A 
HETATM    6  C   UNL     1      64.678   7.143   4.754  1.00  0.00     0.038 A 
ENDROOT
BRANCH   1   7
HETATM    7  S   UNL     1      66.112   5.413   8.188  1.00  0.00    -0.129 SA
HETATM    8  C   UNL     1      67.055   6.677   9.086  1.00  0.00     0.096 C 
ENDBRANCH   1   7
BRANCH   2   9
HETATM    9  O   UNL     1      67.876   4.686   5.681  1.00  0.00    -0.354 OA
HETATM   10  C   UNL     1      67.567   3.386   5.191  1.00  0.00     0.210 C 
ENDBRANCH   2   9
BRANCH   3  11
HETATM   11  O   UNL     1      63.899   7.333   6.920  1.00  0.00    -0.354 OA
HETATM   12  C   UNL     1      62.613   7.396   6.320  1.00  0.00     0.210 C 
ENDBRANCH   3  11
TORSDOF 3
ENDMDL
