MODEL 1
REMARK VINA RESULT:      -3.9      0.000      0.000
REMARK  1 active torsions:
REMARK  status: ('A' for Active; 'I' for Inactive)
REMARK    1  A    between atoms: C_3  and  N_7 
ROOT
HETATM    1  N   UNL     1      62.473   8.251   3.071  1.00  0.00    -0.301 N 
ATOM      2  HN  UNL     1      62.614   7.251   2.927  1.00  0.00     0.187 HD
HETATM    3  C   UNL     1      61.989  10.448   2.764  1.00  0.00     0.073 A 
HETATM    4  N   UNL     1      62.659   8.959   4.203  1.00  0.00    -0.299 N 
HETATM    5  C   UNL     1      62.378  10.297   4.071  1.00  0.00     0.052 A 
HETATM    6  C   UNL     1      62.061   9.163   2.181  1.00  0.00     0.050 A 
HETATM    7  C   UNL     1      62.501  11.289   5.167  1.00  0.00     0.072 C 
HETATM    8  C   UNL     1      63.113   8.276   5.391  1.00  0.00     0.177 C 
HETATM    9  C   UNL     1      61.747   8.767   0.788  1.00  0.00     0.072 C 
ENDROOT
BRANCH   3  10
HETATM   10  N   UNL     1      61.622  11.604   2.191  1.00  0.00    -0.396 N 
HETATM   11  H   UNL     1      62.300  12.187   1.780  1.00  0.00     0.156 HD
HETATM   12  H   UNL     1      60.674  11.869   2.182  1.00  0.00     0.156 HD
ENDBRANCH   3  10
TORSDOF 1
ENDMDL
MODEL 2
REMARK VINA RESULT:      -3.8      1.216      2.966
REMARK  1 active torsions:
REMARK  status: ('A' for Active; 'I' for Inactive)
REMARK    1  A    between atoms: C_3  and  N_7 
ROOT
HETATM    1  N   UNL     1      62.443   8.410   3.145  1.00  0.00    -0.301 N 
ATOM      2  HN  UNL     1      62.541   7.407   2.986  1.00  0.00     0.187 HD
HETATM    3  C   UNL     1      62.395  10.468   4.104  1.00  0.00     0.073 A 
HETATM    4  N   UNL     1      62.094   9.361   2.256  1.00  0.00    -0.299 N 
HETATM    5  C   UNL     1      62.052  10.627   2.785  1.00  0.00     0.052 A 
HETATM    6  C   UNL     1      62.629   9.086   4.287  1.00  0.00     0.050 A 
HETATM    7  C   UNL     1      61.698  11.844   2.015  1.00  0.00     0.072 C 
HETATM    8  C   UNL     1      61.813   8.975   0.892  1.00  0.00     0.177 C 
HETATM    9  C   UNL     1      63.028   8.377   5.525  1.00  0.00     0.072 C 
ENDROOT
BRANCH   3  10
HETATM   10  N   UNL     1      62.480  11.455   5.009  1.00  0.00    -0.396 N 
HETATM   11  H   UNL     1      62.994  12.269   4.803  1.00  0.00     0.156 HD
HETATM   12  H   UNL     1      62.028  11.365   5.879  1.00  0.00     0.156 HD
ENDBRANCH   3  10
TORSDOF 1
ENDMDL
MODEL 3
REMARK VINA RESULT:      -3.8      0.992      2.894
REMARK  1 active torsions:
REMARK  status: ('A' for Active; 'I' for Inactive)
REMARK    1  A    between atoms: C_3  and  N_7 
ROOT
HETATM    1  N   UNL     1      63.255   8.858   4.315  1.00  0.00    -0.301 N 
ATOM      2  HN  UNL     1      63.746   8.455   5.113  1.00  0.00     0.187 HD
HETATM    3  C   UNL     1      62.103  10.259   2.949  1.00  0.00     0.073 A 
HETATM    4  N   UNL     1      63.026   8.296   3.111  1.00  0.00    -0.299 N 
HETATM    5  C   UNL     1      62.332   9.104   2.244  1.00  0.00     0.052 A 
HETATM    6  C   UNL     1      62.687  10.068   4.221  1.00  0.00     0.050 A 
HETATM    7  C   UNL     1      61.957   8.720   0.862  1.00  0.00     0.072 C 
HETATM    8  C   UNL     1      63.512   6.959   2.859  1.00  0.00     0.177 C 
HETATM    9  C   UNL     1      62.725  11.008   5.366  1.00  0.00     0.072 C 
ENDROOT
BRANCH   3  10
HETATM   10  N   UNL     1      61.448  11.334   2.485  1.00  0.00    -0.396 N 
HETATM   11  H   UNL     1      61.011  11.302   1.603  1.00  0.00     0.156 HD
HETATM   12  H   UNL     1      61.404  12.155   3.026  1.00  0.00     0.156 HD
ENDBRANCH   3  10
TORSDOF 1
ENDMDL
MODEL 4
REMARK VINA RESULT:      -3.6      1.517      2.476
REMARK  1 active torsions:
REMARK  status: ('A' for Active; 'I' for Inactive)
REMARK    1  A    between atoms: C_3  and  N_7 
ROOT
HETATM    1  N   UNL     1      61.514   9.361   2.531  1.00  0.00    -0.301 N 
ATOM      2  HN  UNL     1      61.093   9.239   1.610  1.00  0.00     0.187 HD
HETATM    3  C   UNL     1      62.442  10.259   4.398  1.00  0.00     0.073 A 
HETATM    4  N   UNL     1      61.802   8.412   3.443  1.00  0.00    -0.299 N 
HETATM    5  C   UNL     1      62.366   8.903   4.595  1.00  0.00     0.052 A 
HETATM    6  C   UNL     1      61.906  10.502   3.113  1.00  0.00     0.050 A 
HETATM    7  C   UNL     1      62.773   8.066   5.749  1.00  0.00     0.072 C 
HETATM    8  C   UNL     1      61.504   7.032   3.137  1.00  0.00     0.177 C 
HETATM    9  C   UNL     1      61.752  11.798   2.411  1.00  0.00     0.072 C 
ENDROOT
BRANCH   3  10
HETATM   10  N   UNL     1      62.935  11.145   5.277  1.00  0.00    -0.396 N 
HETATM   11  H   UNL     1      63.181  12.050   4.978  1.00  0.00     0.156 HD
HETATM   12  H   UNL     1      63.051  10.890   6.221  1.00  0.00     0.156 HD
ENDBRANCH   3  10
TORSDOF 1
ENDMDL
MODEL 5
REMARK VINA RESULT:      -3.6      1.788      3.279
REMARK  1 active torsions:
REMARK  status: ('A' for Active; 'I' for Inactive)
REMARK    1  A    between atoms: C_3  and  N_7 
ROOT
HETATM    1  N   UNL     1      64.265   9.332   5.398  1.00  0.00    -0.301 N 
ATOM      2  HN  UNL     1      64.938   9.521   6.140  1.00  0.00     0.187 HD
HETATM    3  C   UNL     1      62.501   9.461   3.975  1.00  0.00     0.073 A 
HETATM    4  N   UNL     1      64.257   8.303   4.528  1.00  0.00    -0.299 N 
HETATM    5  C   UNL     1      63.208   8.334   3.642  1.00  0.00     0.052 A 
HETATM    6  C   UNL     1      63.184  10.049   5.063  1.00  0.00     0.050 A 
HETATM    7  C   UNL     1      62.975   7.319   2.586  1.00  0.00     0.072 C 
HETATM    8  C   UNL     1      65.305   7.311   4.606  1.00  0.00     0.177 C 
HETATM    9  C   UNL     1      62.842  11.286   5.804  1.00  0.00     0.072 C 
ENDROOT
BRANCH   3  10
HETATM   10  N   UNL     1      61.384   9.886   3.364  1.00  0.00    -0.396 N 
HETATM   11  H   UNL     1      60.663  10.302   3.889  1.00  0.00     0.156 HD
HETATM   12  H   UNL     1      61.287   9.782   2.390  1.00  0.00     0.156 HD
ENDBRANCH   3  10
TORSDOF 1
ENDMDL
MODEL 6
REMARK VINA RESULT:      -3.4      1.438      3.676
REMARK  1 active torsions:
REMARK  status: ('A' for Active; 'I' for Inactive)
REMARK    1  A    between atoms: C_3  and  N_7 
ROOT
HETATM    1  N   UNL     1      61.738  10.419   3.285  1.00  0.00    -0.301 N 
ATOM      2  HN  UNL     1      61.104  11.170   3.010  1.00  0.00     0.187 HD
HETATM    3  C   UNL     1      63.253   9.149   4.402  1.00  0.00     0.073 A 
HETATM    4  N   UNL     1      61.982   9.262   2.640  1.00  0.00    -0.299 N 
HETATM    5  C   UNL     1      62.893   8.454   3.275  1.00  0.00     0.052 A 
HETATM    6  C   UNL     1      62.519  10.356   4.372  1.00  0.00     0.050 A 
HETATM    7  C   UNL     1      63.331   7.130   2.771  1.00  0.00     0.072 C 
HETATM    8  C   UNL     1      61.293   8.992   1.398  1.00  0.00     0.177 C 
HETATM    9  C   UNL     1      62.534  11.466   5.354  1.00  0.00     0.072 C 
ENDROOT
BRANCH   3  10
HETATM   10  N   UNL     1      64.133   8.731   5.324  1.00  0.00    -0.396 N 
HETATM   11  H   UNL     1      63.889   8.742   6.278  1.00  0.00     0.156 HD
HETATM   12  H   UNL     1      65.022   8.412   5.047  1.00  0.00     0.156 HD
ENDBRANCH   3  10
TORSDOF 1
ENDMDL
MODEL 7
REMARK VINA RESULT:      -3.4      1.537      3.185
REMARK  1 active torsions:
REMARK  status: ('A' for Active; 'I' for Inactive)
REMARK    1  A    between atoms: C_3  and  N_7 
ROOT
HETATM    1  N   UNL     1      62.089   7.586   4.126  1.00  0.00    -0.301 N 
ATOM      2  HN  UNL     1      61.901   6.592   3.993  1.00  0.00     0.187 HD
HETATM    3  C   UNL     1      62.797   9.575   4.960  1.00  0.00     0.073 A 
HETATM    4  N   UNL     1      61.736   8.611   3.324  1.00  0.00    -0.299 N 
HETATM    5  C   UNL     1      62.142   9.839   3.784  1.00  0.00     0.052 A 
HETATM    6  C   UNL     1      62.743   8.174   5.136  1.00  0.00     0.050 A 
HETATM    7  C   UNL     1      61.881  11.122   3.086  1.00  0.00     0.072 C 
HETATM    8  C   UNL     1      60.998   8.332   2.114  1.00  0.00     0.177 C 
HETATM    9  C   UNL     1      63.298   7.364   6.246  1.00  0.00     0.072 C 
ENDROOT
BRANCH   3  10
HETATM   10  N   UNL     1      63.364  10.494   5.757  1.00  0.00    -0.396 N 
HETATM   11  H   UNL     1      63.779  10.220   6.607  1.00  0.00     0.156 HD
HETATM   12  H   UNL     1      63.365  11.442   5.492  1.00  0.00     0.156 HD
ENDBRANCH   3  10
TORSDOF 1
ENDMDL
MODEL 8
REMARK VINA RESULT:      -3.3      1.989      3.032
REMARK  1 active torsions:
REMARK  status: ('A' for Active; 'I' for Inactive)
REMARK    1  A    between atoms: C_3  and  N_7 
ROOT
HETATM    1  N   UNL     1      63.032   8.306   3.057  1.00  0.00    -0.301 N 
ATOM      2  HN  UNL     1      62.589   8.007   2.188  1.00  0.00     0.187 HD
HETATM    3  C   UNL     1      63.604   9.469   4.921  1.00  0.00     0.073 A 
HETATM    4  N   UNL     1      64.009   7.683   3.746  1.00  0.00    -0.299 N 
HETATM    5  C   UNL     1      64.392   8.346   4.886  1.00  0.00     0.052 A 
HETATM    6  C   UNL     1      62.779   9.408   3.776  1.00  0.00     0.050 A 
HETATM    7  C   UNL     1      65.443   7.870   5.817  1.00  0.00     0.072 C 
HETATM    8  C   UNL     1      64.535   6.435   3.244  1.00  0.00     0.177 C 
HETATM    9  C   UNL     1      61.744  10.373   3.335  1.00  0.00     0.072 C 
ENDROOT
BRANCH   3  10
HETATM   10  N   UNL     1      63.641  10.415   5.873  1.00  0.00    -0.396 N 
HETATM   11  H   UNL     1      63.334  10.207   6.785  1.00  0.00     0.156 HD
HETATM   12  H   UNL     1      63.976  11.315   5.658  1.00  0.00     0.156 HD
ENDBRANCH   3  10
TORSDOF 1
ENDMDL
MODEL 9
REMARK VINA RESULT:      -3.3      1.566      2.550
REMARK  1 active torsions:
REMARK  status: ('A' for Active; 'I' for Inactive)
REMARK    1  A    between atoms: C_3  and  N_7 
ROOT
HETATM    1  N   UNL     1      62.514  10.240   3.991  1.00  0.00    -0.301 N 
ATOM      2  HN  UNL     1      63.008  10.967   4.509  1.00  0.00     0.187 HD
HETATM    3  C   UNL     1      61.306   9.118   2.429  1.00  0.00     0.073 A 
HETATM    4  N   UNL     1      62.363   8.943   4.323  1.00  0.00    -0.299 N 
HETATM    5  C   UNL     1      61.639   8.217   3.409  1.00  0.00     0.052 A 
HETATM    6  C   UNL     1      61.864  10.355   2.825  1.00  0.00     0.050 A 
HETATM    7  C   UNL     1      61.335   6.771   3.541  1.00  0.00     0.072 C 
HETATM    8  C   UNL     1      62.950   8.460   5.552  1.00  0.00     0.177 C 
HETATM    9  C   UNL     1      61.800  11.659   2.124  1.00  0.00     0.072 C 
ENDROOT
BRANCH   3  10
HETATM   10  N   UNL     1      60.591   8.840   1.329  1.00  0.00    -0.396 N 
HETATM   11  H   UNL     1      59.870   9.447   1.044  1.00  0.00     0.156 HD
HETATM   12  H   UNL     1      60.787   8.030   0.806  1.00  0.00     0.156 HD
ENDBRANCH   3  10
TORSDOF 1
ENDMDL
