MODEL 1
REMARK VINA RESULT:      -5.3      0.000      0.000
REMARK  3 active torsions:
REMARK  status: ('A' for Active; 'I' for Inactive)
REMARK    1  A    between atoms: C_3  and  C_9 
REMARK    2  A    between atoms: C_9  and  O_11 
REMARK    3  A    between atoms: O_11  and  C_12 
ROOT
HETATM    1  N   UNL     1      61.647  12.127   1.872  1.00  0.00    -0.191 NA
HETATM    2  C   UNL     1      61.910  11.330   2.677  1.00  0.00     0.099 C 
HETATM    3  C   UNL     1      62.223  10.343   3.665  1.00  0.00     0.044 A 
HETATM    4  C   UNL     1      62.757   8.409   5.623  1.00  0.00     0.069 A 
HETATM    5  C   UNL     1      62.783  10.720   4.889  1.00  0.00     0.025 A 
HETATM    6  C   UNL     1      61.963   8.993   3.410  1.00  0.00     0.025 A 
HETATM    7  C   UNL     1      63.055   9.752   5.861  1.00  0.00     0.038 A 
HETATM    8  C   UNL     1      62.241   8.028   4.381  1.00  0.00     0.038 A 
ENDROOT
BRANCH   4   9
HETATM    9  O   UNL     1      63.004   7.556   6.664  1.00  0.00    -0.345 OA
BRANCH   9  10
HETATM   10  C   UNL     1      63.548   6.282   6.289  1.00  0.00     0.233 C 
BRANCH  10  11
HETATM   11  C   UNL     1      65.028   6.199   6.495  1.00  0.00     0.041 A 
HETATM   12  N   UNL     1      65.501   6.239   7.801  1.00  0.00    -0.355 N 
HETATM   13  C   UNL     1      66.815   6.241   7.809  1.00  0.00     0.047 A 
ATOM     14  HN  UNL     1      64.913   6.264   8.634  1.00  0.00     0.166 HD
HETATM   15  S   UNL     1      67.563   6.138   6.267  1.00  0.00    -0.087 SA
HETATM   16  C   UNL     1      67.643   6.356   9.039  1.00  0.00     0.076 C 
HETATM   17  C   UNL     1      66.016   6.130   5.530  1.00  0.00     0.078 A 
ENDBRANCH  10  11
ENDBRANCH   9  10
ENDBRANCH   4   9
TORSDOF 3
ENDMDL
MODEL 2
REMARK VINA RESULT:      -5.2      1.912      2.428
REMARK  3 active torsions:
REMARK  status: ('A' for Active; 'I' for Inactive)
REMARK    1  A    between atoms: C_3  and  C_9 
REMARK    2  A    between atoms: C_9  and  O_11 
REMARK    3  A    between atoms: O_11  and  C_12 
ROOT
HETATM    1  N   UNL     1      60.159   8.343   1.080  1.00  0.00    -0.191 NA
HETATM    2  C   UNL     1      60.989   8.438   1.888  1.00  0.00     0.099 C 
HETATM    3  C   UNL     1      62.011   8.567   2.883  1.00  0.00     0.044 A 
HETATM    4  C   UNL     1      64.049   8.876   4.782  1.00  0.00     0.069 A 
HETATM    5  C   UNL     1      63.054   7.639   2.949  1.00  0.00     0.025 A 
HETATM    6  C   UNL     1      61.971   9.629   3.791  1.00  0.00     0.025 A 
HETATM    7  C   UNL     1      64.066   7.792   3.902  1.00  0.00     0.038 A 
HETATM    8  C   UNL     1      62.981   9.776   4.745  1.00  0.00     0.038 A 
ENDROOT
BRANCH   4   9
HETATM    9  O   UNL     1      65.119   8.964   5.630  1.00  0.00    -0.345 OA
BRANCH   9  10
HETATM   10  C   UNL     1      66.277   8.220   5.225  1.00  0.00     0.233 C 
BRANCH  10  11
HETATM   11  C   UNL     1      66.775   7.293   6.290  1.00  0.00     0.041 A 
HETATM   12  N   UNL     1      66.243   7.433   7.566  1.00  0.00    -0.355 N 
HETATM   13  C   UNL     1      66.838   6.609   8.400  1.00  0.00     0.047 A 
ATOM     14  HN  UNL     1      65.497   8.081   7.821  1.00  0.00     0.166 HD
HETATM   15  S   UNL     1      68.025   5.583   7.702  1.00  0.00    -0.087 SA
HETATM   16  C   UNL     1      66.563   6.555   9.860  1.00  0.00     0.076 C 
HETATM   17  C   UNL     1      67.751   6.321   6.180  1.00  0.00     0.078 A 
ENDBRANCH  10  11
ENDBRANCH   9  10
ENDBRANCH   4   9
TORSDOF 3
ENDMDL
MODEL 3
REMARK VINA RESULT:      -4.9      1.498      2.008
REMARK  3 active torsions:
REMARK  status: ('A' for Active; 'I' for Inactive)
REMARK    1  A    between atoms: C_3  and  C_9 
REMARK    2  A    between atoms: C_9  and  O_11 
REMARK    3  A    between atoms: O_11  and  C_12 
ROOT
HETATM    1  N   UNL     1      61.694  11.982   2.038  1.00  0.00    -0.191 NA
HETATM    2  C   UNL     1      61.984  11.001   2.590  1.00  0.00     0.099 C 
HETATM    3  C   UNL     1      62.349   9.799   3.277  1.00  0.00     0.044 A 
HETATM    4  C   UNL     1      63.144   7.469   4.617  1.00  0.00     0.069 A 
HETATM    5  C   UNL     1      62.427   8.586   2.588  1.00  0.00     0.025 A 
HETATM    6  C   UNL     1      62.636   9.837   4.645  1.00  0.00     0.025 A 
HETATM    7  C   UNL     1      62.817   7.424   3.260  1.00  0.00     0.038 A 
HETATM    8  C   UNL     1      63.020   8.673   5.315  1.00  0.00     0.038 A 
ENDROOT
BRANCH   4   9
HETATM    9  O   UNL     1      63.573   6.288   5.160  1.00  0.00    -0.345 OA
BRANCH   9  10
HETATM   10  C   UNL     1      64.983   6.046   5.047  1.00  0.00     0.233 C 
BRANCH  10  11
HETATM   11  C   UNL     1      65.655   5.895   6.377  1.00  0.00     0.041 A 
HETATM   12  N   UNL     1      66.372   4.728   6.608  1.00  0.00    -0.355 N 
HETATM   13  C   UNL     1      66.828   4.710   7.840  1.00  0.00     0.047 A 
ATOM     14  HN  UNL     1      66.524   3.989   5.920  1.00  0.00     0.166 HD
HETATM   15  S   UNL     1      66.476   6.106   8.777  1.00  0.00    -0.087 SA
HETATM   16  C   UNL     1      67.572   3.571   8.441  1.00  0.00     0.076 C 
HETATM   17  C   UNL     1      65.618   6.766   7.449  1.00  0.00     0.078 A 
ENDBRANCH  10  11
ENDBRANCH   9  10
ENDBRANCH   4   9
TORSDOF 3
ENDMDL
MODEL 4
REMARK VINA RESULT:      -4.9      2.923      7.285
REMARK  3 active torsions:
REMARK  status: ('A' for Active; 'I' for Inactive)
REMARK    1  A    between atoms: C_3  and  C_9 
REMARK    2  A    between atoms: C_9  and  O_11 
REMARK    3  A    between atoms: O_11  and  C_12 
ROOT
HETATM    1  N   UNL     1      68.075   2.298   9.703  1.00  0.00    -0.191 NA
HETATM    2  C   UNL     1      67.825   3.265   9.109  1.00  0.00     0.099 C 
HETATM    3  C   UNL     1      67.508   4.458   8.383  1.00  0.00     0.044 A 
HETATM    4  C   UNL     1      66.806   6.773   6.967  1.00  0.00     0.069 A 
HETATM    5  C   UNL     1      67.646   4.499   6.993  1.00  0.00     0.025 A 
HETATM    6  C   UNL     1      67.051   5.589   9.066  1.00  0.00     0.025 A 
HETATM    7  C   UNL     1      67.302   5.657   6.290  1.00  0.00     0.038 A 
HETATM    8  C   UNL     1      66.713   6.747   8.361  1.00  0.00     0.038 A 
ENDROOT
BRANCH   4   9
HETATM    9  O   UNL     1      66.442   7.829   6.177  1.00  0.00    -0.345 OA
BRANCH   9  10
HETATM   10  C   UNL     1      65.796   7.471   4.946  1.00  0.00     0.233 C 
BRANCH  10  11
HETATM   11  C   UNL     1      64.566   8.281   4.679  1.00  0.00     0.041 A 
HETATM   12  N   UNL     1      64.412   9.471   5.380  1.00  0.00    -0.355 N 
HETATM   13  C   UNL     1      63.251  10.019   5.097  1.00  0.00     0.047 A 
ATOM     14  HN  UNL     1      65.101   9.864   6.022  1.00  0.00     0.166 HD
HETATM   15  S   UNL     1      62.301   9.179   3.940  1.00  0.00    -0.087 SA
HETATM   16  C   UNL     1      62.736  11.260   5.734  1.00  0.00     0.076 C 
HETATM   17  C   UNL     1      63.514   7.973   3.837  1.00  0.00     0.078 A 
ENDBRANCH  10  11
ENDBRANCH   9  10
ENDBRANCH   4   9
TORSDOF 3
ENDMDL
MODEL 5
REMARK VINA RESULT:      -4.8      2.327      2.902
REMARK  3 active torsions:
REMARK  status: ('A' for Active; 'I' for Inactive)
REMARK    1  A    between atoms: C_3  and  C_9 
REMARK    2  A    between atoms: C_9  and  O_11 
REMARK    3  A    between atoms: O_11  and  C_12 
ROOT
HETATM    1  N   UNL     1      57.904   7.493   0.972  1.00  0.00    -0.191 NA
HETATM    2  C   UNL     1      58.921   7.709   1.493  1.00  0.00     0.099 C 
HETATM    3  C   UNL     1      60.179   7.972   2.125  1.00  0.00     0.044 A 
HETATM    4  C   UNL     1      62.672   8.417   3.326  1.00  0.00     0.069 A 
HETATM    5  C   UNL     1      60.384   7.626   3.464  1.00  0.00     0.025 A 
HETATM    6  C   UNL     1      61.212   8.571   1.399  1.00  0.00     0.025 A 
HETATM    7  C   UNL     1      61.626   7.857   4.062  1.00  0.00     0.038 A 
HETATM    8  C   UNL     1      62.451   8.805   2.002  1.00  0.00     0.038 A 
ENDROOT
BRANCH   4   9
HETATM    9  O   UNL     1      63.862   8.540   3.991  1.00  0.00    -0.345 OA
BRANCH   9  10
HETATM   10  C   UNL     1      63.833   8.131   5.365  1.00  0.00     0.233 C 
BRANCH  10  11
HETATM   11  C   UNL     1      65.137   7.558   5.828  1.00  0.00     0.041 A 
HETATM   12  N   UNL     1      65.271   7.270   7.181  1.00  0.00    -0.355 N 
HETATM   13  C   UNL     1      66.491   6.856   7.439  1.00  0.00     0.047 A 
ATOM     14  HN  UNL     1      64.529   7.366   7.875  1.00  0.00     0.166 HD
HETATM   15  S   UNL     1      67.532   6.733   6.079  1.00  0.00    -0.087 SA
HETATM   16  C   UNL     1      66.995   6.536   8.801  1.00  0.00     0.076 C 
HETATM   17  C   UNL     1      66.271   7.313   5.075  1.00  0.00     0.078 A 
ENDBRANCH  10  11
ENDBRANCH   9  10
ENDBRANCH   4   9
TORSDOF 3
ENDMDL
MODEL 6
REMARK VINA RESULT:      -4.8      3.018      6.713
REMARK  3 active torsions:
REMARK  status: ('A' for Active; 'I' for Inactive)
REMARK    1  A    between atoms: C_3  and  C_9 
REMARK    2  A    between atoms: C_9  and  O_11 
REMARK    3  A    between atoms: O_11  and  C_12 
ROOT
HETATM    1  N   UNL     1      67.596   3.177   4.976  1.00  0.00    -0.191 NA
HETATM    2  C   UNL     1      67.112   4.228   5.093  1.00  0.00     0.099 C 
HETATM    3  C   UNL     1      66.506   5.516   5.243  1.00  0.00     0.044 A 
HETATM    4  C   UNL     1      65.247   8.005   5.522  1.00  0.00     0.069 A 
HETATM    5  C   UNL     1      66.524   6.434   4.189  1.00  0.00     0.025 A 
HETATM    6  C   UNL     1      65.887   5.860   6.449  1.00  0.00     0.025 A 
HETATM    7  C   UNL     1      65.902   7.677   4.333  1.00  0.00     0.038 A 
HETATM    8  C   UNL     1      65.270   7.106   6.592  1.00  0.00     0.038 A 
ENDROOT
BRANCH   4   9
HETATM    9  O   UNL     1      64.618   9.220   5.534  1.00  0.00    -0.345 OA
BRANCH   9  10
HETATM   10  C   UNL     1      63.185   9.162   5.474  1.00  0.00     0.233 C 
BRANCH  10  11
HETATM   11  C   UNL     1      62.635   9.709   4.193  1.00  0.00     0.041 A 
HETATM   12  N   UNL     1      62.639   8.875   3.081  1.00  0.00    -0.355 N 
HETATM   13  C   UNL     1      62.204   9.524   2.025  1.00  0.00     0.047 A 
ATOM     14  HN  UNL     1      62.937   7.899   3.085  1.00  0.00     0.166 HD
HETATM   15  S   UNL     1      61.714  11.145   2.304  1.00  0.00    -0.087 SA
HETATM   16  C   UNL     1      62.154   8.950   0.654  1.00  0.00     0.076 C 
HETATM   17  C   UNL     1      62.150  10.981   3.953  1.00  0.00     0.078 A 
ENDBRANCH  10  11
ENDBRANCH   9  10
ENDBRANCH   4   9
TORSDOF 3
ENDMDL
MODEL 7
REMARK VINA RESULT:      -4.7      2.737      6.968
REMARK  3 active torsions:
REMARK  status: ('A' for Active; 'I' for Inactive)
REMARK    1  A    between atoms: C_3  and  C_9 
REMARK    2  A    between atoms: C_9  and  O_11 
REMARK    3  A    between atoms: O_11  and  C_12 
ROOT
HETATM    1  N   UNL     1      67.977   3.605   9.183  1.00  0.00    -0.191 NA
HETATM    2  C   UNL     1      67.585   4.440   8.475  1.00  0.00     0.099 C 
HETATM    3  C   UNL     1      67.112   5.473   7.603  1.00  0.00     0.044 A 
HETATM    4  C   UNL     1      66.232   7.551   5.941  1.00  0.00     0.069 A 
HETATM    5  C   UNL     1      65.842   6.027   7.786  1.00  0.00     0.025 A 
HETATM    6  C   UNL     1      67.927   5.937   6.567  1.00  0.00     0.025 A 
HETATM    7  C   UNL     1      65.402   7.058   6.951  1.00  0.00     0.038 A 
HETATM    8  C   UNL     1      67.482   6.965   5.730  1.00  0.00     0.038 A 
ENDROOT
BRANCH   4   9
HETATM    9  O   UNL     1      65.727   8.602   5.224  1.00  0.00    -0.345 OA
BRANCH   9  10
HETATM   10  C   UNL     1      64.296   8.707   5.227  1.00  0.00     0.233 C 
BRANCH  10  11
HETATM   11  C   UNL     1      63.677   8.228   3.951  1.00  0.00     0.041 A 
HETATM   12  N   UNL     1      62.839   9.105   3.272  1.00  0.00    -0.355 N 
HETATM   13  C   UNL     1      62.313   8.512   2.224  1.00  0.00     0.047 A 
ATOM     14  HN  UNL     1      62.659  10.071   3.547  1.00  0.00     0.166 HD
HETATM   15  S   UNL     1      62.826   6.897   1.955  1.00  0.00    -0.087 SA
HETATM   16  C   UNL     1      61.311   9.142   1.323  1.00  0.00     0.076 C 
HETATM   17  C   UNL     1      63.795   6.982   3.365  1.00  0.00     0.078 A 
ENDBRANCH  10  11
ENDBRANCH   9  10
ENDBRANCH   4   9
TORSDOF 3
ENDMDL
MODEL 8
REMARK VINA RESULT:      -4.6      4.248      6.891
REMARK  3 active torsions:
REMARK  status: ('A' for Active; 'I' for Inactive)
REMARK    1  A    between atoms: C_3  and  C_9 
REMARK    2  A    between atoms: C_9  and  O_11 
REMARK    3  A    between atoms: O_11  and  C_12 
ROOT
HETATM    1  N   UNL     1      66.547   8.563   6.644  1.00  0.00    -0.191 NA
HETATM    2  C   UNL     1      65.784   8.324   5.801  1.00  0.00     0.099 C 
HETATM    3  C   UNL     1      64.852   8.026   4.755  1.00  0.00     0.044 A 
HETATM    4  C   UNL     1      63.085   7.470   2.652  1.00  0.00     0.069 A 
HETATM    5  C   UNL     1      63.802   8.903   4.472  1.00  0.00     0.025 A 
HETATM    6  C   UNL     1      64.996   6.854   4.006  1.00  0.00     0.025 A 
HETATM    7  C   UNL     1      62.917   8.620   3.427  1.00  0.00     0.038 A 
HETATM    8  C   UNL     1      64.107   6.571   2.966  1.00  0.00     0.038 A 
ENDROOT
BRANCH   4   9
HETATM    9  O   UNL     1      62.201   7.323   1.617  1.00  0.00    -0.345 OA
BRANCH   9  10
HETATM   10  C   UNL     1      61.209   8.354   1.515  1.00  0.00     0.233 C 
BRANCH  10  11
HETATM   11  C   UNL     1      59.815   7.838   1.686  1.00  0.00     0.041 A 
HETATM   12  N   UNL     1      59.240   7.937   2.947  1.00  0.00    -0.355 N 
HETATM   13  C   UNL     1      58.056   7.369   2.954  1.00  0.00     0.047 A 
ATOM     14  HN  UNL     1      59.675   8.387   3.753  1.00  0.00     0.166 HD
HETATM   15  S   UNL     1      57.534   6.732   1.447  1.00  0.00    -0.087 SA
HETATM   16  C   UNL     1      57.202   7.229   4.164  1.00  0.00     0.076 C 
HETATM   17  C   UNL     1      59.017   7.219   0.741  1.00  0.00     0.078 A 
ENDBRANCH  10  11
ENDBRANCH   9  10
ENDBRANCH   4   9
TORSDOF 3
ENDMDL
MODEL 9
REMARK VINA RESULT:      -4.5      4.235      7.182
REMARK  3 active torsions:
REMARK  status: ('A' for Active; 'I' for Inactive)
REMARK    1  A    between atoms: C_3  and  C_9 
REMARK    2  A    between atoms: C_9  and  O_11 
REMARK    3  A    between atoms: O_11  and  C_12 
ROOT
HETATM    1  N   UNL     1      66.171   8.169   6.517  1.00  0.00    -0.191 NA
HETATM    2  C   UNL     1      65.295   8.403   5.790  1.00  0.00     0.099 C 
HETATM    3  C   UNL     1      64.209   8.695   4.903  1.00  0.00     0.044 A 
HETATM    4  C   UNL     1      62.030   9.235   3.225  1.00  0.00     0.069 A 
HETATM    5  C   UNL     1      63.908   7.832   3.846  1.00  0.00     0.025 A 
HETATM    6  C   UNL     1      63.439   9.845   5.098  1.00  0.00     0.025 A 
HETATM    7  C   UNL     1      62.825   8.108   3.005  1.00  0.00     0.038 A 
HETATM    8  C   UNL     1      62.361  10.121   4.253  1.00  0.00     0.038 A 
ENDROOT
BRANCH   4   9
HETATM    9  O   UNL     1      60.960   9.375   2.383  1.00  0.00    -0.345 OA
BRANCH   9  10
HETATM   10  C   UNL     1      61.101   8.728   1.110  1.00  0.00     0.233 C 
BRANCH  10  11
HETATM   11  C   UNL     1      60.040   7.701   0.860  1.00  0.00     0.041 A 
HETATM   12  N   UNL     1      58.773   7.942   1.379  1.00  0.00    -0.355 N 
HETATM   13  C   UNL     1      57.984   6.917   1.148  1.00  0.00     0.047 A 
ATOM     14  HN  UNL     1      58.496   8.792   1.871  1.00  0.00     0.166 HD
HETATM   15  S   UNL     1      58.687   5.633   0.251  1.00  0.00    -0.087 SA
HETATM   16  C   UNL     1      56.583   6.814   1.636  1.00  0.00     0.076 C 
HETATM   17  C   UNL     1      60.168   6.493   0.201  1.00  0.00     0.078 A 
ENDBRANCH  10  11
ENDBRANCH   9  10
ENDBRANCH   4   9
TORSDOF 3
ENDMDL
