MODEL 1
REMARK VINA RESULT:      -4.2      0.000      0.000
REMARK  2 active torsions:
REMARK  status: ('A' for Active; 'I' for Inactive)
REMARK    1  A    between atoms: C_3  and  C_6 
REMARK    2  A    between atoms: C_6  and  C_8 
ROOT
HETATM    1  N   UNL     1      64.935   8.796   5.358  1.00  0.00    -0.357 N 
ATOM      2  HN  UNL     1      65.416   9.609   4.974  1.00  0.00     0.166 HD
HETATM    3  C   UNL     1      63.568   8.569   5.276  1.00  0.00     0.026 A 
HETATM    4  C   UNL     1      65.523   7.811   6.004  1.00  0.00     0.047 A 
HETATM    5  S   UNL     1      64.476   6.572   6.568  1.00  0.00    -0.087 SA
HETATM    6  C   UNL     1      63.143   7.410   5.900  1.00  0.00     0.077 A 
HETATM    7  C   UNL     1      66.986   7.721   6.254  1.00  0.00     0.076 C 
ENDROOT
BRANCH   3   8
HETATM    8  C   UNL     1      62.720   9.577   4.571  1.00  0.00     0.170 C 
BRANCH   8   9
HETATM    9  C   UNL     1      62.737  10.920   5.254  1.00  0.00     0.178 C 
HETATM   10  O   UNL     1      63.339  11.238   6.268  1.00  0.00    -0.648 OA
HETATM   11  O   UNL     1      62.047  11.857   4.568  1.00  0.00    -0.648 OA
ENDBRANCH   8   9
ENDBRANCH   3   8
TORSDOF 2
ENDMDL
MODEL 2
REMARK VINA RESULT:      -4.0      2.177      2.568
REMARK  2 active torsions:
REMARK  status: ('A' for Active; 'I' for Inactive)
REMARK    1  A    between atoms: C_3  and  C_6 
REMARK    2  A    between atoms: C_6  and  C_8 
ROOT
HETATM    1  N   UNL     1      63.425   9.034   4.040  1.00  0.00    -0.357 N 
ATOM      2  HN  UNL     1      63.325   9.919   4.537  1.00  0.00     0.166 HD
HETATM    3  C   UNL     1      62.693   8.666   2.920  1.00  0.00     0.026 A 
HETATM    4  C   UNL     1      64.269   8.078   4.369  1.00  0.00     0.047 A 
HETATM    5  S   UNL     1      64.219   6.678   3.375  1.00  0.00    -0.087 SA
HETATM    6  C   UNL     1      62.984   7.402   2.437  1.00  0.00     0.077 A 
HETATM    7  C   UNL     1      65.224   8.151   5.506  1.00  0.00     0.076 C 
ENDROOT
BRANCH   3   8
HETATM    8  C   UNL     1      61.680   9.623   2.383  1.00  0.00     0.170 C 
BRANCH   8   9
HETATM    9  C   UNL     1      61.817  11.000   2.981  1.00  0.00     0.178 C 
HETATM   10  O   UNL     1      61.793  11.309   4.162  1.00  0.00    -0.648 OA
HETATM   11  O   UNL     1      62.072  11.944   2.050  1.00  0.00    -0.648 OA
ENDBRANCH   8   9
ENDBRANCH   3   8
TORSDOF 2
ENDMDL
MODEL 3
REMARK VINA RESULT:      -4.0      3.331      4.614
REMARK  2 active torsions:
REMARK  status: ('A' for Active; 'I' for Inactive)
REMARK    1  A    between atoms: C_3  and  C_6 
REMARK    2  A    between atoms: C_6  and  C_8 
ROOT
HETATM    1  N   UNL     1      61.888   9.745   3.524  1.00  0.00    -0.357 N 
ATOM      2  HN  UNL     1      61.786  10.277   4.388  1.00  0.00     0.166 HD
HETATM    3  C   UNL     1      62.025   8.365   3.453  1.00  0.00     0.026 A 
HETATM    4  C   UNL     1      61.909  10.268   2.317  1.00  0.00     0.047 A 
HETATM    5  S   UNL     1      62.116   9.148   1.032  1.00  0.00    -0.087 SA
HETATM    6  C   UNL     1      62.180   7.872   2.170  1.00  0.00     0.077 A 
HETATM    7  C   UNL     1      61.764  11.719   2.024  1.00  0.00     0.076 C 
ENDROOT
BRANCH   3   8
HETATM    8  C   UNL     1      62.020   7.582   4.725  1.00  0.00     0.170 C 
BRANCH   8   9
HETATM    9  C   UNL     1      62.967   8.147   5.752  1.00  0.00     0.178 C 
HETATM   10  O   UNL     1      63.866   8.955   5.577  1.00  0.00    -0.648 OA
HETATM   11  O   UNL     1      62.682   7.728   7.004  1.00  0.00    -0.648 OA
ENDBRANCH   8   9
ENDBRANCH   3   8
TORSDOF 2
ENDMDL
MODEL 4
REMARK VINA RESULT:      -3.9      2.161      3.000
REMARK  2 active torsions:
REMARK  status: ('A' for Active; 'I' for Inactive)
REMARK    1  A    between atoms: C_3  and  C_6 
REMARK    2  A    between atoms: C_6  and  C_8 
ROOT
HETATM    1  N   UNL     1      65.685   7.337   7.096  1.00  0.00    -0.357 N 
ATOM      2  HN  UNL     1      64.914   7.866   7.503  1.00  0.00     0.166 HD
HETATM    3  C   UNL     1      65.974   7.273   5.739  1.00  0.00     0.026 A 
HETATM    4  C   UNL     1      66.549   6.619   7.781  1.00  0.00     0.047 A 
HETATM    5  S   UNL     1      67.740   5.809   6.845  1.00  0.00    -0.087 SA
HETATM    6  C   UNL     1      67.052   6.467   5.423  1.00  0.00     0.077 A 
HETATM    7  C   UNL     1      66.548   6.485   9.262  1.00  0.00     0.076 C 
ENDROOT
BRANCH   3   8
HETATM    8  C   UNL     1      65.105   8.030   4.789  1.00  0.00     0.170 C 
BRANCH   8   9
HETATM    9  C   UNL     1      64.117   8.920   5.497  1.00  0.00     0.178 C 
HETATM   10  O   UNL     1      62.975   8.650   5.837  1.00  0.00    -0.648 OA
HETATM   11  O   UNL     1      64.648  10.115   5.834  1.00  0.00    -0.648 OA
ENDBRANCH   8   9
ENDBRANCH   3   8
TORSDOF 2
ENDMDL
MODEL 5
REMARK VINA RESULT:      -3.8      3.427      4.626
REMARK  2 active torsions:
REMARK  status: ('A' for Active; 'I' for Inactive)
REMARK    1  A    between atoms: C_3  and  C_6 
REMARK    2  A    between atoms: C_6  and  C_8 
ROOT
HETATM    1  N   UNL     1      60.917   8.923   3.602  1.00  0.00    -0.357 N 
ATOM      2  HN  UNL     1      60.547   8.756   4.537  1.00  0.00     0.166 HD
HETATM    3  C   UNL     1      61.802   9.939   3.267  1.00  0.00     0.026 A 
HETATM    4  C   UNL     1      60.624   8.204   2.538  1.00  0.00     0.047 A 
HETATM    5  S   UNL     1      61.369   8.714   1.077  1.00  0.00    -0.087 SA
HETATM    6  C   UNL     1      62.139   9.984   1.927  1.00  0.00     0.077 A 
HETATM    7  C   UNL     1      59.722   7.022   2.542  1.00  0.00     0.076 C 
ENDROOT
BRANCH   3   8
HETATM    8  C   UNL     1      62.263  10.866   4.344  1.00  0.00     0.170 C 
BRANCH   8   9
HETATM    9  C   UNL     1      63.055  10.158   5.412  1.00  0.00     0.178 C 
HETATM   10  O   UNL     1      62.954   8.996   5.773  1.00  0.00    -0.648 OA
HETATM   11  O   UNL     1      64.025  10.937   5.937  1.00  0.00    -0.648 OA
ENDBRANCH   8   9
ENDBRANCH   3   8
TORSDOF 2
ENDMDL
MODEL 6
REMARK VINA RESULT:      -3.8      4.760      5.577
REMARK  2 active torsions:
REMARK  status: ('A' for Active; 'I' for Inactive)
REMARK    1  A    between atoms: C_3  and  C_6 
REMARK    2  A    between atoms: C_6  and  C_8 
ROOT
HETATM    1  N   UNL     1      60.168   8.388   2.990  1.00  0.00    -0.357 N 
ATOM      2  HN  UNL     1      60.425   8.710   3.923  1.00  0.00     0.166 HD
HETATM    3  C   UNL     1      60.861   8.691   1.826  1.00  0.00     0.026 A 
HETATM    4  C   UNL     1      59.130   7.625   2.718  1.00  0.00     0.047 A 
HETATM    5  S   UNL     1      58.910   7.245   1.057  1.00  0.00    -0.087 SA
HETATM    6  C   UNL     1      60.302   8.164   0.675  1.00  0.00     0.077 A 
HETATM    7  C   UNL     1      58.183   7.094   3.735  1.00  0.00     0.076 C 
ENDROOT
BRANCH   3   8
HETATM    8  C   UNL     1      62.080   9.548   1.925  1.00  0.00     0.170 C 
BRANCH   8   9
HETATM    9  C   UNL     1      61.844  10.791   2.743  1.00  0.00     0.178 C 
HETATM   10  O   UNL     1      61.606  10.867   3.938  1.00  0.00    -0.648 OA
HETATM   11  O   UNL     1      62.004  11.922   2.022  1.00  0.00    -0.648 OA
ENDBRANCH   8   9
ENDBRANCH   3   8
TORSDOF 2
ENDMDL
MODEL 7
REMARK VINA RESULT:      -3.6      3.938      5.232
REMARK  2 active torsions:
REMARK  status: ('A' for Active; 'I' for Inactive)
REMARK    1  A    between atoms: C_3  and  C_6 
REMARK    2  A    between atoms: C_6  and  C_8 
ROOT
HETATM    1  N   UNL     1      64.609   6.843   6.986  1.00  0.00    -0.357 N 
ATOM      2  HN  UNL     1      64.343   6.262   7.780  1.00  0.00     0.166 HD
HETATM    3  C   UNL     1      65.910   7.215   6.673  1.00  0.00     0.026 A 
HETATM    4  C   UNL     1      63.767   7.349   6.109  1.00  0.00     0.047 A 
HETATM    5  S   UNL     1      64.476   8.314   4.878  1.00  0.00    -0.087 SA
HETATM    6  C   UNL     1      66.019   8.034   5.564  1.00  0.00     0.077 A 
HETATM    7  C   UNL     1      62.296   7.130   6.129  1.00  0.00     0.076 C 
ENDROOT
BRANCH   3   8
HETATM    8  C   UNL     1      67.019   6.735   7.552  1.00  0.00     0.170 C 
BRANCH   8   9
HETATM    9  C   UNL     1      66.518   5.914   8.712  1.00  0.00     0.178 C 
HETATM   10  O   UNL     1      66.369   4.703   8.763  1.00  0.00    -0.648 OA
HETATM   11  O   UNL     1      66.300   6.660   9.816  1.00  0.00    -0.648 OA
ENDBRANCH   8   9
ENDBRANCH   3   8
TORSDOF 2
ENDMDL
MODEL 8
REMARK VINA RESULT:      -3.6      1.712      2.489
REMARK  2 active torsions:
REMARK  status: ('A' for Active; 'I' for Inactive)
REMARK    1  A    between atoms: C_3  and  C_6 
REMARK    2  A    between atoms: C_6  and  C_8 
ROOT
HETATM    1  N   UNL     1      62.610   8.070   5.609  1.00  0.00    -0.357 N 
ATOM      2  HN  UNL     1      61.617   8.232   5.773  1.00  0.00     0.166 HD
HETATM    3  C   UNL     1      63.526   9.051   5.252  1.00  0.00     0.026 A 
HETATM    4  C   UNL     1      63.208   6.901   5.706  1.00  0.00     0.047 A 
HETATM    5  S   UNL     1      64.889   6.903   5.354  1.00  0.00    -0.087 SA
HETATM    6  C   UNL     1      64.813   8.585   5.053  1.00  0.00     0.077 A 
HETATM    7  C   UNL     1      62.529   5.636   6.093  1.00  0.00     0.076 C 
ENDROOT
BRANCH   3   8
HETATM    8  C   UNL     1      63.041  10.455   5.096  1.00  0.00     0.170 C 
BRANCH   8   9
HETATM    9  C   UNL     1      62.078  10.606   3.947  1.00  0.00     0.178 C 
HETATM   10  O   UNL     1      61.440   9.730   3.384  1.00  0.00    -0.648 OA
HETATM   11  O   UNL     1      61.887  11.897   3.599  1.00  0.00    -0.648 OA
ENDBRANCH   8   9
ENDBRANCH   3   8
TORSDOF 2
ENDMDL
MODEL 9
REMARK VINA RESULT:      -3.6      3.236      4.560
REMARK  2 active torsions:
REMARK  status: ('A' for Active; 'I' for Inactive)
REMARK    1  A    between atoms: C_3  and  C_6 
REMARK    2  A    between atoms: C_6  and  C_8 
ROOT
HETATM    1  N   UNL     1      63.328   8.422   3.389  1.00  0.00    -0.357 N 
ATOM      2  HN  UNL     1      63.711   7.580   2.960  1.00  0.00     0.166 HD
HETATM    3  C   UNL     1      63.724   8.939   4.616  1.00  0.00     0.026 A 
HETATM    4  C   UNL     1      62.386   9.174   2.860  1.00  0.00     0.047 A 
HETATM    5  S   UNL     1      61.905  10.526   3.805  1.00  0.00    -0.087 SA
HETATM    6  C   UNL     1      63.038  10.074   5.005  1.00  0.00     0.077 A 
HETATM    7  C   UNL     1      61.750   8.925   1.539  1.00  0.00     0.076 C 
ENDROOT
BRANCH   3   8
HETATM    8  C   UNL     1      64.794   8.226   5.377  1.00  0.00     0.170 C 
BRANCH   8   9
HETATM    9  C   UNL     1      64.267   7.028   6.123  1.00  0.00     0.178 C 
HETATM   10  O   UNL     1      63.625   6.090   5.677  1.00  0.00    -0.648 OA
HETATM   11  O   UNL     1      64.652   7.015   7.418  1.00  0.00    -0.648 OA
ENDBRANCH   8   9
ENDBRANCH   3   8
TORSDOF 2
ENDMDL
