MODEL 1
REMARK VINA RESULT:      -4.2      0.000      0.000
REMARK  1 active torsions:
REMARK  status: ('A' for Active; 'I' for Inactive)
REMARK    1  A    between atoms: N_5  and  C_11 
ROOT
HETATM    1  C   UNL     1      62.011  10.494   2.317  1.00  0.00    -0.090 C 
HETATM    2  C   UNL     1      61.774  11.625   1.981  1.00  0.00     0.013 C 
HETATM    3  C   UNL     1      62.275   9.115   2.752  1.00  0.00     0.327 C 
ENDROOT
BRANCH   3   4
HETATM    4  N   UNL     1      61.947   8.926   4.172  1.00  0.00    -0.059 N 
HETATM    5  C   UNL     1      61.753   7.530   4.584  1.00  0.00     0.250 C 
HETATM    6  C   UNL     1      62.994   6.658   4.545  1.00  0.00     0.168 C 
HETATM    7  S   UNL     1      64.304   7.354   5.516  1.00  0.00     0.147 S 
HETATM    8  C   UNL     1      64.278   9.086   5.130  1.00  0.00     0.168 C 
HETATM    9  O   UNL     1      65.554   6.815   5.009  1.00  0.00    -0.228 OA
HETATM   10  O   UNL     1      63.956   7.201   6.917  1.00  0.00    -0.228 OA
HETATM   11  C   UNL     1      62.862   9.625   5.082  1.00  0.00     0.250 C 
HETATM   12  H   UNL     1      61.032   9.369   4.257  1.00  0.00     0.281 HD
ENDBRANCH   3   4
TORSDOF 1
ENDMDL
MODEL 2
REMARK VINA RESULT:      -4.0      4.555      6.453
REMARK  1 active torsions:
REMARK  status: ('A' for Active; 'I' for Inactive)
REMARK    1  A    between atoms: N_5  and  C_11 
ROOT
HETATM    1  C   UNL     1      67.957   4.310   7.615  1.00  0.00    -0.090 C 
HETATM    2  C   UNL     1      68.075   3.666   8.626  1.00  0.00     0.013 C 
HETATM    3  C   UNL     1      67.832   5.123   6.397  1.00  0.00     0.327 C 
ENDROOT
BRANCH   3   4
HETATM    4  N   UNL     1      67.837   6.560   6.706  1.00  0.00    -0.059 N 
HETATM    5  C   UNL     1      67.954   7.445   5.539  1.00  0.00     0.250 C 
HETATM    6  C   UNL     1      66.765   7.444   4.598  1.00  0.00     0.168 C 
HETATM    7  S   UNL     1      65.262   7.836   5.453  1.00  0.00     0.147 S 
HETATM    8  C   UNL     1      65.349   6.908   6.963  1.00  0.00     0.168 C 
HETATM    9  O   UNL     1      64.163   7.291   4.673  1.00  0.00    -0.228 OA
HETATM   10  O   UNL     1      65.290   9.247   5.791  1.00  0.00    -0.228 OA
HETATM   11  C   UNL     1      66.734   6.975   7.579  1.00  0.00     0.250 C 
HETATM   12  H   UNL     1      68.704   6.678   7.231  1.00  0.00     0.281 HD
ENDBRANCH   3   4
TORSDOF 1
ENDMDL
MODEL 3
REMARK VINA RESULT:      -3.8      3.016      3.768
REMARK  1 active torsions:
REMARK  status: ('A' for Active; 'I' for Inactive)
REMARK    1  A    between atoms: N_5  and  C_11 
ROOT
HETATM    1  C   UNL     1      63.770   9.270   5.024  1.00  0.00    -0.090 C 
HETATM    2  C   UNL     1      62.902  10.102   5.092  1.00  0.00     0.013 C 
HETATM    3  C   UNL     1      64.822   8.245   4.974  1.00  0.00     0.327 C 
ENDROOT
BRANCH   3   4
HETATM    4  N   UNL     1      65.352   7.950   6.313  1.00  0.00    -0.059 N 
HETATM    5  C   UNL     1      64.924   6.665   6.881  1.00  0.00     0.250 C 
HETATM    6  C   UNL     1      65.457   5.432   6.177  1.00  0.00     0.168 C 
HETATM    7  S   UNL     1      67.228   5.448   6.093  1.00  0.00     0.147 S 
HETATM    8  C   UNL     1      67.640   7.116   5.649  1.00  0.00     0.168 C 
HETATM    9  O   UNL     1      67.619   4.596   4.983  1.00  0.00    -0.228 OA
HETATM   10  O   UNL     1      67.746   5.198   7.426  1.00  0.00    -0.228 OA
HETATM   11  C   UNL     1      66.805   8.121   6.419  1.00  0.00     0.250 C 
HETATM   12  H   UNL     1      64.916   8.668   6.894  1.00  0.00     0.281 HD
ENDBRANCH   3   4
TORSDOF 1
ENDMDL
MODEL 4
REMARK VINA RESULT:      -3.8      1.378      1.602
REMARK  1 active torsions:
REMARK  status: ('A' for Active; 'I' for Inactive)
REMARK    1  A    between atoms: N_5  and  C_11 
ROOT
HETATM    1  C   UNL     1      62.449   8.769   2.366  1.00  0.00    -0.090 C 
HETATM    2  C   UNL     1      61.967   9.588   1.626  1.00  0.00     0.013 C 
HETATM    3  C   UNL     1      63.017   7.782   3.296  1.00  0.00     0.327 C 
ENDROOT
BRANCH   3   4
HETATM    4  N   UNL     1      63.024   8.284   4.677  1.00  0.00    -0.059 N 
HETATM    5  C   UNL     1      62.531   7.337   5.684  1.00  0.00     0.250 C 
HETATM    6  C   UNL     1      63.399   6.114   5.910  1.00  0.00     0.168 C 
HETATM    7  S   UNL     1      65.061   6.568   6.330  1.00  0.00     0.147 S 
HETATM    8  C   UNL     1      65.459   7.893   5.218  1.00  0.00     0.168 C 
HETATM    9  O   UNL     1      65.918   5.445   5.989  1.00  0.00    -0.228 OA
HETATM   10  O   UNL     1      65.055   7.102   7.680  1.00  0.00    -0.228 OA
HETATM   11  C   UNL     1      64.307   8.870   5.081  1.00  0.00     0.250 C 
HETATM   12  H   UNL     1      62.338   9.040   4.649  1.00  0.00     0.281 HD
ENDBRANCH   3   4
TORSDOF 1
ENDMDL
MODEL 5
REMARK VINA RESULT:      -3.7      4.092      5.755
REMARK  1 active torsions:
REMARK  status: ('A' for Active; 'I' for Inactive)
REMARK    1  A    between atoms: N_5  and  C_11 
ROOT
HETATM    1  C   UNL     1      67.490   3.785   3.865  1.00  0.00    -0.090 C 
HETATM    2  C   UNL     1      67.547   3.116   2.866  1.00  0.00     0.013 C 
HETATM    3  C   UNL     1      67.408   4.628   5.066  1.00  0.00     0.327 C 
ENDROOT
BRANCH   3   4
HETATM    4  N   UNL     1      67.556   6.053   4.735  1.00  0.00    -0.059 N 
HETATM    5  C   UNL     1      66.466   6.619   3.930  1.00  0.00     0.250 C 
HETATM    6  C   UNL     1      65.121   6.711   4.624  1.00  0.00     0.168 C 
HETATM    7  S   UNL     1      65.235   7.626   6.139  1.00  0.00     0.147 S 
HETATM    8  C   UNL     1      66.725   7.041   6.905  1.00  0.00     0.168 C 
HETATM    9  O   UNL     1      64.125   7.215   6.981  1.00  0.00    -0.228 OA
HETATM   10  O   UNL     1      65.422   9.027   5.807  1.00  0.00    -0.228 OA
HETATM   11  C   UNL     1      67.850   6.897   5.899  1.00  0.00     0.250 C 
HETATM   12  H   UNL     1      68.379   6.063   4.133  1.00  0.00     0.281 HD
ENDBRANCH   3   4
TORSDOF 1
ENDMDL
MODEL 6
REMARK VINA RESULT:      -3.7      1.601      1.857
REMARK  1 active torsions:
REMARK  status: ('A' for Active; 'I' for Inactive)
REMARK    1  A    between atoms: N_5  and  C_11 
ROOT
HETATM    1  C   UNL     1      60.889   8.473   1.055  1.00  0.00    -0.090 C 
HETATM    2  C   UNL     1      60.073   7.997   0.308  1.00  0.00     0.013 C 
HETATM    3  C   UNL     1      61.869   9.038   1.993  1.00  0.00     0.327 C 
ENDROOT
BRANCH   3   4
HETATM    4  N   UNL     1      61.297   9.200   3.338  1.00  0.00    -0.059 N 
HETATM    5  C   UNL     1      60.856   7.954   3.978  1.00  0.00     0.250 C 
HETATM    6  C   UNL     1      61.962   6.983   4.345  1.00  0.00     0.168 C 
HETATM    7  S   UNL     1      63.180   7.749   5.381  1.00  0.00     0.147 S 
HETATM    8  C   UNL     1      63.445   9.347   4.657  1.00  0.00     0.168 C 
HETATM    9  O   UNL     1      64.414   6.996   5.232  1.00  0.00    -0.228 OA
HETATM   10  O   UNL     1      62.596   7.944   6.696  1.00  0.00    -0.228 OA
HETATM   11  C   UNL     1      62.138   9.994   4.240  1.00  0.00     0.250 C 
HETATM   12  H   UNL     1      60.446   9.736   3.161  1.00  0.00     0.281 HD
ENDBRANCH   3   4
TORSDOF 1
ENDMDL
MODEL 7
REMARK VINA RESULT:      -3.7      3.633      5.537
REMARK  1 active torsions:
REMARK  status: ('A' for Active; 'I' for Inactive)
REMARK    1  A    between atoms: N_5  and  C_11 
ROOT
HETATM    1  C   UNL     1      67.015   6.045   8.460  1.00  0.00    -0.090 C 
HETATM    2  C   UNL     1      68.074   5.627   8.852  1.00  0.00     0.013 C 
HETATM    3  C   UNL     1      65.720   6.528   7.959  1.00  0.00     0.327 C 
ENDROOT
BRANCH   3   4
HETATM    4  N   UNL     1      65.499   6.124   6.562  1.00  0.00    -0.059 N 
HETATM    5  C   UNL     1      64.093   5.923   6.190  1.00  0.00     0.250 C 
HETATM    6  C   UNL     1      63.235   7.174   6.177  1.00  0.00     0.168 C 
HETATM    7  S   UNL     1      63.924   8.421   5.122  1.00  0.00     0.147 S 
HETATM    8  C   UNL     1      65.663   8.397   5.474  1.00  0.00     0.168 C 
HETATM    9  O   UNL     1      63.410   9.704   5.570  1.00  0.00    -0.228 OA
HETATM   10  O   UNL     1      63.740   7.999   3.745  1.00  0.00    -0.228 OA
HETATM   11  C   UNL     1      66.189   6.979   5.590  1.00  0.00     0.250 C 
HETATM   12  H   UNL     1      65.931   5.201   6.520  1.00  0.00     0.281 HD
ENDBRANCH   3   4
TORSDOF 1
ENDMDL
MODEL 8
REMARK VINA RESULT:      -3.6      1.953      2.834
REMARK  1 active torsions:
REMARK  status: ('A' for Active; 'I' for Inactive)
REMARK    1  A    between atoms: N_5  and  C_11 
ROOT
HETATM    1  C   UNL     1      60.519   7.670   1.453  1.00  0.00    -0.090 C 
HETATM    2  C   UNL     1      59.777   8.148   0.635  1.00  0.00     0.013 C 
HETATM    3  C   UNL     1      61.441   7.118   2.457  1.00  0.00     0.327 C 
ENDROOT
BRANCH   3   4
HETATM    4  N   UNL     1      62.714   7.853   2.481  1.00  0.00    -0.059 N 
HETATM    5  C   UNL     1      62.635   9.211   3.032  1.00  0.00     0.250 C 
HETATM    6  C   UNL     1      62.324   9.298   4.514  1.00  0.00     0.168 C 
HETATM    7  S   UNL     1      63.486   8.368   5.476  1.00  0.00     0.147 S 
HETATM    8  C   UNL     1      63.698   6.850   4.580  1.00  0.00     0.168 C 
HETATM    9  O   UNL     1      62.843   8.039   6.737  1.00  0.00    -0.228 OA
HETATM   10  O   UNL     1      64.753   9.076   5.462  1.00  0.00    -0.228 OA
HETATM   11  C   UNL     1      63.815   7.096   3.087  1.00  0.00     0.250 C 
HETATM   12  H   UNL     1      62.930   7.967   1.490  1.00  0.00     0.281 HD
ENDBRANCH   3   4
TORSDOF 1
ENDMDL
MODEL 9
REMARK VINA RESULT:      -3.5      3.085      4.213
REMARK  1 active torsions:
REMARK  status: ('A' for Active; 'I' for Inactive)
REMARK    1  A    between atoms: N_5  and  C_11 
ROOT
HETATM    1  C   UNL     1      63.430   8.434   4.653  1.00  0.00    -0.090 C 
HETATM    2  C   UNL     1      62.883   9.066   3.787  1.00  0.00     0.013 C 
HETATM    3  C   UNL     1      64.129   7.675   5.701  1.00  0.00     0.327 C 
ENDROOT
BRANCH   3   4
HETATM    4  N   UNL     1      65.499   7.332   5.293  1.00  0.00    -0.059 N 
HETATM    5  C   UNL     1      66.553   7.813   6.195  1.00  0.00     0.250 C 
HETATM    6  C   UNL     1      66.583   7.168   7.568  1.00  0.00     0.168 C 
HETATM    7  S   UNL     1      66.704   5.403   7.451  1.00  0.00     0.147 S 
HETATM    8  C   UNL     1      65.575   4.960   6.156  1.00  0.00     0.168 C 
HETATM    9  O   UNL     1      66.182   4.849   8.689  1.00  0.00    -0.228 OA
HETATM   10  O   UNL     1      68.046   5.071   7.009  1.00  0.00    -0.228 OA
HETATM   11  C   UNL     1      65.677   5.910   4.978  1.00  0.00     0.250 C 
HETATM   12  H   UNL     1      65.617   7.855   4.425  1.00  0.00     0.281 HD
ENDBRANCH   3   4
TORSDOF 1
ENDMDL
