MODEL 1
REMARK VINA RESULT:      -4.7      0.000      0.000
REMARK  2 active torsions:
REMARK  status: ('A' for Active; 'I' for Inactive)
REMARK    1  A    between atoms: C_3  and  O_10 
REMARK    2  A    between atoms: C_8  and  O_11 
ROOT
HETATM    1  C   UNL     1      62.841   9.827   5.052  1.00  0.00     0.080 A 
HETATM    2  C   UNL     1      61.435   9.153   3.212  1.00  0.00     0.065 A 
HETATM    3  C   UNL     1      62.089  10.166   3.917  1.00  0.00     0.090 A 
HETATM    4  N   UNL     1      64.091  11.605   6.475  1.00  0.00    -0.191 NA
HETATM    5  C   UNL     1      63.526  10.833   5.819  1.00  0.00     0.102 C 
HETATM    6  C   UNL     1      61.508   7.826   3.650  1.00  0.00     0.070 A 
HETATM    7  C   UNL     1      62.929   8.488   5.475  1.00  0.00     0.064 A 
HETATM    8  C   UNL     1      62.251   7.478   4.788  1.00  0.00     0.091 A 
HETATM    9 CL   UNL     1      60.638   6.633   2.746  1.00  0.00    -0.081 Cl
ENDROOT
BRANCH   3  10
HETATM   10  O   UNL     1      62.044  11.495   3.587  1.00  0.00    -0.354 OA
HETATM   11  C   UNL     1      61.763  11.832   2.233  1.00  0.00     0.210 C 
ENDBRANCH   3  10
BRANCH   8  12
HETATM   12  O   UNL     1      62.246   6.159   5.149  1.00  0.00    -0.354 OA
HETATM   13  C   UNL     1      61.522   5.787   6.315  1.00  0.00     0.210 C 
ENDBRANCH   8  12
TORSDOF 2
ENDMDL
MODEL 2
REMARK VINA RESULT:      -4.6      1.802      2.011
REMARK  2 active torsions:
REMARK  status: ('A' for Active; 'I' for Inactive)
REMARK    1  A    between atoms: C_3  and  O_10 
REMARK    2  A    between atoms: C_8  and  O_11 
ROOT
HETATM    1  C   UNL     1      63.148   9.690   4.606  1.00  0.00     0.080 A 
HETATM    2  C   UNL     1      62.352   8.893   2.473  1.00  0.00     0.065 A 
HETATM    3  C   UNL     1      62.365   9.884   3.457  1.00  0.00     0.090 A 
HETATM    4  N   UNL     1      63.253  11.434   6.528  1.00  0.00    -0.191 NA
HETATM    5  C   UNL     1      63.190  10.675   5.653  1.00  0.00     0.102 C 
HETATM    6  C   UNL     1      63.085   7.714   2.647  1.00  0.00     0.070 A 
HETATM    7  C   UNL     1      63.901   8.512   4.765  1.00  0.00     0.064 A 
HETATM    8  C   UNL     1      63.864   7.507   3.796  1.00  0.00     0.091 A 
HETATM    9 CL   UNL     1      62.987   6.516   1.401  1.00  0.00    -0.081 Cl
ENDROOT
BRANCH   3  10
HETATM   10  O   UNL     1      61.652  11.052   3.393  1.00  0.00    -0.354 OA
HETATM   11  C   UNL     1      61.718  11.802   2.184  1.00  0.00     0.210 C 
ENDBRANCH   3  10
BRANCH   8  12
HETATM   12  O   UNL     1      64.529   6.315   3.884  1.00  0.00    -0.354 OA
HETATM   13  C   UNL     1      65.944   6.326   3.747  1.00  0.00     0.210 C 
ENDBRANCH   8  12
TORSDOF 2
ENDMDL
MODEL 3
REMARK VINA RESULT:      -4.5      2.588      3.107
REMARK  2 active torsions:
REMARK  status: ('A' for Active; 'I' for Inactive)
REMARK    1  A    between atoms: C_3  and  O_10 
REMARK    2  A    between atoms: C_8  and  O_11 
ROOT
HETATM    1  C   UNL     1      62.823   9.500   3.988  1.00  0.00     0.080 A 
HETATM    2  C   UNL     1      63.131   7.221   3.260  1.00  0.00     0.065 A 
HETATM    3  C   UNL     1      62.545   8.475   3.070  1.00  0.00     0.090 A 
HETATM    4  N   UNL     1      61.790  11.874   3.777  1.00  0.00    -0.191 NA
HETATM    5  C   UNL     1      62.240  10.807   3.844  1.00  0.00     0.102 C 
HETATM    6  C   UNL     1      63.957   6.986   4.364  1.00  0.00     0.070 A 
HETATM    7  C   UNL     1      63.673   9.265   5.084  1.00  0.00     0.064 A 
HETATM    8  C   UNL     1      64.235   8.002   5.291  1.00  0.00     0.091 A 
HETATM    9 CL   UNL     1      64.614   5.396   4.552  1.00  0.00    -0.081 Cl
ENDROOT
BRANCH   3  10
HETATM   10  O   UNL     1      61.695   8.788   2.043  1.00  0.00    -0.354 OA
HETATM   11  C   UNL     1      62.227   8.798   0.723  1.00  0.00     0.210 C 
ENDBRANCH   3  10
BRANCH   8  12
HETATM   12  O   UNL     1      65.038   7.671   6.348  1.00  0.00    -0.354 OA
HETATM   13  C   UNL     1      66.403   8.064   6.301  1.00  0.00     0.210 C 
ENDBRANCH   8  12
TORSDOF 2
ENDMDL
MODEL 4
REMARK VINA RESULT:      -4.5      2.647      3.825
REMARK  2 active torsions:
REMARK  status: ('A' for Active; 'I' for Inactive)
REMARK    1  A    between atoms: C_3  and  O_10 
REMARK    2  A    between atoms: C_8  and  O_11 
ROOT
HETATM    1  C   UNL     1      63.568   9.257   4.781  1.00  0.00     0.080 A 
HETATM    2  C   UNL     1      64.900   7.321   4.237  1.00  0.00     0.065 A 
HETATM    3  C   UNL     1      64.687   8.448   5.034  1.00  0.00     0.090 A 
HETATM    4  N   UNL     1      63.058  11.396   6.164  1.00  0.00    -0.191 NA
HETATM    5  C   UNL     1      63.309  10.434   5.566  1.00  0.00     0.102 C 
HETATM    6  C   UNL     1      64.024   7.021   3.187  1.00  0.00     0.070 A 
HETATM    7  C   UNL     1      62.679   8.939   3.738  1.00  0.00     0.064 A 
HETATM    8  C   UNL     1      62.908   7.828   2.922  1.00  0.00     0.091 A 
HETATM    9 CL   UNL     1      64.376   5.629   2.221  1.00  0.00    -0.081 Cl
ENDROOT
BRANCH   3  10
HETATM   10  O   UNL     1      65.508   8.842   6.057  1.00  0.00    -0.354 OA
HETATM   11  C   UNL     1      66.648   8.037   6.338  1.00  0.00     0.210 C 
ENDBRANCH   3  10
BRANCH   8  12
HETATM   12  O   UNL     1      62.122   7.466   1.862  1.00  0.00    -0.354 OA
HETATM   13  C   UNL     1      62.055   8.345   0.748  1.00  0.00     0.210 C 
ENDBRANCH   8  12
TORSDOF 2
ENDMDL
MODEL 5
REMARK VINA RESULT:      -4.4      3.674      4.345
REMARK  2 active torsions:
REMARK  status: ('A' for Active; 'I' for Inactive)
REMARK    1  A    between atoms: C_3  and  O_10 
REMARK    2  A    between atoms: C_8  and  O_11 
ROOT
HETATM    1  C   UNL     1      63.730   7.294   3.169  1.00  0.00     0.080 A 
HETATM    2  C   UNL     1      62.462   9.262   3.750  1.00  0.00     0.065 A 
HETATM    3  C   UNL     1      62.636   8.142   2.934  1.00  0.00     0.090 A 
HETATM    4  N   UNL     1      64.193   5.188   1.720  1.00  0.00    -0.191 NA
HETATM    5  C   UNL     1      63.959   6.132   2.352  1.00  0.00     0.102 C 
HETATM    6  C   UNL     1      63.381   9.547   4.765  1.00  0.00     0.070 A 
HETATM    7  C   UNL     1      64.638   7.573   4.206  1.00  0.00     0.064 A 
HETATM    8  C   UNL     1      64.482   8.710   5.002  1.00  0.00     0.091 A 
HETATM    9 CL   UNL     1      63.120  10.975   5.708  1.00  0.00    -0.081 Cl
ENDROOT
BRANCH   3  10
HETATM   10  O   UNL     1      61.811   7.804   1.893  1.00  0.00    -0.354 OA
HETATM   11  C   UNL     1      61.706   8.718   0.808  1.00  0.00     0.210 C 
ENDBRANCH   3  10
BRANCH   8  12
HETATM   12  O   UNL     1      65.336   9.082   6.004  1.00  0.00    -0.354 OA
HETATM   13  C   UNL     1      66.382   8.187   6.359  1.00  0.00     0.210 C 
ENDBRANCH   8  12
TORSDOF 2
ENDMDL
MODEL 6
REMARK VINA RESULT:      -4.4      2.125      4.149
REMARK  2 active torsions:
REMARK  status: ('A' for Active; 'I' for Inactive)
REMARK    1  A    between atoms: C_3  and  O_10 
REMARK    2  A    between atoms: C_8  and  O_11 
ROOT
HETATM    1  C   UNL     1      64.158   8.499   4.506  1.00  0.00     0.080 A 
HETATM    2  C   UNL     1      63.002   7.507   2.636  1.00  0.00     0.065 A 
HETATM    3  C   UNL     1      64.023   7.447   3.587  1.00  0.00     0.090 A 
HETATM    4  N   UNL     1      66.022   8.535   6.315  1.00  0.00    -0.191 NA
HETATM    5  C   UNL     1      65.198   8.490   5.500  1.00  0.00     0.102 C 
HETATM    6  C   UNL     1      62.147   8.614   2.585  1.00  0.00     0.070 A 
HETATM    7  C   UNL     1      63.282   9.599   4.464  1.00  0.00     0.064 A 
HETATM    8  C   UNL     1      62.280   9.674   3.494  1.00  0.00     0.091 A 
HETATM    9 CL   UNL     1      60.931   8.633   1.353  1.00  0.00    -0.081 Cl
ENDROOT
BRANCH   3  10
HETATM   10  O   UNL     1      64.929   6.424   3.690  1.00  0.00    -0.354 OA
HETATM   11  C   UNL     1      64.430   5.124   3.983  1.00  0.00     0.210 C 
ENDBRANCH   3  10
BRANCH   8  12
HETATM   12  O   UNL     1      61.410  10.721   3.352  1.00  0.00    -0.354 OA
HETATM   13  C   UNL     1      61.765  11.770   2.461  1.00  0.00     0.210 C 
ENDBRANCH   8  12
TORSDOF 2
ENDMDL
MODEL 7
REMARK VINA RESULT:      -4.2      2.605      3.186
REMARK  2 active torsions:
REMARK  status: ('A' for Active; 'I' for Inactive)
REMARK    1  A    between atoms: C_3  and  O_10 
REMARK    2  A    between atoms: C_8  and  O_11 
ROOT
HETATM    1  C   UNL     1      63.908   7.883   4.712  1.00  0.00     0.080 A 
HETATM    2  C   UNL     1      62.533   9.389   3.424  1.00  0.00     0.065 A 
HETATM    3  C   UNL     1      63.179   9.079   4.623  1.00  0.00     0.090 A 
HETATM    4  N   UNL     1      65.142   7.165   6.882  1.00  0.00    -0.191 NA
HETATM    5  C   UNL     1      64.585   7.513   5.926  1.00  0.00     0.102 C 
HETATM    6  C   UNL     1      62.589   8.505   2.341  1.00  0.00     0.070 A 
HETATM    7  C   UNL     1      63.981   7.009   3.612  1.00  0.00     0.064 A 
HETATM    8  C   UNL     1      63.309   7.303   2.423  1.00  0.00     0.091 A 
HETATM    9 CL   UNL     1      61.730   8.940   0.903  1.00  0.00    -0.081 Cl
ENDROOT
BRANCH   3  10
HETATM   10  O   UNL     1      63.149   9.863   5.746  1.00  0.00    -0.354 OA
HETATM   11  C   UNL     1      62.822  11.239   5.585  1.00  0.00     0.210 C 
ENDBRANCH   3  10
BRANCH   8  12
HETATM   12  O   UNL     1      63.290   6.495   1.319  1.00  0.00    -0.354 OA
HETATM   13  C   UNL     1      62.449   5.349   1.344  1.00  0.00     0.210 C 
ENDBRANCH   8  12
TORSDOF 2
ENDMDL
MODEL 8
REMARK VINA RESULT:      -4.0      3.238      4.720
REMARK  2 active torsions:
REMARK  status: ('A' for Active; 'I' for Inactive)
REMARK    1  A    between atoms: C_3  and  O_10 
REMARK    2  A    between atoms: C_8  and  O_11 
ROOT
HETATM    1  C   UNL     1      63.948   7.016   4.336  1.00  0.00     0.080 A 
HETATM    2  C   UNL     1      63.615   9.286   5.083  1.00  0.00     0.065 A 
HETATM    3  C   UNL     1      64.204   8.033   5.270  1.00  0.00     0.090 A 
HETATM    4  N   UNL     1      64.954   4.633   4.567  1.00  0.00    -0.191 NA
HETATM    5  C   UNL     1      64.523   5.706   4.488  1.00  0.00     0.102 C 
HETATM    6  C   UNL     1      62.763   9.512   3.996  1.00  0.00     0.070 A 
HETATM    7  C   UNL     1      63.109   7.256   3.234  1.00  0.00     0.064 A 
HETATM    8  C   UNL     1      62.495   8.499   3.062  1.00  0.00     0.091 A 
HETATM    9 CL   UNL     1      62.041  11.078   3.854  1.00  0.00    -0.081 Cl
ENDROOT
BRANCH   3  10
HETATM   10  O   UNL     1      65.020   7.708   6.321  1.00  0.00    -0.354 OA
HETATM   11  C   UNL     1      66.361   8.183   6.289  1.00  0.00     0.210 C 
ENDBRANCH   3  10
BRANCH   8  12
HETATM   12  O   UNL     1      61.634   8.809   2.045  1.00  0.00    -0.354 OA
HETATM   13  C   UNL     1      62.182   9.074   0.761  1.00  0.00     0.210 C 
ENDBRANCH   8  12
TORSDOF 2
ENDMDL
MODEL 9
REMARK VINA RESULT:      -4.0      2.006      4.263
REMARK  2 active torsions:
REMARK  status: ('A' for Active; 'I' for Inactive)
REMARK    1  A    between atoms: C_3  and  O_10 
REMARK    2  A    between atoms: C_8  and  O_11 
ROOT
HETATM    1  C   UNL     1      62.354   7.797   4.637  1.00  0.00     0.080 A 
HETATM    2  C   UNL     1      60.614   7.173   3.087  1.00  0.00     0.065 A 
HETATM    3  C   UNL     1      61.319   6.924   4.267  1.00  0.00     0.090 A 
HETATM    4  N   UNL     1      63.765   7.448   6.789  1.00  0.00    -0.191 NA
HETATM    5  C   UNL     1      63.116   7.581   5.837  1.00  0.00     0.102 C 
HETATM    6  C   UNL     1      60.956   8.260   2.274  1.00  0.00     0.070 A 
HETATM    7  C   UNL     1      62.679   8.901   3.827  1.00  0.00     0.064 A 
HETATM    8  C   UNL     1      61.995   9.133   2.631  1.00  0.00     0.091 A 
HETATM    9 CL   UNL     1      60.062   8.479   0.809  1.00  0.00    -0.081 Cl
ENDROOT
BRANCH   3  10
HETATM   10  O   UNL     1      61.081   5.867   5.105  1.00  0.00    -0.354 OA
HETATM   11  C   UNL     1      59.780   5.288   5.088  1.00  0.00     0.210 C 
ENDBRANCH   3  10
BRANCH   8  12
HETATM   12  O   UNL     1      62.269  10.154   1.763  1.00  0.00    -0.354 OA
HETATM   13  C   UNL     1      61.769  11.448   2.073  1.00  0.00     0.210 C 
ENDBRANCH   8  12
TORSDOF 2
ENDMDL
