MODEL 1
REMARK VINA RESULT:      -3.3      0.000      0.000
REMARK  0 active torsions:
REMARK  status: ('A' for Active; 'I' for Inactive)
ROOT
HETATM    1  C   UNL     1      66.634   6.756   7.768  1.00  0.00     0.167 C 
HETATM    2  N   UNL     1      67.674   6.777   6.911  1.00  0.00    -0.367 N 
HETATM    3  N   UNL     1      65.371   6.921   7.329  1.00  0.00    -0.367 N 
HETATM    4  S   UNL     1      66.913   6.541   9.394  1.00  0.00    -0.041 SA
HETATM    5  C   UNL     1      67.618   6.505   5.494  1.00  0.00     0.122 C 
HETATM    6  C   UNL     1      64.877   7.218   5.996  1.00  0.00     0.122 C 
HETATM    7  C   UNL     1      67.006   7.628   4.667  1.00  0.00     0.021 C 
HETATM    8  C   UNL     1      65.730   8.232   5.248  1.00  0.00     0.021 C 
HETATM    9  H   UNL     1      68.557   6.998   7.287  1.00  0.00     0.161 HD
HETATM   10  H   UNL     1      64.675   6.827   8.018  1.00  0.00     0.161 HD
ENDROOT
TORSDOF 0
ENDMDL
MODEL 2
REMARK VINA RESULT:      -3.3      0.773      2.134
REMARK  0 active torsions:
REMARK  status: ('A' for Active; 'I' for Inactive)
ROOT
HETATM    1  C   UNL     1      66.653   6.992   7.480  1.00  0.00     0.167 C 
HETATM    2  N   UNL     1      65.430   7.140   6.931  1.00  0.00    -0.367 N 
HETATM    3  N   UNL     1      67.768   7.195   6.752  1.00  0.00    -0.367 N 
HETATM    4  S   UNL     1      66.788   6.534   9.074  1.00  0.00    -0.041 SA
HETATM    5  C   UNL     1      65.108   7.930   5.767  1.00  0.00     0.122 C 
HETATM    6  C   UNL     1      67.919   7.498   5.341  1.00  0.00     0.122 C 
HETATM    7  C   UNL     1      65.546   7.306   4.449  1.00  0.00     0.021 C 
HETATM    8  C   UNL     1      66.959   6.726   4.450  1.00  0.00     0.021 C 
HETATM    9  H   UNL     1      64.686   6.664   7.366  1.00  0.00     0.161 HD
HETATM   10  H   UNL     1      68.612   7.126   7.255  1.00  0.00     0.161 HD
ENDROOT
TORSDOF 0
ENDMDL
MODEL 3
REMARK VINA RESULT:      -3.3      4.912      5.697
REMARK  0 active torsions:
REMARK  status: ('A' for Active; 'I' for Inactive)
ROOT
HETATM    1  C   UNL     1      63.458   8.703   4.019  1.00  0.00     0.167 C 
HETATM    2  N   UNL     1      63.194   7.994   2.903  1.00  0.00    -0.367 N 
HETATM    3  N   UNL     1      62.758   9.814   4.315  1.00  0.00    -0.367 N 
HETATM    4  S   UNL     1      64.678   8.208   5.037  1.00  0.00    -0.041 SA
HETATM    5  C   UNL     1      61.951   7.989   2.169  1.00  0.00     0.122 C 
HETATM    6  C   UNL     1      61.728  10.499   3.555  1.00  0.00     0.122 C 
HETATM    7  C   UNL     1      61.709   9.246   1.344  1.00  0.00     0.021 C 
HETATM    8  C   UNL     1      62.016  10.557   2.063  1.00  0.00     0.021 C 
HETATM    9  H   UNL     1      63.919   7.425   2.555  1.00  0.00     0.161 HD
HETATM   10  H   UNL     1      62.979  10.227   5.181  1.00  0.00     0.161 HD
ENDROOT
TORSDOF 0
ENDMDL
MODEL 4
REMARK VINA RESULT:      -3.2      5.228      6.034
REMARK  0 active torsions:
REMARK  status: ('A' for Active; 'I' for Inactive)
ROOT
HETATM    1  C   UNL     1      61.052   8.281   3.605  1.00  0.00     0.167 C 
HETATM    2  N   UNL     1      62.162   7.601   3.957  1.00  0.00    -0.367 N 
HETATM    3  N   UNL     1      61.056   9.626   3.539  1.00  0.00    -0.367 N 
HETATM    4  S   UNL     1      59.652   7.447   3.264  1.00  0.00    -0.041 SA
HETATM    5  C   UNL     1      63.522   8.074   3.851  1.00  0.00     0.122 C 
HETATM    6  C   UNL     1      62.101  10.574   3.877  1.00  0.00     0.122 C 
HETATM    7  C   UNL     1      63.907   9.107   4.902  1.00  0.00     0.021 C 
HETATM    8  C   UNL     1      62.870  10.204   5.135  1.00  0.00     0.021 C 
HETATM    9  H   UNL     1      62.033   6.695   4.321  1.00  0.00     0.161 HD
HETATM   10  H   UNL     1      60.219  10.028   3.211  1.00  0.00     0.161 HD
ENDROOT
TORSDOF 0
ENDMDL
MODEL 5
REMARK VINA RESULT:      -3.1      6.663      7.031
REMARK  0 active torsions:
REMARK  status: ('A' for Active; 'I' for Inactive)
ROOT
HETATM    1  C   UNL     1      60.651   7.805   3.299  1.00  0.00     0.167 C 
HETATM    2  N   UNL     1      60.668   9.139   3.491  1.00  0.00    -0.367 N 
HETATM    3  N   UNL     1      61.511   7.216   2.446  1.00  0.00    -0.367 N 
HETATM    4  S   UNL     1      59.539   6.872   4.115  1.00  0.00    -0.041 SA
HETATM    5  C   UNL     1      61.785  10.022   3.248  1.00  0.00     0.122 C 
HETATM    6  C   UNL     1      62.493   7.807   1.555  1.00  0.00     0.122 C 
HETATM    7  C   UNL     1      62.050  10.300   1.775  1.00  0.00     0.021 C 
HETATM    8  C   UNL     1      62.003   9.072   0.869  1.00  0.00     0.021 C 
HETATM    9  H   UNL     1      59.840   9.551   3.829  1.00  0.00     0.161 HD
HETATM   10  H   UNL     1      61.465   6.233   2.421  1.00  0.00     0.161 HD
ENDROOT
TORSDOF 0
ENDMDL
MODEL 6
REMARK VINA RESULT:      -3.1      2.304      3.491
REMARK  0 active torsions:
REMARK  status: ('A' for Active; 'I' for Inactive)
ROOT
HETATM    1  C   UNL     1      66.183   6.952   6.657  1.00  0.00     0.167 C 
HETATM    2  N   UNL     1      66.787   7.498   7.731  1.00  0.00    -0.367 N 
HETATM    3  N   UNL     1      66.096   5.616   6.516  1.00  0.00    -0.367 N 
HETATM    4  S   UNL     1      65.549   7.943   5.479  1.00  0.00    -0.041 SA
HETATM    5  C   UNL     1      66.982   6.865   9.014  1.00  0.00     0.122 C 
HETATM    6  C   UNL     1      66.645   4.553   7.337  1.00  0.00     0.122 C 
HETATM    7  C   UNL     1      68.075   5.805   9.026  1.00  0.00     0.021 C 
HETATM    8  C   UNL     1      68.050   4.842   7.841  1.00  0.00     0.021 C 
HETATM    9  H   UNL     1      67.127   8.417   7.631  1.00  0.00     0.161 HD
HETATM   10  H   UNL     1      65.582   5.312   5.733  1.00  0.00     0.161 HD
ENDROOT
TORSDOF 0
ENDMDL
MODEL 7
REMARK VINA RESULT:      -3.1     12.079     12.910
REMARK  0 active torsions:
REMARK  status: ('A' for Active; 'I' for Inactive)
ROOT
HETATM    1  C   UNL     1      56.512   0.654  13.823  1.00  0.00     0.167 C 
HETATM    2  N   UNL     1      56.365   1.261  12.629  1.00  0.00    -0.367 N 
HETATM    3  N   UNL     1      57.573   0.921  14.610  1.00  0.00    -0.367 N 
HETATM    4  S   UNL     1      55.377  -0.454  14.327  1.00  0.00    -0.041 SA
HETATM    5  C   UNL     1      56.955   2.518  12.232  1.00  0.00     0.122 C 
HETATM    6  C   UNL     1      58.732   1.759  14.362  1.00  0.00     0.122 C 
HETATM    7  C   UNL     1      58.445   2.440  11.929  1.00  0.00     0.021 C 
HETATM    8  C   UNL     1      59.266   1.646  12.943  1.00  0.00     0.021 C 
HETATM    9  H   UNL     1      55.801   0.804  11.963  1.00  0.00     0.161 HD
HETATM   10  H   UNL     1      57.560   0.478  15.489  1.00  0.00     0.161 HD
ENDROOT
TORSDOF 0
ENDMDL
MODEL 8
REMARK VINA RESULT:      -3.0      2.082      2.805
REMARK  0 active torsions:
REMARK  status: ('A' for Active; 'I' for Inactive)
ROOT
HETATM    1  C   UNL     1      64.611   7.081   6.198  1.00  0.00     0.167 C 
HETATM    2  N   UNL     1      65.327   7.248   5.068  1.00  0.00    -0.367 N 
HETATM    3  N   UNL     1      65.219   6.985   7.396  1.00  0.00    -0.367 N 
HETATM    4  S   UNL     1      62.952   6.974   6.111  1.00  0.00    -0.041 SA
HETATM    5  C   UNL     1      66.660   7.794   4.976  1.00  0.00     0.122 C 
HETATM    6  C   UNL     1      66.632   6.950   7.725  1.00  0.00     0.122 C 
HETATM    7  C   UNL     1      67.756   6.847   5.447  1.00  0.00     0.021 C 
HETATM    8  C   UNL     1      67.458   6.119   6.756  1.00  0.00     0.021 C 
HETATM    9  H   UNL     1      64.900   6.971   4.226  1.00  0.00     0.161 HD
HETATM   10  H   UNL     1      64.611   6.930   8.168  1.00  0.00     0.161 HD
ENDROOT
TORSDOF 0
ENDMDL
MODEL 9
REMARK VINA RESULT:      -3.0     11.100     12.165
REMARK  0 active torsions:
REMARK  status: ('A' for Active; 'I' for Inactive)
ROOT
HETATM    1  C   UNL     1      58.046   2.572  11.746  1.00  0.00     0.167 C 
HETATM    2  N   UNL     1      59.059   1.952  12.384  1.00  0.00    -0.367 N 
HETATM    3  N   UNL     1      56.833   2.687  12.320  1.00  0.00    -0.367 N 
HETATM    4  S   UNL     1      58.291   3.189  10.220  1.00  0.00    -0.041 SA
HETATM    5  C   UNL     1      59.183   1.765  13.810  1.00  0.00     0.122 C 
HETATM    6  C   UNL     1      56.343   2.158  13.580  1.00  0.00     0.122 C 
HETATM    7  C   UNL     1      58.262   0.695  14.380  1.00  0.00     0.021 C 
HETATM    8  C   UNL     1      56.824   0.745  13.870  1.00  0.00     0.021 C 
HETATM    9  H   UNL     1      59.784   1.593  11.823  1.00  0.00     0.161 HD
HETATM   10  H   UNL     1      56.177   3.211  11.806  1.00  0.00     0.161 HD
ENDROOT
TORSDOF 0
ENDMDL
