MODEL 1
REMARK VINA RESULT:      -6.4      0.000      0.000
REMARK  2 active torsions:
REMARK  status: ('A' for Active; 'I' for Inactive)
REMARK    1  A    between atoms: C_1  and  C_5 
REMARK    2  A    between atoms: C_8  and  N_9 
ROOT
HETATM    1  C   UNL     1      64.541   8.291   5.374  1.00  0.00     0.118 A 
HETATM    2  N   UNL     1      64.289   7.633   6.492  1.00  0.00    -0.340 N 
ATOM      3  HN  UNL     1      63.408   7.608   7.005  1.00  0.00     0.167 HD
HETATM    4  N   UNL     1      65.871   8.158   5.037  1.00  0.00    -0.340 N 
HETATM    5  C   UNL     1      65.458   6.990   6.821  1.00  0.00     0.060 A 
HETATM    6  C   UNL     1      66.462   7.286   5.909  1.00  0.00     0.060 A 
HETATM    7  C   UNL     1      65.733   6.119   7.885  1.00  0.00     0.032 A 
HETATM    8  C   UNL     1      67.749   6.751   5.980  1.00  0.00     0.032 A 
HETATM    9  C   UNL     1      68.003   5.875   7.042  1.00  0.00     0.002 A 
HETATM   10  C   UNL     1      67.017   5.565   7.982  1.00  0.00     0.002 A 
HETATM   11  H   UNL     1      66.321   8.615   4.290  1.00  0.00     0.167 HD
ENDROOT
BRANCH   1  12
HETATM   12  C   UNL     1      63.593   9.084   4.586  1.00  0.00     0.034 A 
HETATM   13  C   UNL     1      63.207  10.397   4.942  1.00  0.00     0.039 A 
HETATM   14  C   UNL     1      62.209  11.038   4.191  1.00  0.00     0.030 A 
HETATM   15  C   UNL     1      61.681  10.445   3.043  1.00  0.00     0.002 A 
HETATM   16  C   UNL     1      62.110   9.182   2.652  1.00  0.00     0.001 A 
HETATM   17  C   UNL     1      63.054   8.503   3.424  1.00  0.00     0.017 A 
BRANCH  13  18
HETATM   18  N   UNL     1      63.677  11.033   6.119  1.00  0.00    -0.398 N 
HETATM   19  H   UNL     1      64.642  11.065   6.310  1.00  0.00     0.156 HD
HETATM   20  H   UNL     1      63.037  11.442   6.745  1.00  0.00     0.156 HD
ENDBRANCH  13  18
ENDBRANCH   1  12
TORSDOF 2
ENDMDL
MODEL 2
REMARK VINA RESULT:      -6.1      0.956      2.269
REMARK  2 active torsions:
REMARK  status: ('A' for Active; 'I' for Inactive)
REMARK    1  A    between atoms: C_1  and  C_5 
REMARK    2  A    between atoms: C_8  and  N_9 
ROOT
HETATM    1  C   UNL     1      64.642   8.148   5.354  1.00  0.00     0.118 A 
HETATM    2  N   UNL     1      65.889   7.923   4.978  1.00  0.00    -0.340 N 
ATOM      3  HN  UNL     1      66.346   8.260   4.131  1.00  0.00     0.167 HD
HETATM    4  N   UNL     1      64.363   7.448   6.508  1.00  0.00    -0.340 N 
HETATM    5  C   UNL     1      66.443   7.142   5.963  1.00  0.00     0.060 A 
HETATM    6  C   UNL     1      65.510   6.847   6.948  1.00  0.00     0.060 A 
HETATM    7  C   UNL     1      67.751   6.653   6.091  1.00  0.00     0.032 A 
HETATM    8  C   UNL     1      65.802   6.093   8.085  1.00  0.00     0.032 A 
HETATM    9  C   UNL     1      67.115   5.622   8.202  1.00  0.00     0.002 A 
HETATM   10  C   UNL     1      68.075   5.892   7.222  1.00  0.00     0.002 A 
HETATM   11  H   UNL     1      63.482   7.391   6.944  1.00  0.00     0.167 HD
ENDROOT
BRANCH   1  12
HETATM   12  C   UNL     1      63.654   8.985   4.668  1.00  0.00     0.034 A 
HETATM   13  C   UNL     1      63.034   8.604   3.455  1.00  0.00     0.039 A 
HETATM   14  C   UNL     1      62.184   9.517   2.811  1.00  0.00     0.030 A 
HETATM   15  C   UNL     1      61.857  10.737   3.406  1.00  0.00     0.002 A 
HETATM   16  C   UNL     1      62.411  11.083   4.634  1.00  0.00     0.001 A 
HETATM   17  C   UNL     1      63.309  10.215   5.256  1.00  0.00     0.017 A 
BRANCH  13  18
HETATM   18  N   UNL     1      63.359   7.398   2.783  1.00  0.00    -0.398 N 
HETATM   19  H   UNL     1      62.648   6.760   2.545  1.00  0.00     0.156 HD
HETATM   20  H   UNL     1      64.295   7.199   2.555  1.00  0.00     0.156 HD
ENDBRANCH  13  18
ENDBRANCH   1  12
TORSDOF 2
ENDMDL
MODEL 3
REMARK VINA RESULT:      -5.9      0.967      5.985
REMARK  2 active torsions:
REMARK  status: ('A' for Active; 'I' for Inactive)
REMARK    1  A    between atoms: C_1  and  C_5 
REMARK    2  A    between atoms: C_8  and  N_9 
ROOT
HETATM    1  C   UNL     1      64.983   7.729   5.498  1.00  0.00     0.118 A 
HETATM    2  N   UNL     1      64.474   7.349   4.340  1.00  0.00    -0.340 N 
ATOM      3  HN  UNL     1      64.690   6.497   3.824  1.00  0.00     0.167 HD
HETATM    4  N   UNL     1      64.517   8.983   5.831  1.00  0.00    -0.340 N 
HETATM    5  C   UNL     1      63.592   8.338   3.974  1.00  0.00     0.060 A 
HETATM    6  C   UNL     1      63.585   9.367   4.906  1.00  0.00     0.060 A 
HETATM    7  C   UNL     1      62.747   8.418   2.859  1.00  0.00     0.032 A 
HETATM    8  C   UNL     1      62.764  10.491   4.806  1.00  0.00     0.032 A 
HETATM    9  C   UNL     1      61.919  10.550   3.691  1.00  0.00     0.002 A 
HETATM   10  C   UNL     1      61.911   9.535   2.730  1.00  0.00     0.002 A 
HETATM   11  H   UNL     1      64.808   9.515   6.607  1.00  0.00     0.167 HD
ENDROOT
BRANCH   1  12
HETATM   12  C   UNL     1      65.929   6.982   6.332  1.00  0.00     0.034 A 
HETATM   13  C   UNL     1      67.273   6.756   5.956  1.00  0.00     0.039 A 
HETATM   14  C   UNL     1      68.075   5.934   6.764  1.00  0.00     0.030 A 
HETATM   15  C   UNL     1      67.600   5.437   7.979  1.00  0.00     0.002 A 
HETATM   16  C   UNL     1      66.300   5.717   8.384  1.00  0.00     0.001 A 
HETATM   17  C   UNL     1      65.468   6.478   7.561  1.00  0.00     0.017 A 
BRANCH  13  18
HETATM   18  N   UNL     1      67.798   7.199   4.716  1.00  0.00    -0.398 N 
HETATM   19  H   UNL     1      67.645   6.672   3.899  1.00  0.00     0.156 HD
HETATM   20  H   UNL     1      68.317   8.035   4.671  1.00  0.00     0.156 HD
ENDBRANCH  13  18
ENDBRANCH   1  12
TORSDOF 2
ENDMDL
MODEL 4
REMARK VINA RESULT:      -5.6      1.340      5.874
REMARK  2 active torsions:
REMARK  status: ('A' for Active; 'I' for Inactive)
REMARK    1  A    between atoms: C_1  and  C_5 
REMARK    2  A    between atoms: C_8  and  N_9 
ROOT
HETATM    1  C   UNL     1      63.999   7.732   5.136  1.00  0.00     0.118 A 
HETATM    2  N   UNL     1      63.733   7.537   3.857  1.00  0.00    -0.340 N 
ATOM      3  HN  UNL     1      63.971   6.718   3.298  1.00  0.00     0.167 HD
HETATM    4  N   UNL     1      63.604   8.998   5.513  1.00  0.00    -0.340 N 
HETATM    5  C   UNL     1      63.069   8.663   3.434  1.00  0.00     0.060 A 
HETATM    6  C   UNL     1      62.956   9.588   4.463  1.00  0.00     0.060 A 
HETATM    7  C   UNL     1      62.518   8.961   2.180  1.00  0.00     0.032 A 
HETATM    8  C   UNL     1      62.303  10.814   4.327  1.00  0.00     0.032 A 
HETATM    9  C   UNL     1      61.750  11.092   3.071  1.00  0.00     0.002 A 
HETATM   10  C   UNL     1      61.857  10.185   2.013  1.00  0.00     0.002 A 
HETATM   11  H   UNL     1      63.761   9.409   6.393  1.00  0.00     0.167 HD
ENDROOT
BRANCH   1  12
HETATM   12  C   UNL     1      64.642   6.790   6.056  1.00  0.00     0.034 A 
HETATM   13  C   UNL     1      65.796   7.115   6.807  1.00  0.00     0.039 A 
HETATM   14  C   UNL     1      66.409   6.114   7.576  1.00  0.00     0.030 A 
HETATM   15  C   UNL     1      65.834   4.848   7.699  1.00  0.00     0.002 A 
HETATM   16  C   UNL     1      64.660   4.548   7.016  1.00  0.00     0.001 A 
HETATM   17  C   UNL     1      64.073   5.511   6.195  1.00  0.00     0.017 A 
BRANCH  13  18
HETATM   18  N   UNL     1      66.448   8.369   6.690  1.00  0.00    -0.398 N 
HETATM   19  H   UNL     1      66.589   8.770   5.803  1.00  0.00     0.156 HD
HETATM   20  H   UNL     1      66.759   8.838   7.498  1.00  0.00     0.156 HD
ENDBRANCH  13  18
ENDBRANCH   1  12
TORSDOF 2
ENDMDL
MODEL 5
REMARK VINA RESULT:      -5.1      1.519      2.223
REMARK  2 active torsions:
REMARK  status: ('A' for Active; 'I' for Inactive)
REMARK    1  A    between atoms: C_1  and  C_5 
REMARK    2  A    between atoms: C_8  and  N_9 
ROOT
HETATM    1  C   UNL     1      64.430   7.162   5.748  1.00  0.00     0.118 A 
HETATM    2  N   UNL     1      64.584   7.309   7.052  1.00  0.00    -0.340 N 
ATOM      3  HN  UNL     1      63.972   7.819   7.689  1.00  0.00     0.167 HD
HETATM    4  N   UNL     1      65.511   6.489   5.218  1.00  0.00    -0.340 N 
HETATM    5  C   UNL     1      65.736   6.634   7.374  1.00  0.00     0.060 A 
HETATM    6  C   UNL     1      66.327   6.090   6.241  1.00  0.00     0.060 A 
HETATM    7  C   UNL     1      66.336   6.429   8.625  1.00  0.00     0.032 A 
HETATM    8  C   UNL     1      67.495   5.328   6.272  1.00  0.00     0.032 A 
HETATM    9  C   UNL     1      68.075   5.124   7.530  1.00  0.00     0.002 A 
HETATM   10  C   UNL     1      67.510   5.667   8.688  1.00  0.00     0.002 A 
HETATM   11  H   UNL     1      65.669   6.323   4.261  1.00  0.00     0.167 HD
ENDROOT
BRANCH   1  12
HETATM   12  C   UNL     1      63.314   7.647   4.932  1.00  0.00     0.034 A 
HETATM   13  C   UNL     1      62.096   6.942   4.799  1.00  0.00     0.039 A 
HETATM   14  C   UNL     1      61.125   7.426   3.907  1.00  0.00     0.030 A 
HETATM   15  C   UNL     1      61.299   8.643   3.247  1.00  0.00     0.002 A 
HETATM   16  C   UNL     1      62.468   9.373   3.431  1.00  0.00     0.001 A 
HETATM   17  C   UNL     1      63.471   8.874   4.263  1.00  0.00     0.017 A 
BRANCH  13  18
HETATM   18  N   UNL     1      61.879   5.681   5.411  1.00  0.00    -0.398 N 
HETATM   19  H   UNL     1      62.639   5.081   5.588  1.00  0.00     0.156 HD
HETATM   20  H   UNL     1      60.967   5.405   5.659  1.00  0.00     0.156 HD
ENDBRANCH  13  18
ENDBRANCH   1  12
TORSDOF 2
ENDMDL
MODEL 6
REMARK VINA RESULT:      -4.9      2.115      6.076
REMARK  2 active torsions:
REMARK  status: ('A' for Active; 'I' for Inactive)
REMARK    1  A    between atoms: C_1  and  C_5 
REMARK    2  A    between atoms: C_8  and  N_9 
ROOT
HETATM    1  C   UNL     1      63.199   7.731   4.681  1.00  0.00     0.118 A 
HETATM    2  N   UNL     1      62.919   8.901   5.228  1.00  0.00    -0.340 N 
ATOM      3  HN  UNL     1      62.984   9.150   6.215  1.00  0.00     0.167 HD
HETATM    4  N   UNL     1      62.896   7.754   3.336  1.00  0.00    -0.340 N 
HETATM    5  C   UNL     1      62.520   9.714   4.194  1.00  0.00     0.060 A 
HETATM    6  C   UNL     1      62.519   9.022   2.990  1.00  0.00     0.060 A 
HETATM    7  C   UNL     1      62.156  11.067   4.207  1.00  0.00     0.032 A 
HETATM    8  C   UNL     1      62.183   9.605   1.768  1.00  0.00     0.032 A 
HETATM    9  C   UNL     1      61.832  10.960   1.797  1.00  0.00     0.002 A 
HETATM   10  C   UNL     1      61.814  11.681   2.994  1.00  0.00     0.002 A 
HETATM   11  H   UNL     1      62.945   6.983   2.725  1.00  0.00     0.167 HD
ENDROOT
BRANCH   1  12
HETATM   12  C   UNL     1      63.727   6.545   5.361  1.00  0.00     0.034 A 
HETATM   13  C   UNL     1      62.909   5.468   5.773  1.00  0.00     0.039 A 
HETATM   14  C   UNL     1      63.484   4.425   6.517  1.00  0.00     0.030 A 
HETATM   15  C   UNL     1      64.859   4.384   6.753  1.00  0.00     0.002 A 
HETATM   16  C   UNL     1      65.675   5.408   6.288  1.00  0.00     0.001 A 
HETATM   17  C   UNL     1      65.111   6.485   5.603  1.00  0.00     0.017 A 
BRANCH  13  18
HETATM   18  N   UNL     1      61.502   5.474   5.599  1.00  0.00    -0.398 N 
HETATM   19  H   UNL     1      61.044   4.674   5.255  1.00  0.00     0.156 HD
HETATM   20  H   UNL     1      60.982   6.280   5.823  1.00  0.00     0.156 HD
ENDBRANCH  13  18
ENDBRANCH   1  12
TORSDOF 2
ENDMDL
MODEL 7
REMARK VINA RESULT:      -4.8      2.512      3.159
REMARK  2 active torsions:
REMARK  status: ('A' for Active; 'I' for Inactive)
REMARK    1  A    between atoms: C_1  and  C_5 
REMARK    2  A    between atoms: C_8  and  N_9 
ROOT
HETATM    1  C   UNL     1      64.323   6.156   6.534  1.00  0.00     0.118 A 
HETATM    2  N   UNL     1      64.979   7.058   7.242  1.00  0.00    -0.340 N 
ATOM      3  HN  UNL     1      64.758   8.049   7.331  1.00  0.00     0.167 HD
HETATM    4  N   UNL     1      64.980   4.945   6.586  1.00  0.00    -0.340 N 
HETATM    5  C   UNL     1      66.021   6.387   7.834  1.00  0.00     0.060 A 
HETATM    6  C   UNL     1      66.031   5.051   7.455  1.00  0.00     0.060 A 
HETATM    7  C   UNL     1      66.998   6.853   8.725  1.00  0.00     0.032 A 
HETATM    8  C   UNL     1      66.962   4.124   7.925  1.00  0.00     0.032 A 
HETATM    9  C   UNL     1      67.924   4.604   8.822  1.00  0.00     0.002 A 
HETATM   10  C   UNL     1      67.947   5.945   9.215  1.00  0.00     0.002 A 
HETATM   11  H   UNL     1      64.733   4.137   6.081  1.00  0.00     0.167 HD
ENDROOT
BRANCH   1  12
HETATM   12  C   UNL     1      63.093   6.364   5.765  1.00  0.00     0.034 A 
HETATM   13  C   UNL     1      63.082   6.936   4.472  1.00  0.00     0.039 A 
HETATM   14  C   UNL     1      61.847   7.201   3.858  1.00  0.00     0.030 A 
HETATM   15  C   UNL     1      60.649   6.805   4.453  1.00  0.00     0.002 A 
HETATM   16  C   UNL     1      60.662   6.179   5.694  1.00  0.00     0.001 A 
HETATM   17  C   UNL     1      61.876   5.967   6.348  1.00  0.00     0.017 A 
BRANCH  13  18
HETATM   18  N   UNL     1      64.262   7.397   3.837  1.00  0.00    -0.398 N 
HETATM   19  H   UNL     1      64.720   8.202   4.170  1.00  0.00     0.156 HD
HETATM   20  H   UNL     1      64.625   6.911   3.060  1.00  0.00     0.156 HD
ENDBRANCH  13  18
ENDBRANCH   1  12
TORSDOF 2
ENDMDL
MODEL 8
REMARK VINA RESULT:      -4.7      2.721      3.743
REMARK  2 active torsions:
REMARK  status: ('A' for Active; 'I' for Inactive)
REMARK    1  A    between atoms: C_1  and  C_5 
REMARK    2  A    between atoms: C_8  and  N_9 
ROOT
HETATM    1  C   UNL     1      62.550   7.697   4.206  1.00  0.00     0.118 A 
HETATM    2  N   UNL     1      63.737   7.183   4.476  1.00  0.00    -0.340 N 
ATOM      3  HN  UNL     1      64.643   7.535   4.169  1.00  0.00     0.167 HD
HETATM    4  N   UNL     1      61.558   6.888   4.717  1.00  0.00    -0.340 N 
HETATM    5  C   UNL     1      63.500   6.077   5.255  1.00  0.00     0.060 A 
HETATM    6  C   UNL     1      62.137   5.882   5.440  1.00  0.00     0.060 A 
HETATM    7  C   UNL     1      64.406   5.192   5.857  1.00  0.00     0.032 A 
HETATM    8  C   UNL     1      61.605   4.849   6.212  1.00  0.00     0.032 A 
HETATM    9  C   UNL     1      62.524   3.981   6.814  1.00  0.00     0.002 A 
HETATM   10  C   UNL     1      63.901   4.144   6.639  1.00  0.00     0.002 A 
HETATM   11  H   UNL     1      60.590   7.014   4.584  1.00  0.00     0.167 HD
ENDROOT
BRANCH   1  12
HETATM   12  C   UNL     1      62.272   8.925   3.456  1.00  0.00     0.034 A 
HETATM   13  C   UNL     1      62.164   8.957   2.047  1.00  0.00     0.039 A 
HETATM   14  C   UNL     1      62.008  10.196   1.405  1.00  0.00     0.030 A 
HETATM   15  C   UNL     1      61.845  11.370   2.141  1.00  0.00     0.002 A 
HETATM   16  C   UNL     1      61.881  11.331   3.531  1.00  0.00     0.001 A 
HETATM   17  C   UNL     1      62.100  10.117   4.182  1.00  0.00     0.017 A 
BRANCH  13  18
HETATM   18  N   UNL     1      62.364   7.804   1.245  1.00  0.00    -0.398 N 
HETATM   19  H   UNL     1      62.811   7.883   0.371  1.00  0.00     0.156 HD
HETATM   20  H   UNL     1      62.055   6.925   1.561  1.00  0.00     0.156 HD
ENDBRANCH  13  18
ENDBRANCH   1  12
TORSDOF 2
ENDMDL
MODEL 9
REMARK VINA RESULT:      -4.7      2.522      3.295
REMARK  2 active torsions:
REMARK  status: ('A' for Active; 'I' for Inactive)
REMARK    1  A    between atoms: C_1  and  C_5 
REMARK    2  A    between atoms: C_8  and  N_9 
ROOT
HETATM    1  C   UNL     1      62.580   7.414   4.351  1.00  0.00     0.118 A 
HETATM    2  N   UNL     1      63.743   6.841   4.602  1.00  0.00    -0.340 N 
ATOM      3  HN  UNL     1      64.661   7.141   4.272  1.00  0.00     0.167 HD
HETATM    4  N   UNL     1      61.558   6.664   4.892  1.00  0.00    -0.340 N 
HETATM    5  C   UNL     1      63.465   5.758   5.399  1.00  0.00     0.060 A 
HETATM    6  C   UNL     1      62.099   5.637   5.615  1.00  0.00     0.060 A 
HETATM    7  C   UNL     1      64.336   4.833   5.993  1.00  0.00     0.032 A 
HETATM    8  C   UNL     1      61.530   4.642   6.411  1.00  0.00     0.032 A 
HETATM    9  C   UNL     1      62.415   3.733   7.003  1.00  0.00     0.002 A 
HETATM   10  C   UNL     1      63.794   3.822   6.797  1.00  0.00     0.002 A 
HETATM   11  H   UNL     1      60.596   6.840   4.778  1.00  0.00     0.167 HD
ENDROOT
BRANCH   1  12
HETATM   12  C   UNL     1      62.351   8.647   3.592  1.00  0.00     0.034 A 
HETATM   13  C   UNL     1      62.475   9.935   4.162  1.00  0.00     0.039 A 
HETATM   14  C   UNL     1      62.127  11.055   3.391  1.00  0.00     0.030 A 
HETATM   15  C   UNL     1      61.774  10.921   2.047  1.00  0.00     0.002 A 
HETATM   16  C   UNL     1      61.719   9.659   1.465  1.00  0.00     0.001 A 
HETATM   17  C   UNL     1      61.999   8.530   2.236  1.00  0.00     0.017 A 
BRANCH  13  18
HETATM   18  N   UNL     1      62.787  10.131   5.531  1.00  0.00    -0.398 N 
HETATM   19  H   UNL     1      63.727  10.141   5.826  1.00  0.00     0.156 HD
HETATM   20  H   UNL     1      62.065  10.258   6.188  1.00  0.00     0.156 HD
ENDBRANCH  13  18
ENDBRANCH   1  12
TORSDOF 2
ENDMDL
