MODEL 1
REMARK VINA RESULT:      -4.9      0.000      0.000
REMARK  1 active torsions:
REMARK  status: ('A' for Active; 'I' for Inactive)
REMARK    1  A    between atoms: C_3  and  C_9 
ROOT
HETATM    1  N   UNL     1      66.486   7.420   6.887  1.00  0.00    -0.197 NA
HETATM    2  C   UNL     1      65.361   7.215   6.683  1.00  0.00     0.065 C 
HETATM    3  C   UNL     1      63.947   6.911   6.445  1.00  0.00     0.188 C 
ENDROOT
BRANCH   3   4
HETATM    4  C   UNL     1      63.406   7.786   5.359  1.00  0.00     0.065 A 
HETATM    5  N   UNL     1      63.022   9.031   5.543  1.00  0.00    -0.352 N 
HETATM    6  C   UNL     1      62.623   9.589   4.339  1.00  0.00     0.050 A 
ATOM      7  HN  UNL     1      63.019   9.515   6.441  1.00  0.00     0.166 HD
HETATM    8  C   UNL     1      62.662   8.731   3.239  1.00  0.00     0.033 A 
HETATM    9  C   UNL     1      62.200  10.920   4.148  1.00  0.00     0.031 A 
HETATM   10  S   UNL     1      63.230   7.188   3.756  1.00  0.00    -0.074 SA
HETATM   11  C   UNL     1      62.285   9.156   1.954  1.00  0.00     0.021 A 
HETATM   12  C   UNL     1      61.873  10.483   1.790  1.00  0.00     0.002 A 
HETATM   13  C   UNL     1      61.834  11.357   2.872  1.00  0.00     0.002 A 
ENDBRANCH   3   4
TORSDOF 1
ENDMDL
MODEL 2
REMARK VINA RESULT:      -4.9      1.185      1.362
REMARK  1 active torsions:
REMARK  status: ('A' for Active; 'I' for Inactive)
REMARK    1  A    between atoms: C_3  and  C_9 
ROOT
HETATM    1  N   UNL     1      66.231   6.962   8.315  1.00  0.00    -0.197 NA
HETATM    2  C   UNL     1      66.021   6.773   7.188  1.00  0.00     0.065 C 
HETATM    3  C   UNL     1      65.799   6.510   5.764  1.00  0.00     0.188 C 
ENDROOT
BRANCH   3   4
HETATM    4  C   UNL     1      64.822   7.495   5.203  1.00  0.00     0.065 A 
HETATM    5  N   UNL     1      64.489   8.619   5.799  1.00  0.00    -0.352 N 
HETATM    6  C   UNL     1      63.609   9.337   5.005  1.00  0.00     0.050 A 
ATOM      7  HN  UNL     1      64.830   8.920   6.713  1.00  0.00     0.166 HD
HETATM    8  C   UNL     1      63.237   8.715   3.812  1.00  0.00     0.033 A 
HETATM    9  C   UNL     1      63.084  10.610   5.300  1.00  0.00     0.031 A 
HETATM   10  S   UNL     1      64.036   7.192   3.703  1.00  0.00    -0.074 SA
HETATM   11  C   UNL     1      62.349   9.321   2.907  1.00  0.00     0.021 A 
HETATM   12  C   UNL     1      61.845  10.588   3.221  1.00  0.00     0.002 A 
HETATM   13  C   UNL     1      62.209  11.229   4.402  1.00  0.00     0.002 A 
ENDBRANCH   3   4
TORSDOF 1
ENDMDL
MODEL 3
REMARK VINA RESULT:      -4.7      1.977      4.925
REMARK  1 active torsions:
REMARK  status: ('A' for Active; 'I' for Inactive)
REMARK    1  A    between atoms: C_3  and  C_9 
ROOT
HETATM    1  N   UNL     1      62.076  11.594   4.221  1.00  0.00    -0.197 NA
HETATM    2  C   UNL     1      62.094  10.469   3.931  1.00  0.00     0.065 C 
HETATM    3  C   UNL     1      62.068   9.050   3.566  1.00  0.00     0.188 C 
ENDROOT
BRANCH   3   4
HETATM    4  C   UNL     1      63.367   8.399   3.927  1.00  0.00     0.065 A 
HETATM    5  N   UNL     1      64.198   8.873   4.830  1.00  0.00    -0.352 N 
HETATM    6  C   UNL     1      65.280   8.019   4.975  1.00  0.00     0.050 A 
ATOM      7  HN  UNL     1      64.066   9.742   5.348  1.00  0.00     0.166 HD
HETATM    8  C   UNL     1      65.283   6.908   4.129  1.00  0.00     0.033 A 
HETATM    9  C   UNL     1      66.340   8.181   5.889  1.00  0.00     0.031 A 
HETATM   10  S   UNL     1      63.872   6.955   3.142  1.00  0.00    -0.074 SA
HETATM   11  C   UNL     1      66.316   5.956   4.161  1.00  0.00     0.021 A 
HETATM   12  C   UNL     1      67.355   6.137   5.081  1.00  0.00     0.002 A 
HETATM   13  C   UNL     1      67.368   7.233   5.937  1.00  0.00     0.002 A 
ENDBRANCH   3   4
TORSDOF 1
ENDMDL
MODEL 4
REMARK VINA RESULT:      -4.6      2.441      6.137
REMARK  1 active torsions:
REMARK  status: ('A' for Active; 'I' for Inactive)
REMARK    1  A    between atoms: C_3  and  C_9 
ROOT
HETATM    1  N   UNL     1      63.395  10.493   5.820  1.00  0.00    -0.197 NA
HETATM    2  C   UNL     1      63.794   9.563   5.250  1.00  0.00     0.065 C 
HETATM    3  C   UNL     1      64.258   8.392   4.501  1.00  0.00     0.188 C 
ENDROOT
BRANCH   3   4
HETATM    4  C   UNL     1      65.204   7.586   5.335  1.00  0.00     0.065 A 
HETATM    5  N   UNL     1      65.542   7.897   6.568  1.00  0.00    -0.352 N 
HETATM    6  C   UNL     1      66.386   6.929   7.088  1.00  0.00     0.050 A 
ATOM      7  HN  UNL     1      65.228   8.729   7.068  1.00  0.00     0.166 HD
HETATM    8  C   UNL     1      66.727   5.898   6.211  1.00  0.00     0.033 A 
HETATM    9  C   UNL     1      66.905   6.907   8.398  1.00  0.00     0.031 A 
HETATM   10  S   UNL     1      65.943   6.169   4.701  1.00  0.00    -0.074 SA
HETATM   11  C   UNL     1      67.577   4.847   6.598  1.00  0.00     0.021 A 
HETATM   12  C   UNL     1      68.075   4.845   7.905  1.00  0.00     0.002 A 
HETATM   13  C   UNL     1      67.742   5.860   8.798  1.00  0.00     0.002 A 
ENDBRANCH   3   4
TORSDOF 1
ENDMDL
MODEL 5
REMARK VINA RESULT:      -4.2      2.779      4.220
REMARK  1 active torsions:
REMARK  status: ('A' for Active; 'I' for Inactive)
REMARK    1  A    between atoms: C_3  and  C_9 
ROOT
HETATM    1  N   UNL     1      66.982   3.309   8.865  1.00  0.00    -0.197 NA
HETATM    2  C   UNL     1      67.277   4.379   8.523  1.00  0.00     0.065 C 
HETATM    3  C   UNL     1      67.683   5.731   8.130  1.00  0.00     0.188 C 
ENDROOT
BRANCH   3   4
HETATM    4  C   UNL     1      66.605   6.378   7.317  1.00  0.00     0.065 A 
HETATM    5  N   UNL     1      65.349   5.990   7.323  1.00  0.00    -0.352 N 
HETATM    6  C   UNL     1      64.590   6.819   6.514  1.00  0.00     0.050 A 
ATOM      7  HN  UNL     1      64.985   5.193   7.848  1.00  0.00     0.166 HD
HETATM    8  C   UNL     1      65.301   7.820   5.849  1.00  0.00     0.033 A 
HETATM    9  C   UNL     1      63.197   6.734   6.322  1.00  0.00     0.031 A 
HETATM   10  S   UNL     1      66.966   7.701   6.279  1.00  0.00    -0.074 SA
HETATM   11  C   UNL     1      64.666   8.735   4.992  1.00  0.00     0.021 A 
HETATM   12  C   UNL     1      63.281   8.633   4.823  1.00  0.00     0.002 A 
HETATM   13  C   UNL     1      62.552   7.647   5.481  1.00  0.00     0.002 A 
ENDBRANCH   3   4
TORSDOF 1
ENDMDL
MODEL 6
REMARK VINA RESULT:      -4.1      2.425      2.856
REMARK  1 active torsions:
REMARK  status: ('A' for Active; 'I' for Inactive)
REMARK    1  A    between atoms: C_3  and  C_9 
ROOT
HETATM    1  N   UNL     1      65.160   4.641   2.042  1.00  0.00    -0.197 NA
HETATM    2  C   UNL     1      64.689   5.132   2.984  1.00  0.00     0.065 C 
HETATM    3  C   UNL     1      64.087   5.705   4.190  1.00  0.00     0.188 C 
ENDROOT
BRANCH   3   4
HETATM    4  C   UNL     1      63.573   7.082   3.908  1.00  0.00     0.065 A 
HETATM    5  N   UNL     1      63.245   7.510   2.708  1.00  0.00    -0.352 N 
HETATM    6  C   UNL     1      62.753   8.804   2.782  1.00  0.00     0.050 A 
ATOM      7  HN  UNL     1      63.339   6.969   1.848  1.00  0.00     0.166 HD
HETATM    8  C   UNL     1      62.758   9.373   4.057  1.00  0.00     0.033 A 
HETATM    9  C   UNL     1      62.258   9.560   1.702  1.00  0.00     0.031 A 
HETATM   10  S   UNL     1      63.394   8.228   5.177  1.00  0.00    -0.074 SA
HETATM   11  C   UNL     1      62.292  10.679   4.286  1.00  0.00     0.021 A 
HETATM   12  C   UNL     1      61.800  11.408   3.197  1.00  0.00     0.002 A 
HETATM   13  C   UNL     1      61.780  10.856   1.920  1.00  0.00     0.002 A 
ENDBRANCH   3   4
TORSDOF 1
ENDMDL
MODEL 7
REMARK VINA RESULT:      -4.1      2.961      4.964
REMARK  1 active torsions:
REMARK  status: ('A' for Active; 'I' for Inactive)
REMARK    1  A    between atoms: C_3  and  C_9 
ROOT
HETATM    1  N   UNL     1      59.325   5.493   0.517  1.00  0.00    -0.197 NA
HETATM    2  C   UNL     1      59.668   6.602   0.471  1.00  0.00     0.065 C 
HETATM    3  C   UNL     1      60.089   8.001   0.364  1.00  0.00     0.188 C 
ENDROOT
BRANCH   3   4
HETATM    4  C   UNL     1      61.016   8.349   1.486  1.00  0.00     0.065 A 
HETATM    5  N   UNL     1      60.948   9.468   2.174  1.00  0.00    -0.352 N 
HETATM    6  C   UNL     1      61.904   9.470   3.176  1.00  0.00     0.050 A 
ATOM      7  HN  UNL     1      60.287  10.225   1.996  1.00  0.00     0.166 HD
HETATM    8  C   UNL     1      62.738   8.351   3.209  1.00  0.00     0.033 A 
HETATM    9  C   UNL     1      62.087  10.482   4.138  1.00  0.00     0.031 A 
HETATM   10  S   UNL     1      62.281   7.277   1.942  1.00  0.00    -0.074 SA
HETATM   11  C   UNL     1      63.756   8.214   4.168  1.00  0.00     0.021 A 
HETATM   12  C   UNL     1      63.914   9.231   5.116  1.00  0.00     0.002 A 
HETATM   13  C   UNL     1      63.089  10.352   5.105  1.00  0.00     0.002 A 
ENDBRANCH   3   4
TORSDOF 1
ENDMDL
MODEL 8
REMARK VINA RESULT:      -4.1      1.827      2.156
REMARK  1 active torsions:
REMARK  status: ('A' for Active; 'I' for Inactive)
REMARK    1  A    between atoms: C_3  and  C_9 
ROOT
HETATM    1  N   UNL     1      62.083   3.890   4.898  1.00  0.00    -0.197 NA
HETATM    2  C   UNL     1      62.645   4.866   5.181  1.00  0.00     0.065 C 
HETATM    3  C   UNL     1      63.363   6.078   5.583  1.00  0.00     0.188 C 
ENDROOT
BRANCH   3   4
HETATM    4  C   UNL     1      62.965   7.228   4.712  1.00  0.00     0.065 A 
HETATM    5  N   UNL     1      62.722   8.440   5.163  1.00  0.00    -0.352 N 
HETATM    6  C   UNL     1      62.432   9.291   4.108  1.00  0.00     0.050 A 
ATOM      7  HN  UNL     1      62.743   8.714   6.145  1.00  0.00     0.166 HD
HETATM    8  C   UNL     1      62.411   8.693   2.846  1.00  0.00     0.033 A 
HETATM    9  C   UNL     1      62.173  10.671   4.211  1.00  0.00     0.031 A 
HETATM   10  S   UNL     1      62.777   7.018   3.016  1.00  0.00    -0.074 SA
HETATM   11  C   UNL     1      62.130   9.430   1.683  1.00  0.00     0.021 A 
HETATM   12  C   UNL     1      61.881  10.801   1.811  1.00  0.00     0.002 A 
HETATM   13  C   UNL     1      61.904  11.417   3.059  1.00  0.00     0.002 A 
ENDBRANCH   3   4
TORSDOF 1
ENDMDL
MODEL 9
REMARK VINA RESULT:      -4.1      4.294      7.744
REMARK  1 active torsions:
REMARK  status: ('A' for Active; 'I' for Inactive)
REMARK    1  A    between atoms: C_3  and  C_9 
ROOT
HETATM    1  N   UNL     1      65.239   8.766   5.850  1.00  0.00    -0.197 NA
HETATM    2  C   UNL     1      66.254   8.240   5.642  1.00  0.00     0.065 C 
HETATM    3  C   UNL     1      67.538   7.603   5.339  1.00  0.00     0.188 C 
ENDROOT
BRANCH   3   4
HETATM    4  C   UNL     1      67.651   6.297   6.061  1.00  0.00     0.065 A 
HETATM    5  N   UNL     1      67.907   6.189   7.346  1.00  0.00    -0.352 N 
HETATM    6  C   UNL     1      67.893   4.857   7.725  1.00  0.00     0.050 A 
ATOM      7  HN  UNL     1      68.089   6.973   7.974  1.00  0.00     0.166 HD
HETATM    8  C   UNL     1      67.670   3.944   6.692  1.00  0.00     0.033 A 
HETATM    9  C   UNL     1      68.075   4.370   9.034  1.00  0.00     0.031 A 
HETATM   10  S   UNL     1      67.465   4.810   5.217  1.00  0.00    -0.074 SA
HETATM   11  C   UNL     1      67.631   2.558   6.924  1.00  0.00     0.021 A 
HETATM   12  C   UNL     1      67.809   2.101   8.235  1.00  0.00     0.002 A 
HETATM   13  C   UNL     1      68.026   2.994   9.279  1.00  0.00     0.002 A 
ENDBRANCH   3   4
TORSDOF 1
ENDMDL
