MODEL 1
REMARK VINA RESULT:      -4.7      0.000      0.000
REMARK  4 active torsions:
REMARK  status: ('A' for Active; 'I' for Inactive)
REMARK    1  A    between atoms: C_1  and  C_5 
REMARK    2  A    between atoms: C_2  and  N_8 
REMARK    3  A    between atoms: C_5  and  O_9 
REMARK    4  A    between atoms: O_9  and  C_11 
ROOT
HETATM    1  C   UNL     1      63.561   9.075   4.854  1.00  0.00     0.079 A 
HETATM    2  C   UNL     1      63.022  10.345   5.020  1.00  0.00     0.084 A 
HETATM    3  S   UNL     1      62.023  10.806   3.710  1.00  0.00    -0.083 SA
HETATM    4  C   UNL     1      63.122   8.486   3.593  1.00  0.00    -0.036 A 
HETATM    5  C   UNL     1      62.296   9.342   2.893  1.00  0.00     0.059 A 
HETATM    6  C   UNL     1      63.511   7.128   3.098  1.00  0.00     0.050 C 
ENDROOT
BRANCH   1   7
HETATM    7  C   UNL     1      64.458   8.405   5.808  1.00  0.00     0.296 C 
HETATM    8  O   UNL     1      64.134   7.409   6.445  1.00  0.00    -0.259 OA
BRANCH   7   9
HETATM    9  O   UNL     1      65.687   8.999   5.925  1.00  0.00    -0.318 OA
BRANCH   9  10
HETATM   10  C   UNL     1      66.797   8.107   6.103  1.00  0.00     0.174 C 
HETATM   11  C   UNL     1      67.307   7.612   4.762  1.00  0.00     0.034 C 
ENDBRANCH   9  10
ENDBRANCH   7   9
ENDBRANCH   1   7
BRANCH   2  12
HETATM   12  N   UNL     1      63.194  11.212   6.040  1.00  0.00    -0.393 N 
HETATM   13  H   UNL     1      62.413  11.549   6.536  1.00  0.00     0.156 HD
HETATM   14  H   UNL     1      64.100  11.508   6.289  1.00  0.00     0.156 HD
ENDBRANCH   2  12
TORSDOF 4
ENDMDL
MODEL 2
REMARK VINA RESULT:      -4.5      1.100      1.600
REMARK  4 active torsions:
REMARK  status: ('A' for Active; 'I' for Inactive)
REMARK    1  A    between atoms: C_1  and  C_5 
REMARK    2  A    between atoms: C_2  and  N_8 
REMARK    3  A    between atoms: C_5  and  O_9 
REMARK    4  A    between atoms: O_9  and  C_11 
ROOT
HETATM    1  C   UNL     1      63.838   8.991   4.738  1.00  0.00     0.079 A 
HETATM    2  C   UNL     1      63.215  10.205   5.002  1.00  0.00     0.084 A 
HETATM    3  S   UNL     1      61.961  10.549   3.890  1.00  0.00    -0.083 SA
HETATM    4  C   UNL     1      63.247   8.347   3.570  1.00  0.00    -0.036 A 
HETATM    5  C   UNL     1      62.230   9.109   3.030  1.00  0.00     0.059 A 
HETATM    6  C   UNL     1      63.675   7.027   3.008  1.00  0.00     0.050 C 
ENDROOT
BRANCH   1   7
HETATM    7  C   UNL     1      64.950   8.423   5.516  1.00  0.00     0.296 C 
HETATM    8  O   UNL     1      66.128   8.597   5.225  1.00  0.00    -0.259 OA
BRANCH   7   9
HETATM    9  O   UNL     1      64.549   7.676   6.593  1.00  0.00    -0.318 OA
BRANCH   9  10
HETATM   10  C   UNL     1      65.268   6.454   6.807  1.00  0.00     0.174 C 
HETATM   11  C   UNL     1      66.053   6.514   8.105  1.00  0.00     0.034 C 
ENDBRANCH   9  10
ENDBRANCH   7   9
ENDBRANCH   1   7
BRANCH   2  12
HETATM   12  N   UNL     1      63.476  11.096   5.981  1.00  0.00    -0.393 N 
HETATM   13  H   UNL     1      64.192  11.761   5.862  1.00  0.00     0.156 HD
HETATM   14  H   UNL     1      62.952  11.081   6.814  1.00  0.00     0.156 HD
ENDBRANCH   2  12
TORSDOF 4
ENDMDL
MODEL 3
REMARK VINA RESULT:      -4.2      1.764      2.418
REMARK  4 active torsions:
REMARK  status: ('A' for Active; 'I' for Inactive)
REMARK    1  A    between atoms: C_1  and  C_5 
REMARK    2  A    between atoms: C_2  and  N_8 
REMARK    3  A    between atoms: C_5  and  O_9 
REMARK    4  A    between atoms: O_9  and  C_11 
ROOT
HETATM    1  C   UNL     1      63.415   8.942   4.423  1.00  0.00     0.079 A 
HETATM    2  C   UNL     1      63.079   8.317   3.228  1.00  0.00     0.084 A 
HETATM    3  S   UNL     1      61.987   9.243   2.292  1.00  0.00    -0.083 SA
HETATM    4  C   UNL     1      62.730  10.225   4.547  1.00  0.00    -0.036 A 
HETATM    5  C   UNL     1      61.926  10.480   3.454  1.00  0.00     0.059 A 
HETATM    6  C   UNL     1      62.864  11.161   5.708  1.00  0.00     0.050 C 
ENDROOT
BRANCH   1   7
HETATM    7  C   UNL     1      64.328   8.395   5.437  1.00  0.00     0.296 C 
HETATM    8  O   UNL     1      63.955   7.671   6.353  1.00  0.00    -0.259 OA
BRANCH   7   9
HETATM    9  O   UNL     1      65.634   8.776   5.271  1.00  0.00    -0.318 OA
BRANCH   9  10
HETATM   10  C   UNL     1      66.595   8.076   6.074  1.00  0.00     0.174 C 
HETATM   11  C   UNL     1      67.737   7.561   5.216  1.00  0.00     0.034 C 
ENDBRANCH   9  10
ENDBRANCH   7   9
ENDBRANCH   1   7
BRANCH   2  12
HETATM   12  N   UNL     1      63.491   7.123   2.752  1.00  0.00    -0.393 N 
HETATM   13  H   UNL     1      64.043   6.533   3.316  1.00  0.00     0.156 HD
HETATM   14  H   UNL     1      63.242   6.842   1.842  1.00  0.00     0.156 HD
ENDBRANCH   2  12
TORSDOF 4
ENDMDL
MODEL 4
REMARK VINA RESULT:      -4.2      2.672      3.956
REMARK  4 active torsions:
REMARK  status: ('A' for Active; 'I' for Inactive)
REMARK    1  A    between atoms: C_1  and  C_5 
REMARK    2  A    between atoms: C_2  and  N_8 
REMARK    3  A    between atoms: C_5  and  O_9 
REMARK    4  A    between atoms: O_9  and  C_11 
ROOT
HETATM    1  C   UNL     1      65.192   7.967   5.296  1.00  0.00     0.079 A 
HETATM    2  C   UNL     1      66.429   7.956   5.929  1.00  0.00     0.084 A 
HETATM    3  S   UNL     1      67.558   6.944   5.137  1.00  0.00    -0.083 SA
HETATM    4  C   UNL     1      65.202   7.098   4.124  1.00  0.00    -0.036 A 
HETATM    5  C   UNL     1      66.429   6.489   3.953  1.00  0.00     0.059 A 
HETATM    6  C   UNL     1      64.037   6.875   3.210  1.00  0.00     0.050 C 
ENDROOT
BRANCH   1   7
HETATM    7  C   UNL     1      64.021   8.739   5.739  1.00  0.00     0.296 C 
HETATM    8  O   UNL     1      63.021   8.219   6.220  1.00  0.00    -0.259 OA
BRANCH   7   9
HETATM    9  O   UNL     1      64.147  10.091   5.558  1.00  0.00    -0.318 OA
BRANCH   9  10
HETATM   10  C   UNL     1      62.918  10.828   5.487  1.00  0.00     0.174 C 
HETATM   11  C   UNL     1      62.287  10.686   4.113  1.00  0.00     0.034 C 
ENDBRANCH   9  10
ENDBRANCH   7   9
ENDBRANCH   1   7
BRANCH   2  12
HETATM   12  N   UNL     1      66.818   8.615   7.041  1.00  0.00    -0.393 N 
HETATM   13  H   UNL     1      66.275   9.361   7.385  1.00  0.00     0.156 HD
HETATM   14  H   UNL     1      67.643   8.351   7.508  1.00  0.00     0.156 HD
ENDBRANCH   2  12
TORSDOF 4
ENDMDL
MODEL 5
REMARK VINA RESULT:      -3.9      3.830      5.399
REMARK  4 active torsions:
REMARK  status: ('A' for Active; 'I' for Inactive)
REMARK    1  A    between atoms: C_1  and  C_5 
REMARK    2  A    between atoms: C_2  and  N_8 
REMARK    3  A    between atoms: C_5  and  O_9 
REMARK    4  A    between atoms: O_9  and  C_11 
ROOT
HETATM    1  C   UNL     1      67.192   6.457   6.181  1.00  0.00     0.079 A 
HETATM    2  C   UNL     1      67.476   6.190   7.515  1.00  0.00     0.084 A 
HETATM    3  S   UNL     1      67.902   4.554   7.776  1.00  0.00    -0.083 SA
HETATM    4  C   UNL     1      67.333   5.253   5.369  1.00  0.00    -0.036 A 
HETATM    5  C   UNL     1      67.704   4.165   6.134  1.00  0.00     0.059 A 
HETATM    6  C   UNL     1      67.105   5.181   3.891  1.00  0.00     0.050 C 
ENDROOT
BRANCH   1   7
HETATM    7  C   UNL     1      66.795   7.768   5.646  1.00  0.00     0.296 C 
HETATM    8  O   UNL     1      67.480   8.402   4.851  1.00  0.00    -0.259 OA
BRANCH   7   9
HETATM    9  O   UNL     1      65.592   8.221   6.122  1.00  0.00    -0.318 OA
BRANCH   9  10
HETATM   10  C   UNL     1      64.676   8.714   5.135  1.00  0.00     0.174 C 
HETATM   11  C   UNL     1      64.155   7.578   4.272  1.00  0.00     0.034 C 
ENDBRANCH   9  10
ENDBRANCH   7   9
ENDBRANCH   1   7
BRANCH   2  12
HETATM   12  N   UNL     1      67.449   7.030   8.571  1.00  0.00    -0.393 N 
HETATM   13  H   UNL     1      66.598   7.214   9.031  1.00  0.00     0.156 HD
HETATM   14  H   UNL     1      68.279   7.459   8.881  1.00  0.00     0.156 HD
ENDBRANCH   2  12
TORSDOF 4
ENDMDL
MODEL 6
REMARK VINA RESULT:      -3.9      1.596      2.037
REMARK  4 active torsions:
REMARK  status: ('A' for Active; 'I' for Inactive)
REMARK    1  A    between atoms: C_1  and  C_5 
REMARK    2  A    between atoms: C_2  and  N_8 
REMARK    3  A    between atoms: C_5  and  O_9 
REMARK    4  A    between atoms: O_9  and  C_11 
ROOT
HETATM    1  C   UNL     1      63.359   8.778   4.123  1.00  0.00     0.079 A 
HETATM    2  C   UNL     1      62.536   9.858   3.828  1.00  0.00     0.084 A 
HETATM    3  S   UNL     1      61.775   9.700   2.304  1.00  0.00    -0.083 SA
HETATM    4  C   UNL     1      63.347   7.804   3.036  1.00  0.00    -0.036 A 
HETATM    5  C   UNL     1      62.530   8.210   2.000  1.00  0.00     0.059 A 
HETATM    6  C   UNL     1      64.119   6.521   3.023  1.00  0.00     0.050 C 
ENDROOT
BRANCH   1   7
HETATM    7  C   UNL     1      64.146   8.625   5.356  1.00  0.00     0.296 C 
HETATM    8  O   UNL     1      65.152   9.284   5.593  1.00  0.00    -0.259 OA
BRANCH   7   9
HETATM    9  O   UNL     1      63.658   7.673   6.212  1.00  0.00    -0.318 OA
BRANCH   9  10
HETATM   10  C   UNL     1      64.614   6.720   6.697  1.00  0.00     0.174 C 
HETATM   11  C   UNL     1      64.105   5.303   6.502  1.00  0.00     0.034 C 
ENDBRANCH   9  10
ENDBRANCH   7   9
ENDBRANCH   1   7
BRANCH   2  12
HETATM   12  N   UNL     1      62.288  10.960   4.566  1.00  0.00    -0.393 N 
HETATM   13  H   UNL     1      62.774  11.796   4.380  1.00  0.00     0.156 HD
HETATM   14  H   UNL     1      61.622  10.929   5.291  1.00  0.00     0.156 HD
ENDBRANCH   2  12
TORSDOF 4
ENDMDL
MODEL 7
REMARK VINA RESULT:      -3.8      2.969      4.082
REMARK  4 active torsions:
REMARK  status: ('A' for Active; 'I' for Inactive)
REMARK    1  A    between atoms: C_1  and  C_5 
REMARK    2  A    between atoms: C_2  and  N_8 
REMARK    3  A    between atoms: C_5  and  O_9 
REMARK    4  A    between atoms: O_9  and  C_11 
ROOT
HETATM    1  C   UNL     1      65.302   7.770   5.365  1.00  0.00     0.079 A 
HETATM    2  C   UNL     1      66.527   7.933   6.002  1.00  0.00     0.084 A 
HETATM    3  S   UNL     1      67.802   7.151   5.172  1.00  0.00    -0.083 SA
HETATM    4  C   UNL     1      65.449   6.964   4.158  1.00  0.00    -0.036 A 
HETATM    5  C   UNL     1      66.757   6.569   3.966  1.00  0.00     0.059 A 
HETATM    6  C   UNL     1      64.332   6.594   3.231  1.00  0.00     0.050 C 
ENDROOT
BRANCH   1   7
HETATM    7  C   UNL     1      64.023   8.323   5.836  1.00  0.00     0.296 C 
HETATM    8  O   UNL     1      63.581   9.402   5.458  1.00  0.00    -0.259 OA
BRANCH   7   9
HETATM    9  O   UNL     1      63.374   7.525   6.741  1.00  0.00    -0.318 OA
BRANCH   9  10
HETATM   10  C   UNL     1      62.172   6.898   6.271  1.00  0.00     0.174 C 
HETATM   11  C   UNL     1      62.345   5.391   6.204  1.00  0.00     0.034 C 
ENDBRANCH   9  10
ENDBRANCH   7   9
ENDBRANCH   1   7
BRANCH   2  12
HETATM   12  N   UNL     1      66.807   8.599   7.142  1.00  0.00    -0.393 N 
HETATM   13  H   UNL     1      67.743   8.742   7.410  1.00  0.00     0.156 HD
HETATM   14  H   UNL     1      66.075   8.941   7.706  1.00  0.00     0.156 HD
ENDBRANCH   2  12
TORSDOF 4
ENDMDL
MODEL 8
REMARK VINA RESULT:      -3.8      3.607      4.959
REMARK  4 active torsions:
REMARK  status: ('A' for Active; 'I' for Inactive)
REMARK    1  A    between atoms: C_1  and  C_5 
REMARK    2  A    between atoms: C_2  and  N_8 
REMARK    3  A    between atoms: C_5  and  O_9 
REMARK    4  A    between atoms: O_9  and  C_11 
ROOT
HETATM    1  C   UNL     1      65.299   6.481   6.883  1.00  0.00     0.079 A 
HETATM    2  C   UNL     1      66.499   7.072   7.258  1.00  0.00     0.084 A 
HETATM    3  S   UNL     1      67.596   5.948   7.935  1.00  0.00    -0.083 SA
HETATM    4  C   UNL     1      65.308   5.053   7.181  1.00  0.00    -0.036 A 
HETATM    5  C   UNL     1      66.499   4.663   7.760  1.00  0.00     0.059 A 
HETATM    6  C   UNL     1      64.178   4.110   6.906  1.00  0.00     0.050 C 
ENDROOT
BRANCH   1   7
HETATM    7  C   UNL     1      64.161   7.188   6.274  1.00  0.00     0.296 C 
HETATM    8  O   UNL     1      63.101   7.376   6.859  1.00  0.00    -0.259 OA
BRANCH   7   9
HETATM    9  O   UNL     1      64.392   7.609   4.991  1.00  0.00    -0.318 OA
BRANCH   9  10
HETATM   10  C   UNL     1      63.906   8.920   4.668  1.00  0.00     0.174 C 
HETATM   11  C   UNL     1      62.870   8.849   3.560  1.00  0.00     0.034 C 
ENDBRANCH   9  10
ENDBRANCH   7   9
ENDBRANCH   1   7
BRANCH   2  12
HETATM   12  N   UNL     1      66.875   8.365   7.157  1.00  0.00    -0.393 N 
HETATM   13  H   UNL     1      67.512   8.743   7.806  1.00  0.00     0.156 HD
HETATM   14  H   UNL     1      66.513   8.929   6.437  1.00  0.00     0.156 HD
ENDBRANCH   2  12
TORSDOF 4
ENDMDL
MODEL 9
REMARK VINA RESULT:      -3.7      3.385      5.159
REMARK  4 active torsions:
REMARK  status: ('A' for Active; 'I' for Inactive)
REMARK    1  A    between atoms: C_1  and  C_5 
REMARK    2  A    between atoms: C_2  and  N_8 
REMARK    3  A    between atoms: C_5  and  O_9 
REMARK    4  A    between atoms: O_9  and  C_11 
ROOT
HETATM    1  C   UNL     1      62.268   9.256   2.611  1.00  0.00     0.079 A 
HETATM    2  C   UNL     1      62.007  10.566   2.995  1.00  0.00     0.084 A 
HETATM    3  S   UNL     1      62.480  10.878   4.609  1.00  0.00    -0.083 SA
HETATM    4  C   UNL     1      62.874   8.505   3.705  1.00  0.00    -0.036 A 
HETATM    5  C   UNL     1      63.025   9.285   4.834  1.00  0.00     0.059 A 
HETATM    6  C   UNL     1      63.285   7.067   3.636  1.00  0.00     0.050 C 
ENDROOT
BRANCH   1   7
HETATM    7  C   UNL     1      61.973   8.688   1.287  1.00  0.00     0.296 C 
HETATM    8  O   UNL     1      62.549   9.039   0.264  1.00  0.00    -0.259 OA
BRANCH   7   9
HETATM    9  O   UNL     1      60.988   7.735   1.299  1.00  0.00    -0.318 OA
BRANCH   9  10
HETATM   10  C   UNL     1      59.845   8.008   0.476  1.00  0.00     0.174 C 
HETATM   11  C   UNL     1      58.566   7.590   1.180  1.00  0.00     0.034 C 
ENDBRANCH   9  10
ENDBRANCH   7   9
ENDBRANCH   1   7
BRANCH   2  12
HETATM   12  N   UNL     1      61.447  11.563   2.278  1.00  0.00    -0.393 N 
HETATM   13  H   UNL     1      60.603  11.971   2.580  1.00  0.00     0.156 HD
HETATM   14  H   UNL     1      61.881  11.882   1.454  1.00  0.00     0.156 HD
ENDBRANCH   2  12
TORSDOF 4
ENDMDL
