MODEL 1
REMARK VINA RESULT:      -3.7      0.000      0.000
REMARK  0 active torsions:
REMARK  status: ('A' for Active; 'I' for Inactive)
ROOT
HETATM    1  N   UNL     1      63.164   9.439   5.557  1.00  0.00    -0.284 N 
ATOM      2  HN  UNL     1      63.679   8.858   6.218  1.00  0.00     0.188 HD
HETATM    3  C   UNL     1      62.285  11.220   4.456  1.00  0.00     0.068 A 
HETATM    4  C   UNL     1      63.088  10.766   5.517  1.00  0.00     0.114 A 
HETATM    5  N   UNL     1      62.403   9.043   4.523  1.00  0.00    -0.306 N 
HETATM    6  C   UNL     1      61.851  10.077   3.825  1.00  0.00     0.113 A 
HETATM    7  N   UNL     1      63.702  11.572   6.385  1.00  0.00    -0.384 N 
HETATM    8  C   UNL     1      62.233   7.639   4.243  1.00  0.00     0.177 C 
HETATM    9  H   UNL     1      63.607  12.548   6.301  1.00  0.00     0.157 HD
HETATM   10  H   UNL     1      64.251  11.190   7.107  1.00  0.00     0.157 HD
ENDROOT
TORSDOF 0
ENDMDL
MODEL 2
REMARK VINA RESULT:      -3.7      1.579      2.233
REMARK  0 active torsions:
REMARK  status: ('A' for Active; 'I' for Inactive)
ROOT
HETATM    1  N   UNL     1      62.335  11.760   4.438  1.00  0.00    -0.284 N 
ATOM      2  HN  UNL     1      62.142  12.761   4.456  1.00  0.00     0.188 HD
HETATM    3  C   UNL     1      62.960   9.656   5.024  1.00  0.00     0.068 A 
HETATM    4  C   UNL     1      62.836  11.003   5.410  1.00  0.00     0.114 A 
HETATM    5  N   UNL     1      62.144  10.898   3.425  1.00  0.00    -0.306 N 
HETATM    6  C   UNL     1      62.503   9.616   3.727  1.00  0.00     0.113 A 
HETATM    7  N   UNL     1      63.181  11.469   6.611  1.00  0.00    -0.384 N 
HETATM    8  C   UNL     1      61.608  11.359   2.169  1.00  0.00     0.177 C 
HETATM    9  H   UNL     1      63.546  10.856   7.289  1.00  0.00     0.157 HD
HETATM   10  H   UNL     1      63.069  12.425   6.819  1.00  0.00     0.157 HD
ENDROOT
TORSDOF 0
ENDMDL
MODEL 3
REMARK VINA RESULT:      -3.3      1.513      2.452
REMARK  0 active torsions:
REMARK  status: ('A' for Active; 'I' for Inactive)
ROOT
HETATM    1  N   UNL     1      62.625   9.303   3.513  1.00  0.00    -0.284 N 
ATOM      2  HN  UNL     1      62.646   8.521   2.860  1.00  0.00     0.188 HD
HETATM    3  C   UNL     1      62.223  11.321   4.475  1.00  0.00     0.068 A 
HETATM    4  C   UNL     1      62.050  10.491   3.352  1.00  0.00     0.114 A 
HETATM    5  N   UNL     1      63.172   9.374   4.738  1.00  0.00    -0.306 N 
HETATM    6  C   UNL     1      62.958  10.569   5.362  1.00  0.00     0.113 A 
HETATM    7  N   UNL     1      61.388  10.853   2.253  1.00  0.00    -0.384 N 
HETATM    8  C   UNL     1      63.903   8.252   5.273  1.00  0.00     0.177 C 
HETATM    9  H   UNL     1      60.983  11.749   2.196  1.00  0.00     0.157 HD
HETATM   10  H   UNL     1      61.302  10.224   1.501  1.00  0.00     0.157 HD
ENDROOT
TORSDOF 0
ENDMDL
MODEL 4
REMARK VINA RESULT:      -3.2      1.563      2.075
REMARK  0 active torsions:
REMARK  status: ('A' for Active; 'I' for Inactive)
ROOT
HETATM    1  N   UNL     1      62.701   9.201   3.491  1.00  0.00    -0.284 N 
ATOM      2  HN  UNL     1      63.044   8.242   3.444  1.00  0.00     0.188 HD
HETATM    3  C   UNL     1      62.134  11.272   4.229  1.00  0.00     0.068 A 
HETATM    4  C   UNL     1      62.679  10.014   4.542  1.00  0.00     0.114 A 
HETATM    5  N   UNL     1      62.164   9.937   2.503  1.00  0.00    -0.306 N 
HETATM    6  C   UNL     1      61.806  11.195   2.895  1.00  0.00     0.113 A 
HETATM    7  N   UNL     1      63.121   9.674   5.753  1.00  0.00    -0.384 N 
HETATM    8  C   UNL     1      62.011   9.380   1.182  1.00  0.00     0.177 C 
HETATM    9  H   UNL     1      63.077  10.323   6.492  1.00  0.00     0.157 HD
HETATM   10  H   UNL     1      63.491   8.775   5.907  1.00  0.00     0.157 HD
ENDROOT
TORSDOF 0
ENDMDL
MODEL 5
REMARK VINA RESULT:      -3.2      2.485      2.894
REMARK  0 active torsions:
REMARK  status: ('A' for Active; 'I' for Inactive)
ROOT
HETATM    1  N   UNL     1      61.366   9.828   1.999  1.00  0.00    -0.284 N 
ATOM      2  HN  UNL     1      61.018   9.648   1.057  1.00  0.00     0.188 HD
HETATM    3  C   UNL     1      62.184  10.851   3.854  1.00  0.00     0.068 A 
HETATM    4  C   UNL     1      61.774  10.983   2.515  1.00  0.00     0.114 A 
HETATM    5  N   UNL     1      61.521   8.953   3.006  1.00  0.00    -0.306 N 
HETATM    6  C   UNL     1      62.010   9.518   4.148  1.00  0.00     0.113 A 
HETATM    7  N   UNL     1      61.792  12.133   1.841  1.00  0.00    -0.384 N 
HETATM    8  C   UNL     1      61.183   7.563   2.820  1.00  0.00     0.177 C 
HETATM    9  H   UNL     1      62.105  12.956   2.281  1.00  0.00     0.157 HD
HETATM   10  H   UNL     1      61.492  12.159   0.904  1.00  0.00     0.157 HD
ENDROOT
TORSDOF 0
ENDMDL
MODEL 6
REMARK VINA RESULT:      -3.0      4.146      4.641
REMARK  0 active torsions:
REMARK  status: ('A' for Active; 'I' for Inactive)
ROOT
HETATM    1  N   UNL     1      65.275   6.917   7.417  1.00  0.00    -0.284 N 
ATOM      2  HN  UNL     1      64.808   6.407   8.167  1.00  0.00     0.188 HD
HETATM    3  C   UNL     1      66.835   7.987   6.161  1.00  0.00     0.068 A 
HETATM    4  C   UNL     1      66.544   7.308   7.358  1.00  0.00     0.114 A 
HETATM    5  N   UNL     1      64.750   7.351   6.259  1.00  0.00    -0.306 N 
HETATM    6  C   UNL     1      65.649   8.001   5.464  1.00  0.00     0.113 A 
HETATM    7  N   UNL     1      67.437   7.084   8.323  1.00  0.00    -0.384 N 
HETATM    8  C   UNL     1      63.360   7.115   5.957  1.00  0.00     0.177 C 
HETATM    9  H   UNL     1      68.363   7.399   8.219  1.00  0.00     0.157 HD
HETATM   10  H   UNL     1      67.169   6.602   9.138  1.00  0.00     0.157 HD
ENDROOT
TORSDOF 0
ENDMDL
MODEL 7
REMARK VINA RESULT:      -2.9     12.250     13.061
REMARK  0 active torsions:
REMARK  status: ('A' for Active; 'I' for Inactive)
ROOT
HETATM    1  N   UNL     1      57.124   1.909  14.341  1.00  0.00    -0.284 N 
ATOM      2  HN  UNL     1      57.390   1.568  15.264  1.00  0.00     0.188 HD
HETATM    3  C   UNL     1      55.941   2.740  12.590  1.00  0.00     0.068 A 
HETATM    4  C   UNL     1      55.933   2.340  13.939  1.00  0.00     0.114 A 
HETATM    5  N   UNL     1      57.895   2.027  13.247  1.00  0.00    -0.306 N 
HETATM    6  C   UNL     1      57.231   2.524  12.164  1.00  0.00     0.113 A 
HETATM    7  N   UNL     1      54.855   2.387  14.723  1.00  0.00    -0.384 N 
HETATM    8  C   UNL     1      59.284   1.641  13.292  1.00  0.00     0.177 C 
HETATM    9  H   UNL     1      54.000   2.718  14.364  1.00  0.00     0.157 HD
HETATM   10  H   UNL     1      54.916   2.092  15.660  1.00  0.00     0.157 HD
ENDROOT
TORSDOF 0
ENDMDL
MODEL 8
REMARK VINA RESULT:      -2.7     11.791     12.766
REMARK  0 active torsions:
REMARK  status: ('A' for Active; 'I' for Inactive)
ROOT
HETATM    1  N   UNL     1      56.984   2.035  12.689  1.00  0.00    -0.284 N 
ATOM      2  HN  UNL     1      56.079   2.284  12.291  1.00  0.00     0.188 HD
HETATM    3  C   UNL     1      58.609   1.186  14.030  1.00  0.00     0.068 A 
HETATM    4  C   UNL     1      57.230   1.340  13.795  1.00  0.00     0.114 A 
HETATM    5  N   UNL     1      58.206   2.332  12.217  1.00  0.00    -0.306 N 
HETATM    6  C   UNL     1      59.221   1.843  12.988  1.00  0.00     0.113 A 
HETATM    7  N   UNL     1      56.280   0.847  14.590  1.00  0.00    -0.384 N 
HETATM    8  C   UNL     1      58.351   3.101  11.006  1.00  0.00     0.177 C 
HETATM    9  H   UNL     1      56.528   0.339  15.396  1.00  0.00     0.157 HD
HETATM   10  H   UNL     1      55.331   0.990  14.369  1.00  0.00     0.157 HD
ENDROOT
TORSDOF 0
ENDMDL
MODEL 9
REMARK VINA RESULT:      -2.6     12.111     13.064
REMARK  0 active torsions:
REMARK  status: ('A' for Active; 'I' for Inactive)
ROOT
HETATM    1  N   UNL     1      57.567   0.724  12.556  1.00  0.00    -0.284 N 
ATOM      2  HN  UNL     1      56.872   0.306  11.939  1.00  0.00     0.188 HD
HETATM    3  C   UNL     1      58.625   1.573  14.378  1.00  0.00     0.068 A 
HETATM    4  C   UNL     1      57.452   1.002  13.851  1.00  0.00     0.114 A 
HETATM    5  N   UNL     1      58.813   1.122  12.251  1.00  0.00    -0.306 N 
HETATM    6  C   UNL     1      59.495   1.641  13.314  1.00  0.00     0.113 A 
HETATM    7  N   UNL     1      56.352   0.768  14.567  1.00  0.00    -0.384 N 
HETATM    8  C   UNL     1      59.311   0.985  10.905  1.00  0.00     0.177 C 
HETATM    9  H   UNL     1      56.330   0.997  15.524  1.00  0.00     0.157 HD
HETATM   10  H   UNL     1      55.562   0.365  14.137  1.00  0.00     0.157 HD
ENDROOT
TORSDOF 0
ENDMDL
