MODEL 1
REMARK VINA RESULT:      -4.2      0.000      0.000
REMARK  3 active torsions:
REMARK  status: ('A' for Active; 'I' for Inactive)
REMARK    1  A    between atoms: C_1  and  C_3 
REMARK    2  A    between atoms: C_2  and  N_8 
REMARK    3  A    between atoms: C_3  and  O_9 
ROOT
HETATM    1  C   UNL     1      63.559   9.279   4.754  1.00  0.00     0.072 A 
HETATM    2  C   UNL     1      63.139  10.578   5.147  1.00  0.00     0.049 A 
HETATM    3  S   UNL     1      61.876  10.052   3.059  1.00  0.00    -0.110 SA
HETATM    4  C   UNL     1      62.924   8.850   3.588  1.00  0.00     0.069 A 
HETATM    5  C   UNL     1      62.194  11.138   4.294  1.00  0.00     0.079 A 
ENDROOT
BRANCH   1   6
HETATM    6  C   UNL     1      64.550   8.412   5.443  1.00  0.00     0.295 C 
HETATM    7  O   UNL     1      64.391   7.202   5.504  1.00  0.00    -0.259 OA
BRANCH   6   8
HETATM    8  O   UNL     1      65.648   8.980   6.007  1.00  0.00    -0.322 OA
HETATM    9  C   UNL     1      66.692   8.262   6.552  1.00  0.00     0.213 C 
ENDBRANCH   6   8
ENDBRANCH   1   6
BRANCH   2  10
HETATM   10  N   UNL     1      63.600  11.286   6.288  1.00  0.00    -0.398 N 
HETATM   11  H   UNL     1      63.180  11.134   7.165  1.00  0.00     0.156 HD
HETATM   12  H   UNL     1      64.341  11.929   6.202  1.00  0.00     0.156 HD
ENDBRANCH   2  10
TORSDOF 3
ENDMDL
MODEL 2
REMARK VINA RESULT:      -4.2      0.816      1.285
REMARK  3 active torsions:
REMARK  status: ('A' for Active; 'I' for Inactive)
REMARK    1  A    between atoms: C_1  and  C_3 
REMARK    2  A    between atoms: C_2  and  N_8 
REMARK    3  A    between atoms: C_3  and  O_9 
ROOT
HETATM    1  C   UNL     1      63.688   9.161   4.818  1.00  0.00     0.072 A 
HETATM    2  C   UNL     1      63.135  10.434   5.118  1.00  0.00     0.049 A 
HETATM    3  S   UNL     1      61.914   9.613   3.100  1.00  0.00    -0.110 SA
HETATM    4  C   UNL     1      63.090   8.576   3.701  1.00  0.00     0.069 A 
HETATM    5  C   UNL     1      62.127  10.822   4.242  1.00  0.00     0.079 A 
ENDROOT
BRANCH   1   6
HETATM    6  C   UNL     1      64.774   8.460   5.553  1.00  0.00     0.295 C 
HETATM    7  O   UNL     1      65.723   9.079   6.011  1.00  0.00    -0.259 OA
BRANCH   6   8
HETATM    8  O   UNL     1      64.701   7.113   5.715  1.00  0.00    -0.322 OA
HETATM    9  C   UNL     1      65.085   6.454   6.865  1.00  0.00     0.213 C 
ENDBRANCH   6   8
ENDBRANCH   1   6
BRANCH   2  10
HETATM   10  N   UNL     1      63.529  11.274   6.191  1.00  0.00    -0.398 N 
HETATM   11  H   UNL     1      63.170  12.188   6.259  1.00  0.00     0.156 HD
HETATM   12  H   UNL     1      64.162  10.943   6.869  1.00  0.00     0.156 HD
ENDBRANCH   2  10
TORSDOF 3
ENDMDL
MODEL 3
REMARK VINA RESULT:      -3.9      3.694      4.632
REMARK  3 active torsions:
REMARK  status: ('A' for Active; 'I' for Inactive)
REMARK    1  A    between atoms: C_1  and  C_3 
REMARK    2  A    between atoms: C_2  and  N_8 
REMARK    3  A    between atoms: C_3  and  O_9 
ROOT
HETATM    1  C   UNL     1      61.680   9.534   1.954  1.00  0.00     0.072 A 
HETATM    2  C   UNL     1      60.904   8.425   2.382  1.00  0.00     0.049 A 
HETATM    3  S   UNL     1      62.045   7.694   0.285  1.00  0.00    -0.110 SA
HETATM    4  C   UNL     1      62.384   9.263   0.779  1.00  0.00     0.069 A 
HETATM    5  C   UNL     1      61.009   7.317   1.547  1.00  0.00     0.079 A 
ENDROOT
BRANCH   1   6
HETATM    6  C   UNL     1      61.789  10.861   2.615  1.00  0.00     0.295 C 
HETATM    7  O   UNL     1      62.054  11.864   1.971  1.00  0.00    -0.259 OA
BRANCH   6   8
HETATM    8  O   UNL     1      61.587  10.950   3.956  1.00  0.00    -0.322 OA
HETATM    9  C   UNL     1      62.598  10.890   4.892  1.00  0.00     0.213 C 
ENDBRANCH   6   8
ENDBRANCH   1   6
BRANCH   2  10
HETATM   10  N   UNL     1      60.082   8.389   3.538  1.00  0.00    -0.398 N 
HETATM   11  H   UNL     1      60.492   8.354   4.433  1.00  0.00     0.156 HD
HETATM   12  H   UNL     1      59.102   8.399   3.447  1.00  0.00     0.156 HD
ENDBRANCH   2  10
TORSDOF 3
ENDMDL
MODEL 4
REMARK VINA RESULT:      -3.7      2.953      4.496
REMARK  3 active torsions:
REMARK  status: ('A' for Active; 'I' for Inactive)
REMARK    1  A    between atoms: C_1  and  C_3 
REMARK    2  A    between atoms: C_2  and  N_8 
REMARK    3  A    between atoms: C_3  and  O_9 
ROOT
HETATM    1  C   UNL     1      65.712   7.739   5.065  1.00  0.00     0.072 A 
HETATM    2  C   UNL     1      66.755   7.673   6.026  1.00  0.00     0.049 A 
HETATM    3  S   UNL     1      67.134   5.757   4.470  1.00  0.00    -0.110 SA
HETATM    4  C   UNL     1      65.802   6.717   4.118  1.00  0.00     0.069 A 
HETATM    5  C   UNL     1      67.633   6.614   5.821  1.00  0.00     0.079 A 
ENDROOT
BRANCH   1   6
HETATM    6  C   UNL     1      64.616   8.741   4.999  1.00  0.00     0.295 C 
HETATM    7  O   UNL     1      64.609   9.713   5.739  1.00  0.00    -0.259 OA
BRANCH   6   8
HETATM    8  O   UNL     1      63.613   8.567   4.099  1.00  0.00    -0.322 OA
HETATM    9  C   UNL     1      62.598   9.478   3.892  1.00  0.00     0.213 C 
ENDBRANCH   6   8
ENDBRANCH   1   6
BRANCH   2  10
HETATM   10  N   UNL     1      66.937   8.569   7.111  1.00  0.00    -0.398 N 
HETATM   11  H   UNL     1      66.165   9.050   7.488  1.00  0.00     0.156 HD
HETATM   12  H   UNL     1      67.836   8.710   7.488  1.00  0.00     0.156 HD
ENDBRANCH   2  10
TORSDOF 3
ENDMDL
MODEL 5
REMARK VINA RESULT:      -3.6      1.504      1.962
REMARK  3 active torsions:
REMARK  status: ('A' for Active; 'I' for Inactive)
REMARK    1  A    between atoms: C_1  and  C_3 
REMARK    2  A    between atoms: C_2  and  N_8 
REMARK    3  A    between atoms: C_3  and  O_9 
ROOT
HETATM    1  C   UNL     1      64.524   8.201   4.781  1.00  0.00     0.072 A 
HETATM    2  C   UNL     1      63.531   9.217   4.795  1.00  0.00     0.049 A 
HETATM    3  S   UNL     1      62.941   7.708   2.895  1.00  0.00    -0.110 SA
HETATM    4  C   UNL     1      64.315   7.274   3.759  1.00  0.00     0.069 A 
HETATM    5  C   UNL     1      62.574   9.072   3.797  1.00  0.00     0.079 A 
ENDROOT
BRANCH   1   6
HETATM    6  C   UNL     1      65.680   8.065   5.705  1.00  0.00     0.295 C 
HETATM    7  O   UNL     1      66.042   9.002   6.400  1.00  0.00    -0.259 OA
BRANCH   6   8
HETATM    8  O   UNL     1      66.337   6.878   5.773  1.00  0.00    -0.322 OA
HETATM    9  C   UNL     1      67.710   6.754   5.720  1.00  0.00     0.213 C 
ENDBRANCH   6   8
ENDBRANCH   1   6
BRANCH   2  10
HETATM   10  N   UNL     1      63.469  10.298   5.712  1.00  0.00    -0.398 N 
HETATM   11  H   UNL     1      64.282  10.594   6.181  1.00  0.00     0.156 HD
HETATM   12  H   UNL     1      62.611  10.753   5.879  1.00  0.00     0.156 HD
ENDBRANCH   2  10
TORSDOF 3
ENDMDL
MODEL 6
REMARK VINA RESULT:      -3.6      2.020      2.453
REMARK  3 active torsions:
REMARK  status: ('A' for Active; 'I' for Inactive)
REMARK    1  A    between atoms: C_1  and  C_3 
REMARK    2  A    between atoms: C_2  and  N_8 
REMARK    3  A    between atoms: C_3  and  O_9 
ROOT
HETATM    1  C   UNL     1      62.834   9.023   3.715  1.00  0.00     0.072 A 
HETATM    2  C   UNL     1      62.099   9.900   2.872  1.00  0.00     0.049 A 
HETATM    3  S   UNL     1      62.328   7.762   1.604  1.00  0.00    -0.110 SA
HETATM    4  C   UNL     1      63.036   7.774   3.127  1.00  0.00     0.069 A 
HETATM    5  C   UNL     1      61.743   9.331   1.654  1.00  0.00     0.079 A 
ENDROOT
BRANCH   1   6
HETATM    6  C   UNL     1      63.361   9.319   5.072  1.00  0.00     0.295 C 
HETATM    7  O   UNL     1      63.131  10.388   5.617  1.00  0.00    -0.259 OA
BRANCH   6   8
HETATM    8  O   UNL     1      64.108   8.380   5.711  1.00  0.00    -0.322 OA
HETATM    9  C   UNL     1      65.482   8.294   5.616  1.00  0.00     0.213 C 
ENDBRANCH   6   8
ENDBRANCH   1   6
BRANCH   2  10
HETATM   10  N   UNL     1      61.733  11.234   3.187  1.00  0.00    -0.398 N 
HETATM   11  H   UNL     1      60.853  11.582   2.914  1.00  0.00     0.156 HD
HETATM   12  H   UNL     1      62.359  11.814   3.679  1.00  0.00     0.156 HD
ENDBRANCH   2  10
TORSDOF 3
ENDMDL
MODEL 7
REMARK VINA RESULT:      -3.5      2.031      2.606
REMARK  3 active torsions:
REMARK  status: ('A' for Active; 'I' for Inactive)
REMARK    1  A    between atoms: C_1  and  C_3 
REMARK    2  A    between atoms: C_2  and  N_8 
REMARK    3  A    between atoms: C_3  and  O_9 
ROOT
HETATM    1  C   UNL     1      63.968   8.760   4.759  1.00  0.00     0.072 A 
HETATM    2  C   UNL     1      63.463   8.138   3.587  1.00  0.00     0.049 A 
HETATM    3  S   UNL     1      62.066  10.178   3.937  1.00  0.00    -0.110 SA
HETATM    4  C   UNL     1      63.274   9.929   5.077  1.00  0.00     0.069 A 
HETATM    5  C   UNL     1      62.396   8.820   3.012  1.00  0.00     0.079 A 
ENDROOT
BRANCH   1   6
HETATM    6  C   UNL     1      65.095   8.292   5.608  1.00  0.00     0.295 C 
HETATM    7  O   UNL     1      65.808   9.087   6.200  1.00  0.00    -0.259 OA
BRANCH   6   8
HETATM    8  O   UNL     1      65.327   6.957   5.723  1.00  0.00    -0.322 OA
HETATM    9  C   UNL     1      64.996   6.213   6.836  1.00  0.00     0.213 C 
ENDBRANCH   6   8
ENDBRANCH   1   6
BRANCH   2  10
HETATM   10  N   UNL     1      63.957   6.940   3.009  1.00  0.00    -0.398 N 
HETATM   11  H   UNL     1      64.540   6.344   3.533  1.00  0.00     0.156 HD
HETATM   12  H   UNL     1      63.716   6.703   2.084  1.00  0.00     0.156 HD
ENDBRANCH   2  10
TORSDOF 3
ENDMDL
MODEL 8
REMARK VINA RESULT:      -3.3      4.078      5.589
REMARK  3 active torsions:
REMARK  status: ('A' for Active; 'I' for Inactive)
REMARK    1  A    between atoms: C_1  and  C_3 
REMARK    2  A    between atoms: C_2  and  N_8 
REMARK    3  A    between atoms: C_3  and  O_9 
ROOT
HETATM    1  C   UNL     1      66.313   6.407   6.611  1.00  0.00     0.072 A 
HETATM    2  C   UNL     1      67.268   6.147   7.630  1.00  0.00     0.049 A 
HETATM    3  S   UNL     1      67.586   4.356   5.919  1.00  0.00    -0.110 SA
HETATM    4  C   UNL     1      66.380   5.474   5.575  1.00  0.00     0.069 A 
HETATM    5  C   UNL     1      68.057   5.030   7.379  1.00  0.00     0.079 A 
ENDROOT
BRANCH   1   6
HETATM    6  C   UNL     1      65.323   7.515   6.571  1.00  0.00     0.295 C 
HETATM    7  O   UNL     1      65.646   8.633   6.198  1.00  0.00    -0.259 OA
BRANCH   6   8
HETATM    8  O   UNL     1      64.042   7.273   6.956  1.00  0.00    -0.322 OA
HETATM    9  C   UNL     1      62.965   7.282   6.094  1.00  0.00     0.213 C 
ENDBRANCH   6   8
ENDBRANCH   1   6
BRANCH   2  10
HETATM   10  N   UNL     1      67.448   6.916   8.808  1.00  0.00    -0.398 N 
HETATM   11  H   UNL     1      67.604   7.886   8.745  1.00  0.00     0.156 HD
HETATM   12  H   UNL     1      67.415   6.480   9.691  1.00  0.00     0.156 HD
ENDBRANCH   2  10
TORSDOF 3
ENDMDL
MODEL 9
REMARK VINA RESULT:      -3.3      3.302      4.707
REMARK  3 active torsions:
REMARK  status: ('A' for Active; 'I' for Inactive)
REMARK    1  A    between atoms: C_1  and  C_3 
REMARK    2  A    between atoms: C_2  and  N_8 
REMARK    3  A    between atoms: C_3  and  O_9 
ROOT
HETATM    1  C   UNL     1      65.503   7.926   5.084  1.00  0.00     0.072 A 
HETATM    2  C   UNL     1      65.651   6.841   4.180  1.00  0.00     0.049 A 
HETATM    3  S   UNL     1      67.669   6.788   5.650  1.00  0.00    -0.110 SA
HETATM    4  C   UNL     1      66.571   8.016   5.978  1.00  0.00     0.069 A 
HETATM    5  C   UNL     1      66.817   6.109   4.377  1.00  0.00     0.079 A 
ENDROOT
BRANCH   1   6
HETATM    6  C   UNL     1      64.379   8.897   5.143  1.00  0.00     0.295 C 
HETATM    7  O   UNL     1      64.490   9.949   5.754  1.00  0.00    -0.259 OA
BRANCH   6   8
HETATM    8  O   UNL     1      63.217   8.604   4.502  1.00  0.00    -0.322 OA
HETATM    9  C   UNL     1      62.516   9.507   3.729  1.00  0.00     0.213 C 
ENDBRANCH   6   8
ENDBRANCH   1   6
BRANCH   2  10
HETATM   10  N   UNL     1      64.734   6.488   3.156  1.00  0.00    -0.398 N 
HETATM   11  H   UNL     1      64.176   5.682   3.251  1.00  0.00     0.156 HD
HETATM   12  H   UNL     1      64.655   7.049   2.351  1.00  0.00     0.156 HD
ENDBRANCH   2  10
TORSDOF 3
ENDMDL
