MODEL 1
REMARK VINA RESULT:      -4.3      0.000      0.000
REMARK  1 active torsions:
REMARK  status: ('A' for Active; 'I' for Inactive)
REMARK    1  A    between atoms: C_1  and  C_4 
ROOT
HETATM    1  C   UNL     1      62.588  10.008   3.979  1.00  0.00     0.081 A 
HETATM    2  S   UNL     1      63.370   8.523   4.311  1.00  0.00    -0.095 SA
HETATM    3  C   UNL     1      62.049  10.012   2.705  1.00  0.00     0.033 A 
HETATM    4  C   UNL     1      62.988   7.898   2.766  1.00  0.00     0.057 A 
HETATM    5  C   UNL     1      62.274   8.791   1.991  1.00  0.00    -0.054 A 
HETATM    6  C   UNL     1      61.797   8.537   0.602  1.00  0.00     0.048 C 
ENDROOT
BRANCH   1   7
HETATM    7  C   UNL     1      62.563  11.044   4.982  1.00  0.00     0.216 C 
HETATM    8  O   UNL     1      63.055  11.047   6.101  1.00  0.00    -0.643 OA
HETATM    9  O   UNL     1      61.881  12.133   4.553  1.00  0.00    -0.643 OA
ENDBRANCH   1   7
TORSDOF 1
ENDMDL
MODEL 2
REMARK VINA RESULT:      -4.2      1.922      2.286
REMARK  1 active torsions:
REMARK  status: ('A' for Active; 'I' for Inactive)
REMARK    1  A    between atoms: C_1  and  C_4 
ROOT
HETATM    1  C   UNL     1      62.863   9.216   4.047  1.00  0.00     0.081 A 
HETATM    2  S   UNL     1      62.075  10.706   3.754  1.00  0.00    -0.095 SA
HETATM    3  C   UNL     1      62.897   8.438   2.903  1.00  0.00     0.033 A 
HETATM    4  C   UNL     1      61.785  10.309   2.116  1.00  0.00     0.057 A 
HETATM    5  C   UNL     1      62.274   9.063   1.774  1.00  0.00    -0.054 A 
HETATM    6  C   UNL     1      62.176   8.438   0.425  1.00  0.00     0.048 C 
ENDROOT
BRANCH   1   7
HETATM    7  C   UNL     1      63.383   8.928   5.361  1.00  0.00     0.216 C 
HETATM    8  O   UNL     1      62.885   8.267   6.261  1.00  0.00    -0.643 OA
HETATM    9  O   UNL     1      64.595   9.503   5.551  1.00  0.00    -0.643 OA
ENDBRANCH   1   7
TORSDOF 1
ENDMDL
MODEL 3
REMARK VINA RESULT:      -4.0      1.376      2.169
REMARK  1 active torsions:
REMARK  status: ('A' for Active; 'I' for Inactive)
REMARK    1  A    between atoms: C_1  and  C_4 
ROOT
HETATM    1  C   UNL     1      62.979   9.782   4.519  1.00  0.00     0.081 A 
HETATM    2  S   UNL     1      61.984   9.472   3.162  1.00  0.00    -0.095 SA
HETATM    3  C   UNL     1      63.908   8.772   4.695  1.00  0.00     0.033 A 
HETATM    4  C   UNL     1      62.791   8.004   2.819  1.00  0.00     0.057 A 
HETATM    5  C   UNL     1      63.809   7.733   3.712  1.00  0.00    -0.054 A 
HETATM    6  C   UNL     1      64.692   6.534   3.677  1.00  0.00     0.048 C 
ENDROOT
BRANCH   1   7
HETATM    7  C   UNL     1      62.775  10.979   5.297  1.00  0.00     0.216 C 
HETATM    8  O   UNL     1      63.182  11.249   6.418  1.00  0.00    -0.643 OA
HETATM    9  O   UNL     1      62.019  11.881   4.628  1.00  0.00    -0.643 OA
ENDBRANCH   1   7
TORSDOF 1
ENDMDL
MODEL 4
REMARK VINA RESULT:      -4.0      2.121      2.702
REMARK  1 active torsions:
REMARK  status: ('A' for Active; 'I' for Inactive)
REMARK    1  A    between atoms: C_1  and  C_4 
ROOT
HETATM    1  C   UNL     1      62.740   8.954   4.487  1.00  0.00     0.081 A 
HETATM    2  S   UNL     1      62.498   7.915   3.148  1.00  0.00    -0.095 SA
HETATM    3  C   UNL     1      62.453  10.266   4.156  1.00  0.00     0.033 A 
HETATM    4  C   UNL     1      62.015   9.211   2.143  1.00  0.00     0.057 A 
HETATM    5  C   UNL     1      62.030  10.428   2.797  1.00  0.00    -0.054 A 
HETATM    6  C   UNL     1      61.662  11.738   2.190  1.00  0.00     0.048 C 
ENDROOT
BRANCH   1   7
HETATM    7  C   UNL     1      63.187   8.407   5.744  1.00  0.00     0.216 C 
HETATM    8  O   UNL     1      62.535   7.874   6.630  1.00  0.00    -0.643 OA
HETATM    9  O   UNL     1      64.527   8.540   5.893  1.00  0.00    -0.643 OA
ENDBRANCH   1   7
TORSDOF 1
ENDMDL
MODEL 5
REMARK VINA RESULT:      -3.9      1.331      2.072
REMARK  1 active torsions:
REMARK  status: ('A' for Active; 'I' for Inactive)
REMARK    1  A    between atoms: C_1  and  C_4 
ROOT
HETATM    1  C   UNL     1      62.393   9.984   3.402  1.00  0.00     0.081 A 
HETATM    2  S   UNL     1      62.964   9.475   4.932  1.00  0.00    -0.095 SA
HETATM    3  C   UNL     1      62.393   8.937   2.497  1.00  0.00     0.033 A 
HETATM    4  C   UNL     1      63.206   7.873   4.385  1.00  0.00     0.057 A 
HETATM    5  C   UNL     1      62.863   7.705   3.057  1.00  0.00    -0.054 A 
HETATM    6  C   UNL     1      62.961   6.428   2.296  1.00  0.00     0.048 C 
ENDROOT
BRANCH   1   7
HETATM    7  C   UNL     1      61.992  11.356   3.208  1.00  0.00     0.216 C 
HETATM    8  O   UNL     1      61.811  11.967   2.165  1.00  0.00    -0.643 OA
HETATM    9  O   UNL     1      61.812  11.991   4.391  1.00  0.00    -0.643 OA
ENDBRANCH   1   7
TORSDOF 1
ENDMDL
MODEL 6
REMARK VINA RESULT:      -3.9      1.444      1.980
REMARK  1 active torsions:
REMARK  status: ('A' for Active; 'I' for Inactive)
REMARK    1  A    between atoms: C_1  and  C_4 
ROOT
HETATM    1  C   UNL     1      62.348  10.129   3.546  1.00  0.00     0.081 A 
HETATM    2  S   UNL     1      61.821  10.821   2.072  1.00  0.00    -0.095 SA
HETATM    3  C   UNL     1      62.680   8.797   3.379  1.00  0.00     0.033 A 
HETATM    4  C   UNL     1      62.038   9.351   1.226  1.00  0.00     0.057 A 
HETATM    5  C   UNL     1      62.504   8.333   2.034  1.00  0.00    -0.054 A 
HETATM    6  C   UNL     1      62.791   6.941   1.590  1.00  0.00     0.048 C 
ENDROOT
BRANCH   1   7
HETATM    7  C   UNL     1      62.395  10.938   4.739  1.00  0.00     0.216 C 
HETATM    8  O   UNL     1      62.010  12.086   4.910  1.00  0.00    -0.643 OA
HETATM    9  O   UNL     1      62.957  10.265   5.772  1.00  0.00    -0.643 OA
ENDBRANCH   1   7
TORSDOF 1
ENDMDL
MODEL 7
REMARK VINA RESULT:      -3.7      2.955      3.594
REMARK  1 active torsions:
REMARK  status: ('A' for Active; 'I' for Inactive)
REMARK    1  A    between atoms: C_1  and  C_4 
ROOT
HETATM    1  C   UNL     1      64.598   8.239   5.002  1.00  0.00     0.081 A 
HETATM    2  S   UNL     1      64.219   7.107   3.775  1.00  0.00    -0.095 SA
HETATM    3  C   UNL     1      63.775   9.348   4.926  1.00  0.00     0.033 A 
HETATM    4  C   UNL     1      62.968   8.094   3.156  1.00  0.00     0.057 A 
HETATM    5  C   UNL     1      62.823   9.275   3.857  1.00  0.00    -0.054 A 
HETATM    6  C   UNL     1      61.823  10.338   3.560  1.00  0.00     0.048 C 
ENDROOT
BRANCH   1   7
HETATM    7  C   UNL     1      65.661   7.954   5.934  1.00  0.00     0.216 C 
HETATM    8  O   UNL     1      65.601   7.435   7.038  1.00  0.00    -0.643 OA
HETATM    9  O   UNL     1      66.864   8.346   5.448  1.00  0.00    -0.643 OA
ENDBRANCH   1   7
TORSDOF 1
ENDMDL
MODEL 8
REMARK VINA RESULT:      -3.7      1.505      1.974
REMARK  1 active torsions:
REMARK  status: ('A' for Active; 'I' for Inactive)
REMARK    1  A    between atoms: C_1  and  C_4 
ROOT
HETATM    1  C   UNL     1      63.475   9.358   4.573  1.00  0.00     0.081 A 
HETATM    2  S   UNL     1      64.781   8.432   5.176  1.00  0.00    -0.095 SA
HETATM    3  C   UNL     1      62.865   8.722   3.507  1.00  0.00     0.033 A 
HETATM    4  C   UNL     1      64.528   7.197   4.021  1.00  0.00     0.057 A 
HETATM    5  C   UNL     1      63.468   7.465   3.177  1.00  0.00    -0.054 A 
HETATM    6  C   UNL     1      63.002   6.583   2.071  1.00  0.00     0.048 C 
ENDROOT
BRANCH   1   7
HETATM    7  C   UNL     1      63.152  10.623   5.187  1.00  0.00     0.216 C 
HETATM    8  O   UNL     1      62.216  11.376   4.957  1.00  0.00    -0.643 OA
HETATM    9  O   UNL     1      64.055  10.957   6.139  1.00  0.00    -0.643 OA
ENDBRANCH   1   7
TORSDOF 1
ENDMDL
MODEL 9
REMARK VINA RESULT:      -3.6      5.623      6.550
REMARK  1 active torsions:
REMARK  status: ('A' for Active; 'I' for Inactive)
REMARK    1  A    between atoms: C_1  and  C_4 
ROOT
HETATM    1  C   UNL     1      66.313   7.274   6.177  1.00  0.00     0.081 A 
HETATM    2  S   UNL     1      67.073   6.040   5.267  1.00  0.00    -0.095 SA
HETATM    3  C   UNL     1      66.657   7.189   7.514  1.00  0.00     0.033 A 
HETATM    4  C   UNL     1      67.852   5.405   6.650  1.00  0.00     0.057 A 
HETATM    5  C   UNL     1      67.552   6.107   7.802  1.00  0.00    -0.054 A 
HETATM    6  C   UNL     1      68.075   5.797   9.162  1.00  0.00     0.048 C 
ENDROOT
BRANCH   1   7
HETATM    7  C   UNL     1      65.448   8.220   5.517  1.00  0.00     0.216 C 
HETATM    8  O   UNL     1      65.188   9.375   5.825  1.00  0.00    -0.643 OA
HETATM    9  O   UNL     1      64.879   7.683   4.411  1.00  0.00    -0.643 OA
ENDBRANCH   1   7
TORSDOF 1
ENDMDL
