MODEL 1
REMARK VINA RESULT:      -4.5      0.000      0.000
REMARK  2 active torsions:
REMARK  status: ('A' for Active; 'I' for Inactive)
REMARK    1  A    between atoms: C_1  and  C_5 
REMARK    2  A    between atoms: C_5  and  O_9 
ROOT
HETATM    1  C   UNL     1      62.869   8.674   4.575  1.00  0.00     0.102 A 
HETATM    2  C   UNL     1      62.547   9.976   4.233  1.00  0.00     0.063 A 
HETATM    3  S   UNL     1      62.683   7.630   3.223  1.00  0.00    -0.094 SA
HETATM    4  C   UNL     1      62.149  10.122   2.858  1.00  0.00    -0.032 A 
HETATM    5  C   UNL     1      62.186   8.904   2.208  1.00  0.00     0.059 A 
HETATM    6 CL   UNL     1      62.597  11.331   5.294  1.00  0.00    -0.082 Cl
HETATM    7  C   UNL     1      61.748  11.406   2.208  1.00  0.00     0.050 C 
ENDROOT
BRANCH   1   8
HETATM    8  C   UNL     1      63.312   8.175   5.868  1.00  0.00     0.301 C 
HETATM    9  O   UNL     1      62.577   7.797   6.773  1.00  0.00    -0.259 OA
BRANCH   8  10
HETATM   10  O   UNL     1      64.676   8.172   5.971  1.00  0.00    -0.322 OA
HETATM   11  C   UNL     1      65.210   6.954   6.491  1.00  0.00     0.213 C 
ENDBRANCH   8  10
ENDBRANCH   1   8
TORSDOF 2
ENDMDL
MODEL 2
REMARK VINA RESULT:      -4.5      2.102      2.406
REMARK  2 active torsions:
REMARK  status: ('A' for Active; 'I' for Inactive)
REMARK    1  A    between atoms: C_1  and  C_5 
REMARK    2  A    between atoms: C_5  and  O_9 
ROOT
HETATM    1  C   UNL     1      62.911   9.200   4.078  1.00  0.00     0.102 A 
HETATM    2  C   UNL     1      62.943   8.434   2.926  1.00  0.00     0.063 A 
HETATM    3  S   UNL     1      62.091  10.684   3.795  1.00  0.00    -0.094 SA
HETATM    4  C   UNL     1      62.291   9.060   1.807  1.00  0.00    -0.032 A 
HETATM    5  C   UNL     1      61.786  10.294   2.165  1.00  0.00     0.059 A 
HETATM    6 CL   UNL     1      63.669   6.880   2.777  1.00  0.00    -0.082 Cl
HETATM    7  C   UNL     1      62.167   8.469   0.440  1.00  0.00     0.050 C 
ENDROOT
BRANCH   1   8
HETATM    8  C   UNL     1      63.465   8.872   5.382  1.00  0.00     0.301 C 
HETATM    9  O   UNL     1      62.864   8.302   6.287  1.00  0.00    -0.259 OA
BRANCH   8  10
HETATM   10  O   UNL     1      64.766   9.278   5.499  1.00  0.00    -0.322 OA
HETATM   11  C   UNL     1      65.696   8.200   5.620  1.00  0.00     0.213 C 
ENDBRANCH   8  10
ENDBRANCH   1   8
TORSDOF 2
ENDMDL
MODEL 3
REMARK VINA RESULT:      -4.3      2.066      2.440
REMARK  2 active torsions:
REMARK  status: ('A' for Active; 'I' for Inactive)
REMARK    1  A    between atoms: C_1  and  C_5 
REMARK    2  A    between atoms: C_5  and  O_9 
ROOT
HETATM    1  C   UNL     1      63.435   9.188   4.618  1.00  0.00     0.102 A 
HETATM    2  C   UNL     1      63.072   8.630   3.405  1.00  0.00     0.063 A 
HETATM    3  S   UNL     1      62.669  10.710   4.837  1.00  0.00    -0.094 SA
HETATM    4  C   UNL     1      62.160   9.449   2.651  1.00  0.00    -0.032 A 
HETATM    5  C   UNL     1      61.869  10.611   3.337  1.00  0.00     0.059 A 
HETATM    6 CL   UNL     1      63.616   7.113   2.797  1.00  0.00    -0.082 Cl
HETATM    7  C   UNL     1      61.597   9.103   1.311  1.00  0.00     0.050 C 
ENDROOT
BRANCH   1   8
HETATM    8  C   UNL     1      64.329   8.632   5.623  1.00  0.00     0.301 C 
HETATM    9  O   UNL     1      65.490   8.980   5.811  1.00  0.00    -0.259 OA
BRANCH   8  10
HETATM   10  O   UNL     1      63.720   7.653   6.359  1.00  0.00    -0.322 OA
HETATM   11  C   UNL     1      64.565   6.537   6.640  1.00  0.00     0.213 C 
ENDBRANCH   8  10
ENDBRANCH   1   8
TORSDOF 2
ENDMDL
MODEL 4
REMARK VINA RESULT:      -4.0      1.667      2.147
REMARK  2 active torsions:
REMARK  status: ('A' for Active; 'I' for Inactive)
REMARK    1  A    between atoms: C_1  and  C_5 
REMARK    2  A    between atoms: C_5  and  O_9 
ROOT
HETATM    1  C   UNL     1      63.513   8.291   3.934  1.00  0.00     0.102 A 
HETATM    2  C   UNL     1      62.648   8.950   3.077  1.00  0.00     0.063 A 
HETATM    3  S   UNL     1      64.023   6.800   3.249  1.00  0.00    -0.094 SA
HETATM    4  C   UNL     1      62.403   8.234   1.853  1.00  0.00    -0.032 A 
HETATM    5  C   UNL     1      63.104   7.044   1.837  1.00  0.00     0.059 A 
HETATM    6 CL   UNL     1      61.906  10.473   3.380  1.00  0.00    -0.082 Cl
HETATM    7  C   UNL     1      61.518   8.700   0.744  1.00  0.00     0.050 C 
ENDROOT
BRANCH   1   8
HETATM    8  C   UNL     1      63.976   8.728   5.242  1.00  0.00     0.301 C 
HETATM    9  O   UNL     1      65.111   9.116   5.500  1.00  0.00    -0.259 OA
BRANCH   8  10
HETATM   10  O   UNL     1      62.985   8.659   6.182  1.00  0.00    -0.322 OA
HETATM   11  C   UNL     1      62.534   7.330   6.445  1.00  0.00     0.213 C 
ENDBRANCH   8  10
ENDBRANCH   1   8
TORSDOF 2
ENDMDL
MODEL 5
REMARK VINA RESULT:      -3.8      2.597      2.797
REMARK  2 active torsions:
REMARK  status: ('A' for Active; 'I' for Inactive)
REMARK    1  A    between atoms: C_1  and  C_5 
REMARK    2  A    between atoms: C_5  and  O_9 
ROOT
HETATM    1  C   UNL     1      62.607   8.464   3.460  1.00  0.00     0.102 A 
HETATM    2  C   UNL     1      62.253   9.340   2.449  1.00  0.00     0.063 A 
HETATM    3  S   UNL     1      62.693   9.285   4.968  1.00  0.00    -0.094 SA
HETATM    4  C   UNL     1      62.048  10.688   2.908  1.00  0.00    -0.032 A 
HETATM    5  C   UNL     1      62.260  10.776   4.269  1.00  0.00     0.059 A 
HETATM    6 CL   UNL     1      62.058   8.926   0.789  1.00  0.00    -0.082 Cl
HETATM    7  C   UNL     1      61.659  11.843   2.044  1.00  0.00     0.050 C 
ENDROOT
BRANCH   1   8
HETATM    8  C   UNL     1      62.881   7.040   3.351  1.00  0.00     0.301 C 
HETATM    9  O   UNL     1      62.138   6.142   3.732  1.00  0.00    -0.259 OA
BRANCH   8  10
HETATM   10  O   UNL     1      64.091   6.799   2.760  1.00  0.00    -0.322 OA
HETATM   11  C   UNL     1      65.135   6.503   3.689  1.00  0.00     0.213 C 
ENDBRANCH   8  10
ENDBRANCH   1   8
TORSDOF 2
ENDMDL
MODEL 6
REMARK VINA RESULT:      -3.6      3.361      5.871
REMARK  2 active torsions:
REMARK  status: ('A' for Active; 'I' for Inactive)
REMARK    1  A    between atoms: C_1  and  C_5 
REMARK    2  A    between atoms: C_5  and  O_9 
ROOT
HETATM    1  C   UNL     1      65.993   6.847   5.858  1.00  0.00     0.102 A 
HETATM    2  C   UNL     1      66.541   6.065   6.859  1.00  0.00     0.063 A 
HETATM    3  S   UNL     1      66.476   6.275   4.311  1.00  0.00    -0.094 SA
HETATM    4  C   UNL     1      67.359   4.991   6.361  1.00  0.00    -0.032 A 
HETATM    5  C   UNL     1      67.395   5.007   4.981  1.00  0.00     0.059 A 
HETATM    6 CL   UNL     1      66.310   6.296   8.550  1.00  0.00    -0.082 Cl
HETATM    7  C   UNL     1      68.075   3.989   7.206  1.00  0.00     0.050 C 
ENDROOT
BRANCH   1   8
HETATM    8  C   UNL     1      65.121   8.002   6.005  1.00  0.00     0.301 C 
HETATM    9  O   UNL     1      65.450   9.169   5.821  1.00  0.00    -0.259 OA
BRANCH   8  10
HETATM   10  O   UNL     1      63.857   7.640   6.382  1.00  0.00    -0.322 OA
HETATM   11  C   UNL     1      62.841   8.070   5.474  1.00  0.00     0.213 C 
ENDBRANCH   8  10
ENDBRANCH   1   8
TORSDOF 2
ENDMDL
MODEL 7
REMARK VINA RESULT:      -3.5      4.184      6.730
REMARK  2 active torsions:
REMARK  status: ('A' for Active; 'I' for Inactive)
REMARK    1  A    between atoms: C_1  and  C_5 
REMARK    2  A    between atoms: C_5  and  O_9 
ROOT
HETATM    1  C   UNL     1      66.543   6.322   6.942  1.00  0.00     0.102 A 
HETATM    2  C   UNL     1      67.083   5.312   6.165  1.00  0.00     0.063 A 
HETATM    3  S   UNL     1      66.491   5.851   8.594  1.00  0.00    -0.094 SA
HETATM    4  C   UNL     1      67.459   4.149   6.924  1.00  0.00    -0.032 A 
HETATM    5  C   UNL     1      67.182   4.331   8.264  1.00  0.00     0.059 A 
HETATM    6 CL   UNL     1      67.312   5.374   4.460  1.00  0.00    -0.082 Cl
HETATM    7  C   UNL     1      68.068   2.908   6.355  1.00  0.00     0.050 C 
ENDROOT
BRANCH   1   8
HETATM    8  C   UNL     1      66.065   7.624   6.505  1.00  0.00     0.301 C 
HETATM    9  O   UNL     1      66.772   8.538   6.091  1.00  0.00    -0.259 OA
BRANCH   8  10
HETATM   10  O   UNL     1      64.705   7.728   6.606  1.00  0.00    -0.322 OA
HETATM   11  C   UNL     1      64.010   7.345   5.418  1.00  0.00     0.213 C 
ENDBRANCH   8  10
ENDBRANCH   1   8
TORSDOF 2
ENDMDL
MODEL 8
REMARK VINA RESULT:      -3.5      3.318      4.863
REMARK  2 active torsions:
REMARK  status: ('A' for Active; 'I' for Inactive)
REMARK    1  A    between atoms: C_1  and  C_5 
REMARK    2  A    between atoms: C_5  and  O_9 
ROOT
HETATM    1  C   UNL     1      62.420   8.896   2.827  1.00  0.00     0.102 A 
HETATM    2  C   UNL     1      63.410   8.138   3.429  1.00  0.00     0.063 A 
HETATM    3  S   UNL     1      62.032  10.261   3.795  1.00  0.00    -0.094 SA
HETATM    4  C   UNL     1      63.855   8.677   4.686  1.00  0.00    -0.032 A 
HETATM    5  C   UNL     1      63.172   9.838   4.987  1.00  0.00     0.059 A 
HETATM    6 CL   UNL     1      64.086   6.688   2.793  1.00  0.00    -0.082 Cl
HETATM    7  C   UNL     1      64.911   8.076   5.556  1.00  0.00     0.050 C 
ENDROOT
BRANCH   1   8
HETATM    8  C   UNL     1      61.753   8.646   1.559  1.00  0.00     0.301 C 
HETATM    9  O   UNL     1      62.178   8.974   0.456  1.00  0.00    -0.259 OA
BRANCH   8  10
HETATM   10  O   UNL     1      60.567   7.986   1.729  1.00  0.00    -0.322 OA
HETATM   11  C   UNL     1      59.648   8.170   0.652  1.00  0.00     0.213 C 
ENDBRANCH   8  10
ENDBRANCH   1   8
TORSDOF 2
ENDMDL
MODEL 9
REMARK VINA RESULT:      -3.5      2.039      2.384
REMARK  2 active torsions:
REMARK  status: ('A' for Active; 'I' for Inactive)
REMARK    1  A    between atoms: C_1  and  C_5 
REMARK    2  A    between atoms: C_5  and  O_9 
ROOT
HETATM    1  C   UNL     1      62.153   8.461   3.959  1.00  0.00     0.102 A 
HETATM    2  C   UNL     1      61.613   8.926   2.772  1.00  0.00     0.063 A 
HETATM    3  S   UNL     1      61.485   6.932   4.368  1.00  0.00    -0.094 SA
HETATM    4  C   UNL     1      60.652   8.026   2.192  1.00  0.00    -0.032 A 
HETATM    5  C   UNL     1      60.501   6.901   2.978  1.00  0.00     0.059 A 
HETATM    6 CL   UNL     1      62.008  10.418   2.009  1.00  0.00    -0.082 Cl
HETATM    7  C   UNL     1      59.910   8.261   0.916  1.00  0.00     0.050 C 
ENDROOT
BRANCH   1   8
HETATM    8  C   UNL     1      63.147   9.109   4.800  1.00  0.00     0.301 C 
HETATM    9  O   UNL     1      62.904   9.888   5.716  1.00  0.00    -0.259 OA
BRANCH   8  10
HETATM   10  O   UNL     1      64.420   8.749   4.452  1.00  0.00    -0.322 OA
HETATM   11  C   UNL     1      65.179   8.207   5.534  1.00  0.00     0.213 C 
ENDBRANCH   8  10
ENDBRANCH   1   8
TORSDOF 2
ENDMDL
