MODEL 1
REMARK VINA RESULT:      -4.3      0.000      0.000
REMARK  3 active torsions:
REMARK  status: ('A' for Active; 'I' for Inactive)
REMARK    1  A    between atoms: C_1  and  C_3 
REMARK    2  A    between atoms: C_2  and  N_8 
REMARK    3  A    between atoms: C_3  and  O_9 
ROOT
HETATM    1  C   UNL     1      63.505   9.104   4.859  1.00  0.00     0.073 A 
HETATM    2  C   UNL     1      63.047  10.397   5.065  1.00  0.00     0.084 A 
HETATM    3  S   UNL     1      62.003  10.920   3.809  1.00  0.00    -0.084 SA
HETATM    4  C   UNL     1      62.972   8.563   3.633  1.00  0.00     0.028 A 
HETATM    5  C   UNL     1      62.149   9.444   2.971  1.00  0.00     0.053 A 
ENDROOT
BRANCH   1   6
HETATM    6  C   UNL     1      64.407   8.398   5.772  1.00  0.00     0.295 C 
HETATM    7  O   UNL     1      64.116   7.366   6.368  1.00  0.00    -0.259 OA
BRANCH   6   8
HETATM    8  O   UNL     1      65.619   9.023   5.879  1.00  0.00    -0.322 OA
HETATM    9  C   UNL     1      66.639   8.236   6.494  1.00  0.00     0.213 C 
ENDBRANCH   6   8
ENDBRANCH   1   6
BRANCH   2  10
HETATM   10  N   UNL     1      63.326  11.230   6.085  1.00  0.00    -0.393 N 
HETATM   11  H   UNL     1      63.997  11.941   5.971  1.00  0.00     0.156 HD
HETATM   12  H   UNL     1      62.860  11.127   6.946  1.00  0.00     0.156 HD
ENDBRANCH   2  10
TORSDOF 3
ENDMDL
MODEL 2
REMARK VINA RESULT:      -3.9      3.591      4.335
REMARK  3 active torsions:
REMARK  status: ('A' for Active; 'I' for Inactive)
REMARK    1  A    between atoms: C_1  and  C_3 
REMARK    2  A    between atoms: C_2  and  N_8 
REMARK    3  A    between atoms: C_3  and  O_9 
ROOT
HETATM    1  C   UNL     1      62.064   9.372   2.128  1.00  0.00     0.073 A 
HETATM    2  C   UNL     1      62.819   8.352   2.687  1.00  0.00     0.084 A 
HETATM    3  S   UNL     1      62.797   6.932   1.726  1.00  0.00    -0.084 SA
HETATM    4  C   UNL     1      61.465   8.943   0.888  1.00  0.00     0.028 A 
HETATM    5  C   UNL     1      61.781   7.646   0.560  1.00  0.00     0.053 A 
ENDROOT
BRANCH   1   6
HETATM    6  C   UNL     1      61.906  10.699   2.728  1.00  0.00     0.295 C 
HETATM    7  O   UNL     1      62.053  11.754   2.118  1.00  0.00    -0.259 OA
BRANCH   6   8
HETATM    8  O   UNL     1      61.569  10.626   4.052  1.00  0.00    -0.322 OA
HETATM    9  C   UNL     1      62.401  11.397   4.918  1.00  0.00     0.213 C 
ENDBRANCH   6   8
ENDBRANCH   1   6
BRANCH   2  10
HETATM   10  N   UNL     1      63.520   8.364   3.836  1.00  0.00    -0.393 N 
HETATM   11  H   UNL     1      63.848   7.520   4.222  1.00  0.00     0.156 HD
HETATM   12  H   UNL     1      63.704   9.217   4.292  1.00  0.00     0.156 HD
ENDBRANCH   2  10
TORSDOF 3
ENDMDL
MODEL 3
REMARK VINA RESULT:      -3.9      2.065      2.336
REMARK  3 active torsions:
REMARK  status: ('A' for Active; 'I' for Inactive)
REMARK    1  A    between atoms: C_1  and  C_3 
REMARK    2  A    between atoms: C_2  and  N_8 
REMARK    3  A    between atoms: C_3  and  O_9 
ROOT
HETATM    1  C   UNL     1      62.810   9.499   4.170  1.00  0.00     0.073 A 
HETATM    2  C   UNL     1      62.702   8.796   2.978  1.00  0.00     0.084 A 
HETATM    3  S   UNL     1      61.947   9.722   1.749  1.00  0.00    -0.084 SA
HETATM    4  C   UNL     1      62.246  10.820   4.035  1.00  0.00     0.028 A 
HETATM    5  C   UNL     1      61.746  11.064   2.778  1.00  0.00     0.053 A 
ENDROOT
BRANCH   1   6
HETATM    6  C   UNL     1      63.415   8.959   5.389  1.00  0.00     0.295 C 
HETATM    7  O   UNL     1      62.815   8.278   6.214  1.00  0.00    -0.259 OA
BRANCH   6   8
HETATM    8  O   UNL     1      64.736   9.300   5.499  1.00  0.00    -0.322 OA
HETATM    9  C   UNL     1      65.638   8.196   5.447  1.00  0.00     0.213 C 
ENDBRANCH   6   8
ENDBRANCH   1   6
BRANCH   2  10
HETATM   10  N   UNL     1      63.102   7.539   2.711  1.00  0.00    -0.393 N 
HETATM   11  H   UNL     1      62.613   6.996   2.052  1.00  0.00     0.156 HD
HETATM   12  H   UNL     1      63.884   7.162   3.175  1.00  0.00     0.156 HD
ENDBRANCH   2  10
TORSDOF 3
ENDMDL
MODEL 4
REMARK VINA RESULT:      -3.8      2.853      3.822
REMARK  3 active torsions:
REMARK  status: ('A' for Active; 'I' for Inactive)
REMARK    1  A    between atoms: C_1  and  C_3 
REMARK    2  A    between atoms: C_2  and  N_8 
REMARK    3  A    between atoms: C_3  and  O_9 
ROOT
HETATM    1  C   UNL     1      62.915   8.822   4.045  1.00  0.00     0.073 A 
HETATM    2  C   UNL     1      63.735   9.312   5.051  1.00  0.00     0.084 A 
HETATM    3  S   UNL     1      65.140   8.352   5.263  1.00  0.00    -0.084 SA
HETATM    4  C   UNL     1      63.480   7.630   3.462  1.00  0.00     0.028 A 
HETATM    5  C   UNL     1      64.678   7.270   4.032  1.00  0.00     0.053 A 
ENDROOT
BRANCH   1   6
HETATM    6  C   UNL     1      61.650   9.442   3.643  1.00  0.00     0.295 C 
HETATM    7  O   UNL     1      60.648   8.815   3.317  1.00  0.00    -0.259 OA
BRANCH   6   8
HETATM    8  O   UNL     1      61.716  10.808   3.679  1.00  0.00    -0.322 OA
HETATM    9  C   UNL     1      61.774  11.432   2.397  1.00  0.00     0.213 C 
ENDBRANCH   6   8
ENDBRANCH   1   6
BRANCH   2  10
HETATM   10  N   UNL     1      63.548  10.395   5.829  1.00  0.00    -0.393 N 
HETATM   11  H   UNL     1      62.787  10.996   5.661  1.00  0.00     0.156 HD
HETATM   12  H   UNL     1      64.172  10.586   6.566  1.00  0.00     0.156 HD
ENDBRANCH   2  10
TORSDOF 3
ENDMDL
MODEL 5
REMARK VINA RESULT:      -3.7      2.100      2.579
REMARK  3 active torsions:
REMARK  status: ('A' for Active; 'I' for Inactive)
REMARK    1  A    between atoms: C_1  and  C_3 
REMARK    2  A    between atoms: C_2  and  N_8 
REMARK    3  A    between atoms: C_3  and  O_9 
ROOT
HETATM    1  C   UNL     1      62.849   9.065   3.753  1.00  0.00     0.073 A 
HETATM    2  C   UNL     1      62.130   9.943   2.956  1.00  0.00     0.084 A 
HETATM    3  S   UNL     1      61.834   9.302   1.394  1.00  0.00    -0.084 SA
HETATM    4  C   UNL     1      63.152   7.853   3.032  1.00  0.00     0.028 A 
HETATM    5  C   UNL     1      62.661   7.856   1.748  1.00  0.00     0.053 A 
ENDROOT
BRANCH   1   6
HETATM    6  C   UNL     1      63.242   9.345   5.136  1.00  0.00     0.295 C 
HETATM    7  O   UNL     1      63.204  10.458   5.652  1.00  0.00    -0.259 OA
BRANCH   6   8
HETATM    8  O   UNL     1      63.652   8.216   5.791  1.00  0.00    -0.322 OA
HETATM    9  C   UNL     1      62.597   7.460   6.385  1.00  0.00     0.213 C 
ENDBRANCH   6   8
ENDBRANCH   1   6
BRANCH   2  10
HETATM   10  N   UNL     1      61.673  11.171   3.267  1.00  0.00    -0.393 N 
HETATM   11  H   UNL     1      61.536  11.421   4.209  1.00  0.00     0.156 HD
HETATM   12  H   UNL     1      61.476  11.819   2.553  1.00  0.00     0.156 HD
ENDBRANCH   2  10
TORSDOF 3
ENDMDL
MODEL 6
REMARK VINA RESULT:      -3.6      1.516      1.954
REMARK  3 active torsions:
REMARK  status: ('A' for Active; 'I' for Inactive)
REMARK    1  A    between atoms: C_1  and  C_3 
REMARK    2  A    between atoms: C_2  and  N_8 
REMARK    3  A    between atoms: C_3  and  O_9 
ROOT
HETATM    1  C   UNL     1      64.542   8.045   4.836  1.00  0.00     0.073 A 
HETATM    2  C   UNL     1      63.593   9.054   4.756  1.00  0.00     0.084 A 
HETATM    3  S   UNL     1      62.556   8.857   3.405  1.00  0.00    -0.084 SA
HETATM    4  C   UNL     1      64.388   7.112   3.747  1.00  0.00     0.028 A 
HETATM    5  C   UNL     1      63.353   7.438   2.903  1.00  0.00     0.053 A 
ENDROOT
BRANCH   1   6
HETATM    6  C   UNL     1      65.556   7.955   5.890  1.00  0.00     0.295 C 
HETATM    7  O   UNL     1      66.116   8.924   6.393  1.00  0.00    -0.259 OA
BRANCH   6   8
HETATM    8  O   UNL     1      65.803   6.659   6.253  1.00  0.00    -0.322 OA
HETATM    9  C   UNL     1      66.345   6.506   7.565  1.00  0.00     0.213 C 
ENDBRANCH   6   8
ENDBRANCH   1   6
BRANCH   2  10
HETATM   10  N   UNL     1      63.419  10.106   5.578  1.00  0.00    -0.393 N 
HETATM   11  H   UNL     1      62.512  10.373   5.850  1.00  0.00     0.156 HD
HETATM   12  H   UNL     1      64.200  10.608   5.907  1.00  0.00     0.156 HD
ENDBRANCH   2  10
TORSDOF 3
ENDMDL
MODEL 7
REMARK VINA RESULT:      -3.6      4.149      5.810
REMARK  3 active torsions:
REMARK  status: ('A' for Active; 'I' for Inactive)
REMARK    1  A    between atoms: C_1  and  C_3 
REMARK    2  A    between atoms: C_2  and  N_8 
REMARK    3  A    between atoms: C_3  and  O_9 
ROOT
HETATM    1  C   UNL     1      66.958   6.855   6.771  1.00  0.00     0.073 A 
HETATM    2  C   UNL     1      67.202   5.556   6.348  1.00  0.00     0.084 A 
HETATM    3  S   UNL     1      67.163   4.436   7.645  1.00  0.00    -0.084 SA
HETATM    4  C   UNL     1      66.744   6.894   8.197  1.00  0.00     0.028 A 
HETATM    5  C   UNL     1      66.829   5.656   8.787  1.00  0.00     0.053 A 
ENDROOT
BRANCH   1   6
HETATM    6  C   UNL     1      66.926   8.016   5.879  1.00  0.00     0.295 C 
HETATM    7  O   UNL     1      67.767   8.246   5.016  1.00  0.00    -0.259 OA
BRANCH   6   8
HETATM    8  O   UNL     1      65.841   8.815   6.118  1.00  0.00    -0.322 OA
HETATM    9  C   UNL     1      64.753   8.619   5.216  1.00  0.00     0.213 C 
ENDBRANCH   6   8
ENDBRANCH   1   6
BRANCH   2  10
HETATM   10  N   UNL     1      67.454   5.118   5.100  1.00  0.00    -0.393 N 
HETATM   11  H   UNL     1      66.840   5.345   4.365  1.00  0.00     0.156 HD
HETATM   12  H   UNL     1      68.253   4.570   4.922  1.00  0.00     0.156 HD
ENDBRANCH   2  10
TORSDOF 3
ENDMDL
MODEL 8
REMARK VINA RESULT:      -3.6      3.788      4.581
REMARK  3 active torsions:
REMARK  status: ('A' for Active; 'I' for Inactive)
REMARK    1  A    between atoms: C_1  and  C_3 
REMARK    2  A    between atoms: C_2  and  N_8 
REMARK    3  A    between atoms: C_3  and  O_9 
ROOT
HETATM    1  C   UNL     1      65.778   6.439   7.356  1.00  0.00     0.073 A 
HETATM    2  C   UNL     1      66.128   7.624   6.727  1.00  0.00     0.084 A 
HETATM    3  S   UNL     1      65.272   7.852   5.259  1.00  0.00    -0.084 SA
HETATM    4  C   UNL     1      64.788   5.726   6.587  1.00  0.00     0.028 A 
HETATM    5  C   UNL     1      64.432   6.381   5.432  1.00  0.00     0.053 A 
ENDROOT
BRANCH   1   6
HETATM    6  C   UNL     1      66.345   5.987   8.629  1.00  0.00     0.295 C 
HETATM    7  O   UNL     1      66.786   6.738   9.493  1.00  0.00    -0.259 OA
BRANCH   6   8
HETATM    8  O   UNL     1      66.322   4.623   8.744  1.00  0.00    -0.322 OA
HETATM    9  C   UNL     1      67.601   3.999   8.641  1.00  0.00     0.213 C 
ENDBRANCH   6   8
ENDBRANCH   1   6
BRANCH   2  10
HETATM   10  N   UNL     1      67.017   8.552   7.127  1.00  0.00    -0.393 N 
HETATM   11  H   UNL     1      66.703   9.401   7.514  1.00  0.00     0.156 HD
HETATM   12  H   UNL     1      67.983   8.382   7.032  1.00  0.00     0.156 HD
ENDBRANCH   2  10
TORSDOF 3
ENDMDL
MODEL 9
REMARK VINA RESULT:      -3.5      3.429      4.483
REMARK  3 active torsions:
REMARK  status: ('A' for Active; 'I' for Inactive)
REMARK    1  A    between atoms: C_1  and  C_3 
REMARK    2  A    between atoms: C_2  and  N_8 
REMARK    3  A    between atoms: C_3  and  O_9 
ROOT
HETATM    1  C   UNL     1      62.094   8.924   3.944  1.00  0.00     0.073 A 
HETATM    2  C   UNL     1      61.077   8.005   3.728  1.00  0.00     0.084 A 
HETATM    3  S   UNL     1      61.527   6.420   4.202  1.00  0.00    -0.084 SA
HETATM    4  C   UNL     1      63.254   8.277   4.507  1.00  0.00     0.028 A 
HETATM    5  C   UNL     1      63.078   6.927   4.694  1.00  0.00     0.053 A 
ENDROOT
BRANCH   1   6
HETATM    6  C   UNL     1      61.988  10.352   3.637  1.00  0.00     0.295 C 
HETATM    7  O   UNL     1      62.016  11.243   4.480  1.00  0.00    -0.259 OA
BRANCH   6   8
HETATM    8  O   UNL     1      61.860  10.578   2.294  1.00  0.00    -0.322 OA
HETATM    9  C   UNL     1      61.694  11.950   1.938  1.00  0.00     0.213 C 
ENDBRANCH   6   8
ENDBRANCH   1   6
BRANCH   2  10
HETATM   10  N   UNL     1      59.852   8.221   3.212  1.00  0.00    -0.393 N 
HETATM   11  H   UNL     1      59.069   7.763   3.596  1.00  0.00     0.156 HD
HETATM   12  H   UNL     1      59.739   8.835   2.451  1.00  0.00     0.156 HD
ENDBRANCH   2  10
TORSDOF 3
ENDMDL
