MODEL 1
REMARK VINA RESULT:      -3.5      0.000      0.000
REMARK  0 active torsions:
REMARK  status: ('A' for Active; 'I' for Inactive)
ROOT
HETATM    1  C   UNL     1      63.117  10.721   5.195  1.00  0.00     0.116 A 
HETATM    2  N   UNL     1      63.503   9.487   4.725  1.00  0.00    -0.282 N 
HETATM    3  N   UNL     1      62.812   9.090   3.635  1.00  0.00    -0.308 N 
ATOM      4  HN  UNL     1      62.907   8.222   3.109  1.00  0.00     0.186 HD
HETATM    5  C   UNL     1      62.119  11.143   4.350  1.00  0.00     0.068 A 
HETATM    6  C   UNL     1      61.973  10.105   3.411  1.00  0.00     0.111 A 
HETATM    7  N   UNL     1      63.662  11.325   6.268  1.00  0.00    -0.384 N 
HETATM    8  C   UNL     1      64.535   8.633   5.258  1.00  0.00     0.179 C 
HETATM    9  H   UNL     1      64.379  10.878   6.773  1.00  0.00     0.157 HD
HETATM   10  H   UNL     1      63.342  12.213   6.548  1.00  0.00     0.157 HD
ENDROOT
TORSDOF 0
ENDMDL
MODEL 2
REMARK VINA RESULT:      -3.3      1.961      2.990
REMARK  0 active torsions:
REMARK  status: ('A' for Active; 'I' for Inactive)
ROOT
HETATM    1  C   UNL     1      61.934  10.502   2.203  1.00  0.00     0.116 A 
HETATM    2  N   UNL     1      62.349   9.964   3.399  1.00  0.00    -0.282 N 
HETATM    3  N   UNL     1      62.686   8.660   3.310  1.00  0.00    -0.308 N 
ATOM      4  HN  UNL     1      63.017   8.042   4.050  1.00  0.00     0.186 HD
HETATM    5  C   UNL     1      62.016   9.479   1.289  1.00  0.00     0.068 A 
HETATM    6  C   UNL     1      62.484   8.373   2.022  1.00  0.00     0.111 A 
HETATM    7  N   UNL     1      61.549  11.783   2.043  1.00  0.00    -0.384 N 
HETATM    8  C   UNL     1      62.462  10.640   4.668  1.00  0.00     0.179 C 
HETATM    9  H   UNL     1      61.547  12.395   2.813  1.00  0.00     0.157 HD
HETATM   10  H   UNL     1      61.269  12.106   1.156  1.00  0.00     0.157 HD
ENDROOT
TORSDOF 0
ENDMDL
MODEL 3
REMARK VINA RESULT:      -3.3      1.477      2.613
REMARK  0 active torsions:
REMARK  status: ('A' for Active; 'I' for Inactive)
ROOT
HETATM    1  C   UNL     1      62.038  10.779   3.288  1.00  0.00     0.116 A 
HETATM    2  N   UNL     1      62.521   9.491   3.268  1.00  0.00    -0.282 N 
HETATM    3  N   UNL     1      63.072   9.109   4.440  1.00  0.00    -0.308 N 
ATOM      4  HN  UNL     1      63.498   8.212   4.674  1.00  0.00     0.186 HD
HETATM    5  C   UNL     1      62.292  11.250   4.554  1.00  0.00     0.068 A 
HETATM    6  C   UNL     1      62.926  10.184   5.219  1.00  0.00     0.111 A 
HETATM    7  N   UNL     1      61.445  11.380   2.239  1.00  0.00    -0.384 N 
HETATM    8  C   UNL     1      62.479   8.559   2.169  1.00  0.00     0.179 C 
HETATM    9  H   UNL     1      61.341  10.896   1.389  1.00  0.00     0.157 HD
HETATM   10  H   UNL     1      61.116  12.305   2.323  1.00  0.00     0.157 HD
ENDROOT
TORSDOF 0
ENDMDL
MODEL 4
REMARK VINA RESULT:      -3.2      1.219      2.380
REMARK  0 active torsions:
REMARK  status: ('A' for Active; 'I' for Inactive)
ROOT
HETATM    1  C   UNL     1      62.105  10.347   3.673  1.00  0.00     0.116 A 
HETATM    2  N   UNL     1      62.903   9.379   4.237  1.00  0.00    -0.282 N 
HETATM    3  N   UNL     1      63.463   9.762   5.405  1.00  0.00    -0.308 N 
ATOM      4  HN  UNL     1      64.091   9.231   6.008  1.00  0.00     0.186 HD
HETATM    5  C   UNL     1      62.153  11.416   4.537  1.00  0.00     0.068 A 
HETATM    6  C   UNL     1      63.000  11.002   5.582  1.00  0.00     0.111 A 
HETATM    7  N   UNL     1      61.441  10.197   2.512  1.00  0.00    -0.384 N 
HETATM    8  C   UNL     1      63.168   8.057   3.725  1.00  0.00     0.179 C 
HETATM    9  H   UNL     1      61.516   9.354   2.008  1.00  0.00     0.157 HD
HETATM   10  H   UNL     1      60.881  10.929   2.166  1.00  0.00     0.157 HD
ENDROOT
TORSDOF 0
ENDMDL
MODEL 5
REMARK VINA RESULT:      -3.2      0.988      2.248
REMARK  0 active torsions:
REMARK  status: ('A' for Active; 'I' for Inactive)
ROOT
HETATM    1  C   UNL     1      63.258  10.138   5.088  1.00  0.00     0.116 A 
HETATM    2  N   UNL     1      62.590  10.168   3.886  1.00  0.00    -0.282 N 
HETATM    3  N   UNL     1      62.686   9.015   3.191  1.00  0.00    -0.308 N 
ATOM      4  HN  UNL     1      62.286   8.791   2.280  1.00  0.00     0.186 HD
HETATM    5  C   UNL     1      63.814   8.884   5.170  1.00  0.00     0.068 A 
HETATM    6  C   UNL     1      63.431   8.237   3.980  1.00  0.00     0.111 A 
HETATM    7  N   UNL     1      63.304  11.168   5.953  1.00  0.00    -0.384 N 
HETATM    8  C   UNL     1      61.823  11.261   3.340  1.00  0.00     0.179 C 
HETATM    9  H   UNL     1      62.845  12.012   5.738  1.00  0.00     0.157 HD
HETATM   10  H   UNL     1      63.796  11.078   6.801  1.00  0.00     0.157 HD
ENDROOT
TORSDOF 0
ENDMDL
MODEL 6
REMARK VINA RESULT:      -3.1      1.390      1.858
REMARK  0 active torsions:
REMARK  status: ('A' for Active; 'I' for Inactive)
ROOT
HETATM    1  C   UNL     1      63.311   9.577   5.024  1.00  0.00     0.116 A 
HETATM    2  N   UNL     1      62.795   9.333   3.772  1.00  0.00    -0.282 N 
HETATM    3  N   UNL     1      62.065  10.359   3.286  1.00  0.00    -0.308 N 
ATOM      4  HN  UNL     1      61.580  10.421   2.390  1.00  0.00     0.186 HD
HETATM    5  C   UNL     1      62.889  10.842   5.357  1.00  0.00     0.068 A 
HETATM    6  C   UNL     1      62.129  11.275   4.255  1.00  0.00     0.111 A 
HETATM    7  N   UNL     1      64.071   8.704   5.711  1.00  0.00    -0.384 N 
HETATM    8  C   UNL     1      62.969   8.146   2.972  1.00  0.00     0.179 C 
HETATM    9  H   UNL     1      64.284   7.825   5.323  1.00  0.00     0.157 HD
HETATM   10  H   UNL     1      64.414   8.945   6.602  1.00  0.00     0.157 HD
ENDROOT
TORSDOF 0
ENDMDL
MODEL 7
REMARK VINA RESULT:      -3.0      1.660      2.572
REMARK  0 active torsions:
REMARK  status: ('A' for Active; 'I' for Inactive)
ROOT
HETATM    1  C   UNL     1      62.673   9.295   3.666  1.00  0.00     0.116 A 
HETATM    2  N   UNL     1      62.371  10.594   4.003  1.00  0.00    -0.282 N 
HETATM    3  N   UNL     1      61.796  11.287   2.997  1.00  0.00    -0.308 N 
ATOM      4  HN  UNL     1      61.486  12.259   2.997  1.00  0.00     0.186 HD
HETATM    5  C   UNL     1      62.261   9.146   2.363  1.00  0.00     0.068 A 
HETATM    6  C   UNL     1      61.730  10.399   2.003  1.00  0.00     0.111 A 
HETATM    7  N   UNL     1      63.249   8.411   4.502  1.00  0.00    -0.384 N 
HETATM    8  C   UNL     1      62.590  11.240   5.274  1.00  0.00     0.179 C 
HETATM    9  H   UNL     1      63.487   8.683   5.418  1.00  0.00     0.157 HD
HETATM   10  H   UNL     1      63.434   7.493   4.198  1.00  0.00     0.157 HD
ENDROOT
TORSDOF 0
ENDMDL
MODEL 8
REMARK VINA RESULT:      -3.0      1.909      3.644
REMARK  0 active torsions:
REMARK  status: ('A' for Active; 'I' for Inactive)
ROOT
HETATM    1  C   UNL     1      62.194   9.364   2.412  1.00  0.00     0.116 A 
HETATM    2  N   UNL     1      62.036  10.657   2.857  1.00  0.00    -0.282 N 
HETATM    3  N   UNL     1      62.237  10.793   4.185  1.00  0.00    -0.308 N 
ATOM      4  HN  UNL     1      62.176  11.641   4.748  1.00  0.00     0.186 HD
HETATM    5  C   UNL     1      62.521   8.628   3.526  1.00  0.00     0.068 A 
HETATM    6  C   UNL     1      62.534   9.555   4.585  1.00  0.00     0.111 A 
HETATM    7  N   UNL     1      62.046   8.983   1.130  1.00  0.00    -0.384 N 
HETATM    8  C   UNL     1      61.707  11.818   2.067  1.00  0.00     0.179 C 
HETATM    9  H   UNL     1      61.804   9.646   0.444  1.00  0.00     0.157 HD
HETATM   10  H   UNL     1      62.179   8.040   0.878  1.00  0.00     0.157 HD
ENDROOT
TORSDOF 0
ENDMDL
MODEL 9
REMARK VINA RESULT:      -3.0      4.838      6.339
REMARK  0 active torsions:
REMARK  status: ('A' for Active; 'I' for Inactive)
ROOT
HETATM    1  C   UNL     1      66.771   7.009   7.771  1.00  0.00     0.116 A 
HETATM    2  N   UNL     1      65.709   6.179   7.495  1.00  0.00    -0.282 N 
HETATM    3  N   UNL     1      65.808   4.970   8.088  1.00  0.00    -0.308 N 
ATOM      4  HN  UNL     1      65.157   4.187   8.035  1.00  0.00     0.186 HD
HETATM    5  C   UNL     1      67.599   6.288   8.597  1.00  0.00     0.068 A 
HETATM    6  C   UNL     1      66.959   5.045   8.759  1.00  0.00     0.111 A 
HETATM    7  N   UNL     1      66.895   8.262   7.295  1.00  0.00    -0.384 N 
HETATM    8  C   UNL     1      64.555   6.478   6.683  1.00  0.00     0.179 C 
HETATM    9  H   UNL     1      66.201   8.635   6.704  1.00  0.00     0.157 HD
HETATM   10  H   UNL     1      67.679   8.806   7.537  1.00  0.00     0.157 HD
ENDROOT
TORSDOF 0
ENDMDL
