MODEL 1
REMARK VINA RESULT:      -3.9      0.000      0.000
REMARK  1 active torsions:
REMARK  status: ('A' for Active; 'I' for Inactive)
REMARK    1  A    between atoms: C_1  and  C_4 
ROOT
HETATM    1  C   UNL     1      62.417   9.578   3.027  1.00  0.00     0.133 A 
HETATM    2  N   UNL     1      63.161   8.486   3.291  1.00  0.00    -0.295 N 
ATOM      3  HN  UNL     1      63.427   7.740   2.647  1.00  0.00     0.187 HD
HETATM    4  C   UNL     1      62.260  10.372   4.197  1.00  0.00     0.054 A 
HETATM    5  N   UNL     1      63.474   8.600   4.593  1.00  0.00    -0.307 N 
HETATM    6  C   UNL     1      62.950   9.708   5.184  1.00  0.00     0.112 A 
HETATM    7  C   UNL     1      64.315   7.602   5.206  1.00  0.00     0.177 C 
ENDROOT
BRANCH   1   8
HETATM    8  C   UNL     1      61.855   9.884   1.662  1.00  0.00     0.433 C 
HETATM    9  F   UNL     1      60.659   9.288   1.412  1.00  0.00    -0.165 F 
HETATM   10  F   UNL     1      61.667  11.220   1.483  1.00  0.00    -0.165 F 
HETATM   11  F   UNL     1      62.702   9.484   0.673  1.00  0.00    -0.165 F 
ENDBRANCH   1   8
TORSDOF 1
ENDMDL
MODEL 2
REMARK VINA RESULT:      -3.9      6.233      7.526
REMARK  1 active torsions:
REMARK  status: ('A' for Active; 'I' for Inactive)
REMARK    1  A    between atoms: C_1  and  C_4 
ROOT
HETATM    1  C   UNL     1      66.609   6.780   7.450  1.00  0.00     0.133 A 
HETATM    2  N   UNL     1      65.472   7.400   7.078  1.00  0.00    -0.295 N 
ATOM      3  HN  UNL     1      64.620   7.524   7.626  1.00  0.00     0.187 HD
HETATM    4  C   UNL     1      67.563   6.807   6.395  1.00  0.00     0.054 A 
HETATM    5  N   UNL     1      65.713   7.819   5.824  1.00  0.00    -0.307 N 
HETATM    6  C   UNL     1      66.948   7.479   5.365  1.00  0.00     0.112 A 
HETATM    7  C   UNL     1      64.701   8.571   5.125  1.00  0.00     0.177 C 
ENDROOT
BRANCH   1   8
HETATM    8  C   UNL     1      66.805   6.163   8.812  1.00  0.00     0.433 C 
HETATM    9  F   UNL     1      65.973   6.657   9.766  1.00  0.00    -0.165 F 
HETATM   10  F   UNL     1      66.609   4.815   8.787  1.00  0.00    -0.165 F 
HETATM   11  F   UNL     1      68.075   6.353   9.268  1.00  0.00    -0.165 F 
ENDBRANCH   1   8
TORSDOF 1
ENDMDL
MODEL 3
REMARK VINA RESULT:      -3.9      2.873      3.833
REMARK  1 active torsions:
REMARK  status: ('A' for Active; 'I' for Inactive)
REMARK    1  A    between atoms: C_1  and  C_4 
ROOT
HETATM    1  C   UNL     1      62.593   9.893   3.823  1.00  0.00     0.133 A 
HETATM    2  N   UNL     1      62.715   8.937   2.882  1.00  0.00    -0.295 N 
ATOM      3  HN  UNL     1      63.126   8.008   2.984  1.00  0.00     0.187 HD
HETATM    4  C   UNL     1      61.975  11.053   3.281  1.00  0.00     0.054 A 
HETATM    5  N   UNL     1      62.172   9.480   1.779  1.00  0.00    -0.307 N 
HETATM    6  C   UNL     1      61.724  10.751   1.963  1.00  0.00     0.112 A 
HETATM    7  C   UNL     1      62.098   8.697   0.570  1.00  0.00     0.177 C 
ENDROOT
BRANCH   1   8
HETATM    8  C   UNL     1      63.054   9.713   5.247  1.00  0.00     0.433 C 
HETATM    9  F   UNL     1      62.527   8.622   5.863  1.00  0.00    -0.165 F 
HETATM   10  F   UNL     1      64.408   9.588   5.326  1.00  0.00    -0.165 F 
HETATM   11  F   UNL     1      62.728  10.789   6.017  1.00  0.00    -0.165 F 
ENDBRANCH   1   8
TORSDOF 1
ENDMDL
MODEL 4
REMARK VINA RESULT:      -3.9      1.872      2.681
REMARK  1 active torsions:
REMARK  status: ('A' for Active; 'I' for Inactive)
REMARK    1  A    between atoms: C_1  and  C_4 
ROOT
HETATM    1  C   UNL     1      63.260   9.201   4.286  1.00  0.00     0.133 A 
HETATM    2  N   UNL     1      64.172   9.324   5.270  1.00  0.00    -0.295 N 
ATOM      3  HN  UNL     1      64.283  10.098   5.926  1.00  0.00     0.187 HD
HETATM    4  C   UNL     1      63.446   7.979   3.582  1.00  0.00     0.054 A 
HETATM    5  N   UNL     1      64.904   8.200   5.193  1.00  0.00    -0.307 N 
HETATM    6  C   UNL     1      64.515   7.365   4.191  1.00  0.00     0.112 A 
HETATM    7  C   UNL     1      65.964   7.982   6.146  1.00  0.00     0.177 C 
ENDROOT
BRANCH   1   8
HETATM    8  C   UNL     1      62.199  10.235   4.010  1.00  0.00     0.433 C 
HETATM    9  F   UNL     1      62.209  11.281   4.878  1.00  0.00    -0.165 F 
HETATM   10  F   UNL     1      62.325  10.765   2.762  1.00  0.00    -0.165 F 
HETATM   11  F   UNL     1      60.949   9.695   4.067  1.00  0.00    -0.165 F 
ENDBRANCH   1   8
TORSDOF 1
ENDMDL
MODEL 5
REMARK VINA RESULT:      -3.7      1.756      2.478
REMARK  1 active torsions:
REMARK  status: ('A' for Active; 'I' for Inactive)
REMARK    1  A    between atoms: C_1  and  C_4 
ROOT
HETATM    1  C   UNL     1      61.906   9.544   2.196  1.00  0.00     0.133 A 
HETATM    2  N   UNL     1      62.368   9.284   3.436  1.00  0.00    -0.295 N 
ATOM      3  HN  UNL     1      62.644   8.382   3.823  1.00  0.00     0.187 HD
HETATM    4  C   UNL     1      61.620  10.929   2.049  1.00  0.00     0.054 A 
HETATM    5  N   UNL     1      62.384  10.482   4.046  1.00  0.00    -0.307 N 
HETATM    6  C   UNL     1      61.935  11.498   3.261  1.00  0.00     0.112 A 
HETATM    7  C   UNL     1      62.873  10.577   5.399  1.00  0.00     0.177 C 
ENDROOT
BRANCH   1   8
HETATM    8  C   UNL     1      61.740   8.483   1.139  1.00  0.00     0.433 C 
HETATM    9  F   UNL     1      62.723   8.482   0.200  1.00  0.00    -0.165 F 
HETATM   10  F   UNL     1      61.717   7.233   1.678  1.00  0.00    -0.165 F 
HETATM   11  F   UNL     1      60.563   8.628   0.468  1.00  0.00    -0.165 F 
ENDBRANCH   1   8
TORSDOF 1
ENDMDL
MODEL 6
REMARK VINA RESULT:      -3.6      3.313      4.429
REMARK  1 active torsions:
REMARK  status: ('A' for Active; 'I' for Inactive)
REMARK    1  A    between atoms: C_1  and  C_4 
ROOT
HETATM    1  C   UNL     1      64.996   7.923   5.719  1.00  0.00     0.133 A 
HETATM    2  N   UNL     1      64.861   7.332   6.923  1.00  0.00    -0.295 N 
ATOM      3  HN  UNL     1      64.014   7.244   7.484  1.00  0.00     0.187 HD
HETATM    4  C   UNL     1      66.344   7.849   5.273  1.00  0.00     0.054 A 
HETATM    5  N   UNL     1      66.094   6.886   7.218  1.00  0.00    -0.307 N 
HETATM    6  C   UNL     1      67.021   7.179   6.266  1.00  0.00     0.112 A 
HETATM    7  C   UNL     1      66.305   6.154   8.442  1.00  0.00     0.177 C 
ENDROOT
BRANCH   1   8
HETATM    8  C   UNL     1      63.846   8.555   4.978  1.00  0.00     0.433 C 
HETATM    9  F   UNL     1      63.863   8.328   3.638  1.00  0.00    -0.165 F 
HETATM   10  F   UNL     1      62.645   8.105   5.433  1.00  0.00    -0.165 F 
HETATM   11  F   UNL     1      63.831   9.908   5.141  1.00  0.00    -0.165 F 
ENDBRANCH   1   8
TORSDOF 1
ENDMDL
MODEL 7
REMARK VINA RESULT:      -3.6      2.947      4.014
REMARK  1 active torsions:
REMARK  status: ('A' for Active; 'I' for Inactive)
REMARK    1  A    between atoms: C_1  and  C_4 
ROOT
HETATM    1  C   UNL     1      60.666   8.521   1.499  1.00  0.00     0.133 A 
HETATM    2  N   UNL     1      60.072   8.252   2.679  1.00  0.00    -0.295 N 
ATOM      3  HN  UNL     1      60.411   8.476   3.615  1.00  0.00     0.187 HD
HETATM    4  C   UNL     1      59.879   8.033   0.420  1.00  0.00     0.054 A 
HETATM    5  N   UNL     1      58.933   7.622   2.345  1.00  0.00    -0.307 N 
HETATM    6  C   UNL     1      58.775   7.458   1.003  1.00  0.00     0.112 A 
HETATM    7  C   UNL     1      58.018   7.222   3.385  1.00  0.00     0.177 C 
ENDROOT
BRANCH   1   8
HETATM    8  C   UNL     1      61.980   9.250   1.385  1.00  0.00     0.433 C 
HETATM    9  F   UNL     1      62.619   9.052   0.202  1.00  0.00    -0.165 F 
HETATM   10  F   UNL     1      61.823  10.596   1.521  1.00  0.00    -0.165 F 
HETATM   11  F   UNL     1      62.849   8.869   2.363  1.00  0.00    -0.165 F 
ENDBRANCH   1   8
TORSDOF 1
ENDMDL
MODEL 8
REMARK VINA RESULT:      -3.6      4.494      5.538
REMARK  1 active torsions:
REMARK  status: ('A' for Active; 'I' for Inactive)
REMARK    1  A    between atoms: C_1  and  C_4 
ROOT
HETATM    1  C   UNL     1      65.533   8.017   5.359  1.00  0.00     0.133 A 
HETATM    2  N   UNL     1      64.748   9.081   5.619  1.00  0.00    -0.295 N 
ATOM      3  HN  UNL     1      64.895   9.811   6.317  1.00  0.00     0.187 HD
HETATM    4  C   UNL     1      64.974   7.225   4.318  1.00  0.00     0.054 A 
HETATM    5  N   UNL     1      63.728   8.966   4.751  1.00  0.00    -0.307 N 
HETATM    6  C   UNL     1      63.812   7.865   3.956  1.00  0.00     0.112 A 
HETATM    7  C   UNL     1      62.705   9.981   4.727  1.00  0.00     0.177 C 
ENDROOT
BRANCH   1   8
HETATM    8  C   UNL     1      66.824   7.746   6.089  1.00  0.00     0.433 C 
HETATM    9  F   UNL     1      66.865   8.262   7.346  1.00  0.00    -0.165 F 
HETATM   10  F   UNL     1      67.063   6.411   6.210  1.00  0.00    -0.165 F 
HETATM   11  F   UNL     1      67.893   8.263   5.422  1.00  0.00    -0.165 F 
ENDBRANCH   1   8
TORSDOF 1
ENDMDL
MODEL 9
REMARK VINA RESULT:      -3.5      5.506      6.554
REMARK  1 active torsions:
REMARK  status: ('A' for Active; 'I' for Inactive)
REMARK    1  A    between atoms: C_1  and  C_4 
ROOT
HETATM    1  C   UNL     1      67.357   6.571   5.906  1.00  0.00     0.133 A 
HETATM    2  N   UNL     1      67.500   6.949   7.192  1.00  0.00    -0.295 N 
ATOM      3  HN  UNL     1      67.361   7.879   7.589  1.00  0.00     0.187 HD
HETATM    4  C   UNL     1      67.656   5.189   5.755  1.00  0.00     0.054 A 
HETATM    5  N   UNL     1      67.868   5.827   7.833  1.00  0.00    -0.307 N 
HETATM    6  C   UNL     1      67.985   4.746   7.015  1.00  0.00     0.112 A 
HETATM    7  C   UNL     1      68.070   5.865   9.261  1.00  0.00     0.177 C 
ENDROOT
BRANCH   1   8
HETATM    8  C   UNL     1      66.926   7.513   4.812  1.00  0.00     0.433 C 
HETATM    9  F   UNL     1      66.336   6.897   3.754  1.00  0.00    -0.165 F 
HETATM   10  F   UNL     1      66.038   8.440   5.266  1.00  0.00    -0.165 F 
HETATM   11  F   UNL     1      67.983   8.214   4.312  1.00  0.00    -0.165 F 
ENDBRANCH   1   8
TORSDOF 1
ENDMDL
