MODEL 1
REMARK VINA RESULT:      -5.1      0.000      0.000
REMARK  5 active torsions:
REMARK  status: ('A' for Active; 'I' for Inactive)
REMARK    1  A    between atoms: C_1  and  C_2 
REMARK    2  A    between atoms: N_3  and  C_8 
REMARK    3  A    between atoms: C_8  and  C_17 
REMARK    4  A    between atoms: C_10  and  O_16 
REMARK    5  A    between atoms: O_16  and  C_17 
ROOT
HETATM    1  C   UNL     1      62.449   9.205   3.001  1.00  0.00     0.063 A 
HETATM    2  N   UNL     1      62.912   9.486   5.364  1.00  0.00    -0.346 N 
ATOM      3  HN  UNL     1      62.919  10.074   6.198  1.00  0.00     0.167 HD
HETATM    4  C   UNL     1      62.492   9.958   4.166  1.00  0.00     0.106 A 
HETATM    5  C   UNL     1      63.322   8.201   5.402  1.00  0.00     0.142 A 
HETATM    6  C   UNL     1      62.875   7.874   3.081  1.00  0.00     0.022 A 
HETATM    7  C   UNL     1      63.313   7.361   4.302  1.00  0.00     0.057 A 
ENDROOT
BRANCH   5   8
HETATM    8  O   UNL     1      63.759   7.672   6.599  1.00  0.00    -0.323 OA
BRANCH   8   9
HETATM    9  C   UNL     1      64.916   6.829   6.450  1.00  0.00     0.281 C 
BRANCH   9  10
HETATM   10  C   UNL     1      66.195   7.631   6.628  1.00  0.00    -0.051 C 
BRANCH  10  11
HETATM   11  N   UNL     1      67.256   8.296   6.776  1.00  0.00    -0.368 N 
ATOM     12  HN2 UNL     1      66.394   7.759   6.679  1.00  0.00     0.165 HD
ATOM     13  HN1 UNL     1      68.114   8.835   6.894  1.00  0.00     0.165 HD
ENDBRANCH  10  11
ENDBRANCH   9  10
ENDBRANCH   8   9
ENDBRANCH   5   8
BRANCH   1  14
HETATM   14  C   UNL     1      61.955   9.802   1.718  1.00  0.00     0.418 C 
HETATM   15  F   UNL     1      61.930  11.163   1.725  1.00  0.00    -0.166 F 
HETATM   16  F   UNL     1      60.687   9.408   1.419  1.00  0.00    -0.166 F 
HETATM   17  F   UNL     1      62.718   9.449   0.648  1.00  0.00    -0.166 F 
ENDBRANCH   1  14
TORSDOF 5
ENDMDL
MODEL 2
REMARK VINA RESULT:      -5.0      0.784      1.650
REMARK  5 active torsions:
REMARK  status: ('A' for Active; 'I' for Inactive)
REMARK    1  A    between atoms: C_1  and  C_2 
REMARK    2  A    between atoms: N_3  and  C_8 
REMARK    3  A    between atoms: C_8  and  C_17 
REMARK    4  A    between atoms: C_10  and  O_16 
REMARK    5  A    between atoms: O_16  and  C_17 
ROOT
HETATM    1  C   UNL     1      62.359   9.134   2.934  1.00  0.00     0.063 A 
HETATM    2  N   UNL     1      63.008   7.244   4.307  1.00  0.00    -0.346 N 
ATOM      3  HN  UNL     1      63.209   6.249   4.399  1.00  0.00     0.167 HD
HETATM    4  C   UNL     1      62.634   7.787   3.123  1.00  0.00     0.106 A 
HETATM    5  C   UNL     1      63.102   8.084   5.359  1.00  0.00     0.142 A 
HETATM    6  C   UNL     1      62.473   9.975   4.047  1.00  0.00     0.022 A 
HETATM    7  C   UNL     1      62.856   9.444   5.278  1.00  0.00     0.057 A 
ENDROOT
BRANCH   5   8
HETATM    8  O   UNL     1      63.479   7.581   6.587  1.00  0.00    -0.323 OA
BRANCH   8   9
HETATM    9  C   UNL     1      64.684   6.796   6.525  1.00  0.00     0.281 C 
BRANCH   9  10
HETATM   10  C   UNL     1      65.908   7.668   6.749  1.00  0.00    -0.051 C 
BRANCH  10  11
HETATM   11  N   UNL     1      66.925   8.391   6.935  1.00  0.00    -0.368 N 
ATOM     12  HN2 UNL     1      66.116   7.789   6.779  1.00  0.00     0.165 HD
ATOM     13  HN1 UNL     1      67.747   8.976   7.086  1.00  0.00     0.165 HD
ENDBRANCH  10  11
ENDBRANCH   9  10
ENDBRANCH   8   9
ENDBRANCH   5   8
BRANCH   1  14
HETATM   14  C   UNL     1      61.965   9.654   1.585  1.00  0.00     0.418 C 
HETATM   15  F   UNL     1      62.763   9.209   0.575  1.00  0.00    -0.166 F 
HETATM   16  F   UNL     1      62.009  11.014   1.522  1.00  0.00    -0.166 F 
HETATM   17  F   UNL     1      60.696   9.306   1.238  1.00  0.00    -0.166 F 
ENDBRANCH   1  14
TORSDOF 5
ENDMDL
MODEL 3
REMARK VINA RESULT:      -4.8      4.963      6.303
REMARK  5 active torsions:
REMARK  status: ('A' for Active; 'I' for Inactive)
REMARK    1  A    between atoms: C_1  and  C_2 
REMARK    2  A    between atoms: N_3  and  C_8 
REMARK    3  A    between atoms: C_8  and  C_17 
REMARK    4  A    between atoms: C_10  and  O_16 
REMARK    5  A    between atoms: O_16  and  C_17 
ROOT
HETATM    1  C   UNL     1      66.078   6.876   7.180  1.00  0.00     0.063 A 
HETATM    2  N   UNL     1      63.981   7.065   5.979  1.00  0.00    -0.346 N 
ATOM      3  HN  UNL     1      63.001   6.802   5.869  1.00  0.00     0.167 HD
HETATM    4  C   UNL     1      64.745   6.550   6.972  1.00  0.00     0.106 A 
HETATM    5  C   UNL     1      64.576   7.942   5.145  1.00  0.00     0.142 A 
HETATM    6  C   UNL     1      66.659   7.795   6.298  1.00  0.00     0.022 A 
HETATM    7  C   UNL     1      65.896   8.342   5.267  1.00  0.00     0.057 A 
ENDROOT
BRANCH   5   8
HETATM    8  O   UNL     1      63.839   8.496   4.118  1.00  0.00    -0.323 OA
BRANCH   8   9
HETATM    9  C   UNL     1      62.677   9.206   4.581  1.00  0.00     0.281 C 
BRANCH   9  10
HETATM   10  C   UNL     1      63.077  10.421   5.402  1.00  0.00    -0.051 C 
BRANCH  10  11
HETATM   11  N   UNL     1      63.410  11.428   6.084  1.00  0.00    -0.368 N 
ATOM     12  HN2 UNL     1      63.145  10.625   5.514  1.00  0.00     0.165 HD
ATOM     13  HN1 UNL     1      63.679  12.243   6.637  1.00  0.00     0.165 HD
ENDBRANCH  10  11
ENDBRANCH   9  10
ENDBRANCH   8   9
ENDBRANCH   5   8
BRANCH   1  14
HETATM   14  C   UNL     1      66.849   6.270   8.313  1.00  0.00     0.418 C 
HETATM   15  F   UNL     1      67.217   7.171   9.265  1.00  0.00    -0.166 F 
HETATM   16  F   UNL     1      68.002   5.678   7.896  1.00  0.00    -0.166 F 
HETATM   17  F   UNL     1      66.148   5.303   8.966  1.00  0.00    -0.166 F 
ENDBRANCH   1  14
TORSDOF 5
ENDMDL
MODEL 4
REMARK VINA RESULT:      -4.6      1.902      2.035
REMARK  5 active torsions:
REMARK  status: ('A' for Active; 'I' for Inactive)
REMARK    1  A    between atoms: C_1  and  C_2 
REMARK    2  A    between atoms: N_3  and  C_8 
REMARK    3  A    between atoms: C_8  and  C_17 
REMARK    4  A    between atoms: C_10  and  O_16 
REMARK    5  A    between atoms: O_16  and  C_17 
ROOT
HETATM    1  C   UNL     1      63.133   8.903   3.888  1.00  0.00     0.063 A 
HETATM    2  N   UNL     1      64.770   8.788   5.672  1.00  0.00    -0.346 N 
ATOM      3  HN  UNL     1      65.186   9.185   6.515  1.00  0.00     0.167 HD
HETATM    4  C   UNL     1      63.747   9.400   5.029  1.00  0.00     0.106 A 
HETATM    5  C   UNL     1      65.212   7.626   5.146  1.00  0.00     0.142 A 
HETATM    6  C   UNL     1      63.614   7.693   3.375  1.00  0.00     0.022 A 
HETATM    7  C   UNL     1      64.666   7.040   4.017  1.00  0.00     0.057 A 
ENDROOT
BRANCH   5   8
HETATM    8  O   UNL     1      66.252   6.963   5.764  1.00  0.00    -0.323 OA
BRANCH   8   9
HETATM    9  C   UNL     1      66.380   7.296   7.158  1.00  0.00     0.281 C 
BRANCH   9  10
HETATM   10  C   UNL     1      66.291   6.049   8.022  1.00  0.00    -0.051 C 
BRANCH  10  11
HETATM   11  N   UNL     1      66.217   5.014   8.738  1.00  0.00    -0.368 N 
ATOM     12  HN2 UNL     1      66.289   5.839   8.144  1.00  0.00     0.165 HD
ATOM     13  HN1 UNL     1      66.156   4.176   9.318  1.00  0.00     0.165 HD
ENDBRANCH  10  11
ENDBRANCH   9  10
ENDBRANCH   8   9
ENDBRANCH   5   8
BRANCH   1  14
HETATM   14  C   UNL     1      61.995   9.638   3.246  1.00  0.00     0.418 C 
HETATM   15  F   UNL     1      61.686  10.810   3.866  1.00  0.00    -0.166 F 
HETATM   16  F   UNL     1      60.847   8.907   3.237  1.00  0.00    -0.166 F 
HETATM   17  F   UNL     1      62.245   9.958   1.947  1.00  0.00    -0.166 F 
ENDBRANCH   1  14
TORSDOF 5
ENDMDL
MODEL 5
REMARK VINA RESULT:      -4.6      4.025      5.551
REMARK  5 active torsions:
REMARK  status: ('A' for Active; 'I' for Inactive)
REMARK    1  A    between atoms: C_1  and  C_2 
REMARK    2  A    between atoms: N_3  and  C_8 
REMARK    3  A    between atoms: C_8  and  C_17 
REMARK    4  A    between atoms: C_10  and  O_16 
REMARK    5  A    between atoms: O_16  and  C_17 
ROOT
HETATM    1  C   UNL     1      65.582   7.877   5.025  1.00  0.00     0.063 A 
HETATM    2  N   UNL     1      63.502   9.019   4.527  1.00  0.00    -0.346 N 
ATOM      3  HN  UNL     1      62.855   9.788   4.702  1.00  0.00     0.167 HD
HETATM    4  C   UNL     1      64.657   8.893   5.224  1.00  0.00     0.106 A 
HETATM    5  C   UNL     1      63.250   8.080   3.592  1.00  0.00     0.142 A 
HETATM    6  C   UNL     1      65.288   6.926   4.041  1.00  0.00     0.022 A 
HETATM    7  C   UNL     1      64.107   7.031   3.309  1.00  0.00     0.057 A 
ENDROOT
BRANCH   5   8
HETATM    8  O   UNL     1      62.086   8.165   2.855  1.00  0.00    -0.323 OA
BRANCH   8   9
HETATM    9  C   UNL     1      62.242   8.929   1.646  1.00  0.00     0.281 C 
BRANCH   9  10
HETATM   10  C   UNL     1      61.889  10.388   1.881  1.00  0.00    -0.051 C 
BRANCH  10  11
HETATM   11  N   UNL     1      61.596  11.600   2.075  1.00  0.00    -0.368 N 
ATOM     12  HN2 UNL     1      61.817  10.619   1.903  1.00  0.00     0.165 HD
ATOM     13  HN1 UNL     1      61.360  12.580   2.233  1.00  0.00     0.165 HD
ENDBRANCH  10  11
ENDBRANCH   9  10
ENDBRANCH   8   9
ENDBRANCH   5   8
BRANCH   1  14
HETATM   14  C   UNL     1      66.844   7.819   5.830  1.00  0.00     0.418 C 
HETATM   15  F   UNL     1      66.868   8.698   6.870  1.00  0.00    -0.166 F 
HETATM   16  F   UNL     1      67.948   8.097   5.083  1.00  0.00    -0.166 F 
HETATM   17  F   UNL     1      67.062   6.591   6.376  1.00  0.00    -0.166 F 
ENDBRANCH   1  14
TORSDOF 5
ENDMDL
MODEL 6
REMARK VINA RESULT:      -4.4      1.711      2.539
REMARK  5 active torsions:
REMARK  status: ('A' for Active; 'I' for Inactive)
REMARK    1  A    between atoms: C_1  and  C_2 
REMARK    2  A    between atoms: N_3  and  C_8 
REMARK    3  A    between atoms: C_8  and  C_17 
REMARK    4  A    between atoms: C_10  and  O_16 
REMARK    5  A    between atoms: O_16  and  C_17 
ROOT
HETATM    1  C   UNL     1      62.434   9.248   2.783  1.00  0.00     0.063 A 
HETATM    2  N   UNL     1      63.524   7.432   3.961  1.00  0.00    -0.346 N 
ATOM      3  HN  UNL     1      63.965   6.512   3.950  1.00  0.00     0.167 HD
HETATM    4  C   UNL     1      63.034   7.998   2.832  1.00  0.00     0.106 A 
HETATM    5  C   UNL     1      63.402   8.143   5.101  1.00  0.00     0.142 A 
HETATM    6  C   UNL     1      62.331   9.959   3.984  1.00  0.00     0.022 A 
HETATM    7  C   UNL     1      62.827   9.402   5.162  1.00  0.00     0.057 A 
ENDROOT
BRANCH   5   8
HETATM    8  O   UNL     1      63.886   7.611   6.279  1.00  0.00    -0.323 OA
BRANCH   8   9
HETATM    9  C   UNL     1      63.753   6.180   6.344  1.00  0.00     0.281 C 
BRANCH   9  10
HETATM   10  C   UNL     1      62.295   5.779   6.491  1.00  0.00    -0.051 C 
BRANCH  10  11
HETATM   11  N   UNL     1      61.085   5.446   6.614  1.00  0.00    -0.368 N 
ATOM     12  HN2 UNL     1      62.060   5.717   6.493  1.00  0.00     0.165 HD
ATOM     13  HN1 UNL     1      60.105   5.176   6.714  1.00  0.00     0.165 HD
ENDBRANCH  10  11
ENDBRANCH   9  10
ENDBRANCH   8   9
ENDBRANCH   5   8
BRANCH   1  14
HETATM   14  C   UNL     1      61.930   9.807   1.487  1.00  0.00     0.418 C 
HETATM   15  F   UNL     1      61.860  11.167   1.470  1.00  0.00    -0.166 F 
HETATM   16  F   UNL     1      60.678   9.366   1.185  1.00  0.00    -0.166 F 
HETATM   17  F   UNL     1      62.713   9.462   0.428  1.00  0.00    -0.166 F 
ENDBRANCH   1  14
TORSDOF 5
ENDMDL
MODEL 7
REMARK VINA RESULT:      -4.2      2.488      3.491
REMARK  5 active torsions:
REMARK  status: ('A' for Active; 'I' for Inactive)
REMARK    1  A    between atoms: C_1  and  C_2 
REMARK    2  A    between atoms: N_3  and  C_8 
REMARK    3  A    between atoms: C_8  and  C_17 
REMARK    4  A    between atoms: C_10  and  O_16 
REMARK    5  A    between atoms: O_16  and  C_17 
ROOT
HETATM    1  C   UNL     1      61.961   8.805   2.885  1.00  0.00     0.063 A 
HETATM    2  N   UNL     1      61.312   6.962   4.319  1.00  0.00    -0.346 N 
ATOM      3  HN  UNL     1      60.786   6.100   4.464  1.00  0.00     0.167 HD
HETATM    4  C   UNL     1      61.261   7.635   3.145  1.00  0.00     0.106 A 
HETATM    5  C   UNL     1      62.091   7.486   5.288  1.00  0.00     0.142 A 
HETATM    6  C   UNL     1      62.764   9.315   3.912  1.00  0.00     0.022 A 
HETATM    7  C   UNL     1      62.836   8.643   5.131  1.00  0.00     0.057 A 
ENDROOT
BRANCH   5   8
HETATM    8  O   UNL     1      62.177   6.838   6.503  1.00  0.00    -0.323 OA
BRANCH   8   9
HETATM    9  C   UNL     1      61.333   5.675   6.579  1.00  0.00     0.281 C 
BRANCH   9  10
HETATM   10  C   UNL     1      60.153   5.923   7.504  1.00  0.00    -0.051 C 
BRANCH  10  11
HETATM   11  N   UNL     1      59.173   6.129   8.271  1.00  0.00    -0.368 N 
ATOM     12  HN2 UNL     1      59.959   5.980   7.638  1.00  0.00     0.165 HD
ATOM     13  HN1 UNL     1      58.381   6.296   8.893  1.00  0.00     0.165 HD
ENDBRANCH  10  11
ENDBRANCH   9  10
ENDBRANCH   8   9
ENDBRANCH   5   8
BRANCH   1  14
HETATM   14  C   UNL     1      61.860   9.480   1.550  1.00  0.00     0.418 C 
HETATM   15  F   UNL     1      62.764   9.024   0.640  1.00  0.00    -0.166 F 
HETATM   16  F   UNL     1      62.061  10.824   1.633  1.00  0.00    -0.166 F 
HETATM   17  F   UNL     1      60.638   9.320   0.974  1.00  0.00    -0.166 F 
ENDBRANCH   1  14
TORSDOF 5
ENDMDL
MODEL 8
REMARK VINA RESULT:      -4.2      2.616      3.266
REMARK  5 active torsions:
REMARK  status: ('A' for Active; 'I' for Inactive)
REMARK    1  A    between atoms: C_1  and  C_2 
REMARK    2  A    between atoms: N_3  and  C_8 
REMARK    3  A    between atoms: C_8  and  C_17 
REMARK    4  A    between atoms: C_10  and  O_16 
REMARK    5  A    between atoms: O_16  and  C_17 
ROOT
HETATM    1  C   UNL     1      61.988   7.402   4.741  1.00  0.00     0.063 A 
HETATM    2  N   UNL     1      63.723   7.693   6.409  1.00  0.00    -0.346 N 
ATOM      3  HN  UNL     1      64.100   7.488   7.335  1.00  0.00     0.167 HD
HETATM    4  C   UNL     1      62.546   7.170   5.991  1.00  0.00     0.106 A 
HETATM    5  C   UNL     1      64.374   8.497   5.543  1.00  0.00     0.142 A 
HETATM    6  C   UNL     1      62.696   8.236   3.868  1.00  0.00     0.022 A 
HETATM    7  C   UNL     1      63.911   8.788   4.272  1.00  0.00     0.057 A 
ENDROOT
BRANCH   5   8
HETATM    8  O   UNL     1      65.578   9.054   5.922  1.00  0.00    -0.323 OA
BRANCH   8   9
HETATM    9  C   UNL     1      66.546   8.072   6.335  1.00  0.00     0.281 C 
BRANCH   9  10
HETATM   10  C   UNL     1      67.161   7.380   5.130  1.00  0.00    -0.051 C 
BRANCH  10  11
HETATM   11  N   UNL     1      67.672   6.805   4.130  1.00  0.00    -0.368 N 
ATOM     12  HN2 UNL     1      67.278   7.281   4.942  1.00  0.00     0.165 HD
ATOM     13  HN1 UNL     1      68.085   6.340   3.321  1.00  0.00     0.165 HD
ENDBRANCH  10  11
ENDBRANCH   9  10
ENDBRANCH   8   9
ENDBRANCH   5   8
BRANCH   1  14
HETATM   14  C   UNL     1      60.686   6.771   4.352  1.00  0.00     0.418 C 
HETATM   15  F   UNL     1      60.783   5.937   3.281  1.00  0.00    -0.166 F 
HETATM   16  F   UNL     1      59.742   7.695   4.020  1.00  0.00    -0.166 F 
HETATM   17  F   UNL     1      60.143   6.028   5.356  1.00  0.00    -0.166 F 
ENDBRANCH   1  14
TORSDOF 5
ENDMDL
MODEL 9
REMARK VINA RESULT:      -4.2      4.214      5.853
REMARK  5 active torsions:
REMARK  status: ('A' for Active; 'I' for Inactive)
REMARK    1  A    between atoms: C_1  and  C_2 
REMARK    2  A    between atoms: N_3  and  C_8 
REMARK    3  A    between atoms: C_8  and  C_17 
REMARK    4  A    between atoms: C_10  and  O_16 
REMARK    5  A    between atoms: O_16  and  C_17 
ROOT
HETATM    1  C   UNL     1      65.963   6.263   5.506  1.00  0.00     0.063 A 
HETATM    2  N   UNL     1      63.895   6.934   6.578  1.00  0.00    -0.346 N 
ATOM      3  HN  UNL     1      63.163   6.762   7.268  1.00  0.00     0.167 HD
HETATM    4  C   UNL     1      64.933   6.078   6.418  1.00  0.00     0.106 A 
HETATM    5  C   UNL     1      63.875   8.024   5.783  1.00  0.00     0.142 A 
HETATM    6  C   UNL     1      65.912   7.409   4.703  1.00  0.00     0.022 A 
HETATM    7  C   UNL     1      64.855   8.307   4.847  1.00  0.00     0.057 A 
ENDROOT
BRANCH   5   8
HETATM    8  O   UNL     1      62.839   8.926   5.908  1.00  0.00    -0.323 OA
BRANCH   8   9
HETATM    9  C   UNL     1      63.052  10.133   5.154  1.00  0.00     0.281 C 
BRANCH   9  10
HETATM   10  C   UNL     1      62.079  10.221   3.990  1.00  0.00    -0.051 C 
BRANCH  10  11
HETATM   11  N   UNL     1      61.272  10.294   3.024  1.00  0.00    -0.368 N 
ATOM     12  HN2 UNL     1      61.909  10.226   3.817  1.00  0.00     0.165 HD
ATOM     13  HN1 UNL     1      60.618  10.354   2.242  1.00  0.00     0.165 HD
ENDBRANCH  10  11
ENDBRANCH   9  10
ENDBRANCH   8   9
ENDBRANCH   5   8
BRANCH   1  14
HETATM   14  C   UNL     1      67.083   5.273   5.402  1.00  0.00     0.418 C 
HETATM   15  F   UNL     1      66.692   3.984   5.599  1.00  0.00    -0.166 F 
HETATM   16  F   UNL     1      68.066   5.507   6.315  1.00  0.00    -0.166 F 
HETATM   17  F   UNL     1      67.692   5.296   4.185  1.00  0.00    -0.166 F 
ENDBRANCH   1  14
TORSDOF 5
ENDMDL
