MODEL 1
REMARK VINA RESULT:      -4.0      0.000      0.000
REMARK  1 active torsions:
REMARK  status: ('A' for Active; 'I' for Inactive)
REMARK    1  A    between atoms: C_1  and  C_2 
ROOT
HETATM    1  C   UNL     1      62.413   9.896   3.711  1.00  0.00     0.133 A 
HETATM    2  N   UNL     1      61.767  11.031   3.372  1.00  0.00    -0.297 N 
ATOM      3  HN  UNL     1      61.599  11.852   3.954  1.00  0.00     0.187 HD
HETATM    4  N   UNL     1      61.396  10.839   2.097  1.00  0.00    -0.311 N 
HETATM    5  C   UNL     1      62.433   8.987   2.616  1.00  0.00     0.054 A 
HETATM    6  C   UNL     1      61.771   9.628   1.598  1.00  0.00     0.109 A 
HETATM    7  H   UNL     1      60.898  11.508   1.573  1.00  0.00     0.186 HD
ENDROOT
BRANCH   1   8
HETATM    8  C   UNL     1      63.017   9.660   5.072  1.00  0.00     0.433 C 
HETATM    9  F   UNL     1      64.363   9.476   5.052  1.00  0.00    -0.165 F 
HETATM   10  F   UNL     1      62.779  10.706   5.913  1.00  0.00    -0.165 F 
HETATM   11  F   UNL     1      62.481   8.561   5.672  1.00  0.00    -0.165 F 
ENDBRANCH   1   8
TORSDOF 1
ENDMDL
MODEL 2
REMARK VINA RESULT:      -3.9      2.883      3.586
REMARK  1 active torsions:
REMARK  status: ('A' for Active; 'I' for Inactive)
REMARK    1  A    between atoms: C_1  and  C_2 
ROOT
HETATM    1  C   UNL     1      61.972   9.869   2.427  1.00  0.00     0.133 A 
HETATM    2  N   UNL     1      61.635  11.174   2.357  1.00  0.00    -0.297 N 
ATOM      3  HN  UNL     1      61.279  11.684   1.550  1.00  0.00     0.187 HD
HETATM    4  N   UNL     1      61.874  11.649   3.589  1.00  0.00    -0.311 N 
HETATM    5  C   UNL     1      62.430   9.541   3.734  1.00  0.00     0.054 A 
HETATM    6  C   UNL     1      62.352  10.709   4.451  1.00  0.00     0.109 A 
HETATM    7  H   UNL     1      61.719  12.588   3.845  1.00  0.00     0.186 HD
ENDROOT
BRANCH   1   8
HETATM    8  C   UNL     1      61.863   8.920   1.260  1.00  0.00     0.433 C 
HETATM    9  F   UNL     1      62.645   9.258   0.202  1.00  0.00    -0.165 F 
HETATM   10  F   UNL     1      62.212   7.651   1.613  1.00  0.00    -0.165 F 
HETATM   11  F   UNL     1      60.586   8.847   0.795  1.00  0.00    -0.165 F 
ENDBRANCH   1   8
TORSDOF 1
ENDMDL
MODEL 3
REMARK VINA RESULT:      -3.8      2.658      3.339
REMARK  1 active torsions:
REMARK  status: ('A' for Active; 'I' for Inactive)
REMARK    1  A    between atoms: C_1  and  C_2 
ROOT
HETATM    1  C   UNL     1      63.226   9.425   4.446  1.00  0.00     0.133 A 
HETATM    2  N   UNL     1      63.920   9.749   5.557  1.00  0.00    -0.297 N 
ATOM      3  HN  UNL     1      63.833  10.592   6.124  1.00  0.00     0.187 HD
HETATM    4  N   UNL     1      64.750   8.712   5.750  1.00  0.00    -0.311 N 
HETATM    5  C   UNL     1      63.646   8.160   3.947  1.00  0.00     0.054 A 
HETATM    6  C   UNL     1      64.625   7.734   4.811  1.00  0.00     0.109 A 
HETATM    7  H   UNL     1      65.389   8.665   6.498  1.00  0.00     0.186 HD
ENDROOT
BRANCH   1   8
HETATM    8  C   UNL     1      62.161  10.307   3.847  1.00  0.00     0.433 C 
HETATM    9  F   UNL     1      62.335  10.559   2.523  1.00  0.00    -0.165 F 
HETATM   10  F   UNL     1      60.922   9.754   3.978  1.00  0.00    -0.165 F 
HETATM   11  F   UNL     1      62.104  11.515   4.471  1.00  0.00    -0.165 F 
ENDBRANCH   1   8
TORSDOF 1
ENDMDL
MODEL 4
REMARK VINA RESULT:      -3.8      2.830      3.602
REMARK  1 active torsions:
REMARK  status: ('A' for Active; 'I' for Inactive)
REMARK    1  A    between atoms: C_1  and  C_2 
ROOT
HETATM    1  C   UNL     1      62.461   9.806   3.655  1.00  0.00     0.133 A 
HETATM    2  N   UNL     1      63.238   9.016   4.425  1.00  0.00    -0.297 N 
ATOM      3  HN  UNL     1      63.574   8.076   4.216  1.00  0.00     0.187 HD
HETATM    4  N   UNL     1      63.471   9.746   5.527  1.00  0.00    -0.311 N 
HETATM    5  C   UNL     1      62.212  11.047   4.305  1.00  0.00     0.054 A 
HETATM    6  C   UNL     1      62.877  10.971   5.504  1.00  0.00     0.109 A 
HETATM    7  H   UNL     1      64.018   9.425   6.281  1.00  0.00     0.186 HD
ENDROOT
BRANCH   1   8
HETATM    8  C   UNL     1      61.948   9.395   2.298  1.00  0.00     0.433 C 
HETATM    9  F   UNL     1      60.750   8.755   2.333  1.00  0.00    -0.165 F 
HETATM   10  F   UNL     1      61.792  10.471   1.476  1.00  0.00    -0.165 F 
HETATM   11  F   UNL     1      62.819   8.559   1.668  1.00  0.00    -0.165 F 
ENDBRANCH   1   8
TORSDOF 1
ENDMDL
MODEL 5
REMARK VINA RESULT:      -3.6      2.134      2.445
REMARK  1 active torsions:
REMARK  status: ('A' for Active; 'I' for Inactive)
REMARK    1  A    between atoms: C_1  and  C_2 
ROOT
HETATM    1  C   UNL     1      62.988   9.486   4.791  1.00  0.00     0.133 A 
HETATM    2  N   UNL     1      63.277  10.419   5.721  1.00  0.00    -0.297 N 
ATOM      3  HN  UNL     1      63.826  10.303   6.573  1.00  0.00     0.187 HD
HETATM    4  N   UNL     1      62.680  11.535   5.276  1.00  0.00    -0.311 N 
HETATM    5  C   UNL     1      62.192  10.047   3.753  1.00  0.00     0.054 A 
HETATM    6  C   UNL     1      62.016  11.364   4.099  1.00  0.00     0.109 A 
HETATM    7  H   UNL     1      62.717  12.395   5.754  1.00  0.00     0.186 HD
ENDROOT
BRANCH   1   8
HETATM    8  C   UNL     1      63.461   8.057   4.873  1.00  0.00     0.433 C 
HETATM    9  F   UNL     1      64.564   7.798   4.124  1.00  0.00    -0.165 F 
HETATM   10  F   UNL     1      63.768   7.705   6.153  1.00  0.00    -0.165 F 
HETATM   11  F   UNL     1      62.497   7.188   4.462  1.00  0.00    -0.165 F 
ENDBRANCH   1   8
TORSDOF 1
ENDMDL
MODEL 6
REMARK VINA RESULT:      -3.6      4.152      4.911
REMARK  1 active torsions:
REMARK  status: ('A' for Active; 'I' for Inactive)
REMARK    1  A    between atoms: C_1  and  C_2 
ROOT
HETATM    1  C   UNL     1      65.722   8.144   5.465  1.00  0.00     0.133 A 
HETATM    2  N   UNL     1      66.328   8.444   6.633  1.00  0.00    -0.297 N 
ATOM      3  HN  UNL     1      65.945   8.971   7.417  1.00  0.00     0.187 HD
HETATM    4  N   UNL     1      67.547   7.893   6.531  1.00  0.00    -0.311 N 
HETATM    5  C   UNL     1      66.595   7.394   4.628  1.00  0.00     0.054 A 
HETATM    6  C   UNL     1      67.757   7.252   5.347  1.00  0.00     0.109 A 
HETATM    7  H   UNL     1      68.225   7.948   7.243  1.00  0.00     0.186 HD
ENDROOT
BRANCH   1   8
HETATM    8  C   UNL     1      64.314   8.563   5.129  1.00  0.00     0.433 C 
HETATM    9  F   UNL     1      64.070   9.885   5.331  1.00  0.00    -0.165 F 
HETATM   10  F   UNL     1      64.013   8.306   3.825  1.00  0.00    -0.165 F 
HETATM   11  F   UNL     1      63.400   7.880   5.871  1.00  0.00    -0.165 F 
ENDBRANCH   1   8
TORSDOF 1
ENDMDL
MODEL 7
REMARK VINA RESULT:      -3.4      3.381      3.937
REMARK  1 active torsions:
REMARK  status: ('A' for Active; 'I' for Inactive)
REMARK    1  A    between atoms: C_1  and  C_2 
ROOT
HETATM    1  C   UNL     1      60.721   8.494   1.803  1.00  0.00     0.133 A 
HETATM    2  N   UNL     1      59.659   8.594   0.977  1.00  0.00    -0.297 N 
ATOM      3  HN  UNL     1      59.610   9.074   0.079  1.00  0.00     0.187 HD
HETATM    4  N   UNL     1      58.681   7.921   1.603  1.00  0.00    -0.311 N 
HETATM    5  C   UNL     1      60.382   7.743   2.963  1.00  0.00     0.054 A 
HETATM    6  C   UNL     1      59.065   7.392   2.799  1.00  0.00     0.109 A 
HETATM    7  H   UNL     1      57.773   7.821   1.235  1.00  0.00     0.186 HD
ENDROOT
BRANCH   1   8
HETATM    8  C   UNL     1      62.066   9.105   1.503  1.00  0.00     0.433 C 
HETATM    9  F   UNL     1      62.128  10.442   1.738  1.00  0.00    -0.165 F 
HETATM   10  F   UNL     1      63.053   8.532   2.247  1.00  0.00    -0.165 F 
HETATM   11  F   UNL     1      62.418   8.921   0.200  1.00  0.00    -0.165 F 
ENDBRANCH   1   8
TORSDOF 1
ENDMDL
MODEL 8
REMARK VINA RESULT:      -3.4      4.375      5.188
REMARK  1 active torsions:
REMARK  status: ('A' for Active; 'I' for Inactive)
REMARK    1  A    between atoms: C_1  and  C_2 
ROOT
HETATM    1  C   UNL     1      65.657   7.524   5.964  1.00  0.00     0.133 A 
HETATM    2  N   UNL     1      64.765   7.151   6.905  1.00  0.00    -0.297 N 
ATOM      3  HN  UNL     1      64.938   6.605   7.749  1.00  0.00     0.187 HD
HETATM    4  N   UNL     1      63.597   7.658   6.481  1.00  0.00    -0.311 N 
HETATM    5  C   UNL     1      65.018   8.276   4.940  1.00  0.00     0.054 A 
HETATM    6  C   UNL     1      63.696   8.341   5.307  1.00  0.00     0.109 A 
HETATM    7  H   UNL     1      62.750   7.547   6.971  1.00  0.00     0.186 HD
ENDROOT
BRANCH   1   8
HETATM    8  C   UNL     1      67.122   7.174   6.026  1.00  0.00     0.433 C 
HETATM    9  F   UNL     1      67.549   6.804   7.262  1.00  0.00    -0.165 F 
HETATM   10  F   UNL     1      67.427   6.146   5.185  1.00  0.00    -0.165 F 
HETATM   11  F   UNL     1      67.902   8.222   5.641  1.00  0.00    -0.165 F 
ENDBRANCH   1   8
TORSDOF 1
ENDMDL
MODEL 9
REMARK VINA RESULT:      -3.3      3.258      3.890
REMARK  1 active torsions:
REMARK  status: ('A' for Active; 'I' for Inactive)
REMARK    1  A    between atoms: C_1  and  C_2 
ROOT
HETATM    1  C   UNL     1      61.944   8.842   2.880  1.00  0.00     0.133 A 
HETATM    2  N   UNL     1      61.217   7.783   3.294  1.00  0.00    -0.297 N 
ATOM      3  HN  UNL     1      60.466   7.308   2.795  1.00  0.00     0.187 HD
HETATM    4  N   UNL     1      61.706   7.495   4.510  1.00  0.00    -0.311 N 
HETATM    5  C   UNL     1      62.897   9.211   3.869  1.00  0.00     0.054 A 
HETATM    6  C   UNL     1      62.715   8.322   4.901  1.00  0.00     0.109 A 
HETATM    7  H   UNL     1      61.367   6.757   5.067  1.00  0.00     0.186 HD
ENDROOT
BRANCH   1   8
HETATM    8  C   UNL     1      61.744   9.514   1.545  1.00  0.00     0.433 C 
HETATM    9  F   UNL     1      61.778  10.872   1.602  1.00  0.00    -0.165 F 
HETATM   10  F   UNL     1      62.698   9.138   0.648  1.00  0.00    -0.165 F 
HETATM   11  F   UNL     1      60.547   9.177   0.991  1.00  0.00    -0.165 F 
ENDBRANCH   1   8
TORSDOF 1
ENDMDL
