MODEL 1
REMARK VINA RESULT:      -4.9      0.000      0.000
REMARK  3 active torsions:
REMARK  status: ('A' for Active; 'I' for Inactive)
REMARK    1  A    between atoms: C_1  and  C_2 
REMARK    2  A    between atoms: C_2  and  C_4 
REMARK    3  A    between atoms: C_2  and  O_6 
ROOT
HETATM    1  C   UNL     1      63.496   9.099   4.584  1.00  0.00    -0.019 A 
HETATM    2  C   UNL     1      63.133  10.348   5.111  1.00  0.00     0.010 A 
HETATM    3  C   UNL     1      62.959   8.718   3.343  1.00  0.00     0.010 A 
HETATM    4  C   UNL     1      62.102   9.574   2.639  1.00  0.00     0.001 A 
HETATM    5  C   UNL     1      62.279  11.202   4.405  1.00  0.00     0.001 A 
HETATM    6  C   UNL     1      61.769  10.818   3.166  1.00  0.00     0.000 A 
ENDROOT
BRANCH   1   7
HETATM    7  C   UNL     1      64.429   8.162   5.328  1.00  0.00     0.252 C 
BRANCH   7   8
HETATM    8  C   UNL     1      63.762   7.381   6.470  1.00  0.00     0.207 C 
HETATM    9  O   UNL     1      62.566   7.150   6.583  1.00  0.00    -0.646 OA
HETATM   10  O   UNL     1      64.667   6.943   7.385  1.00  0.00    -0.646 OA
ENDBRANCH   7   8
BRANCH   7  11
HETATM   11  O   UNL     1      65.540   8.870   5.900  1.00  0.00    -0.380 OA
HETATM   12  H   UNL     1      66.329   8.306   5.880  1.00  0.00     0.211 HD
ENDBRANCH   7  11
ENDBRANCH   1   7
TORSDOF 3
ENDMDL
MODEL 2
REMARK VINA RESULT:      -4.8      1.306      2.034
REMARK  3 active torsions:
REMARK  status: ('A' for Active; 'I' for Inactive)
REMARK    1  A    between atoms: C_1  and  C_2 
REMARK    2  A    between atoms: C_2  and  C_4 
REMARK    3  A    between atoms: C_2  and  O_6 
ROOT
HETATM    1  C   UNL     1      62.627   9.403   3.987  1.00  0.00    -0.019 A 
HETATM    2  C   UNL     1      62.285  10.739   4.247  1.00  0.00     0.010 A 
HETATM    3  C   UNL     1      62.502   8.926   2.671  1.00  0.00     0.010 A 
HETATM    4  C   UNL     1      62.070   9.771   1.641  1.00  0.00     0.001 A 
HETATM    5  C   UNL     1      61.856  11.581   3.215  1.00  0.00     0.001 A 
HETATM    6  C   UNL     1      61.755  11.099   1.911  1.00  0.00     0.000 A 
ENDROOT
BRANCH   1   7
HETATM    7  C   UNL     1      63.105   8.476   5.088  1.00  0.00     0.252 C 
BRANCH   7   8
HETATM    8  C   UNL     1      64.632   8.356   5.196  1.00  0.00     0.207 C 
HETATM    9  O   UNL     1      65.317   7.443   4.755  1.00  0.00    -0.646 OA
HETATM   10  O   UNL     1      65.182   9.412   5.853  1.00  0.00    -0.646 OA
ENDBRANCH   7   8
BRANCH   7  11
HETATM   11  O   UNL     1      62.594   7.145   4.914  1.00  0.00    -0.380 OA
HETATM   12  H   UNL     1      62.656   6.893   3.979  1.00  0.00     0.211 HD
ENDBRANCH   7  11
ENDBRANCH   1   7
TORSDOF 3
ENDMDL
MODEL 3
REMARK VINA RESULT:      -4.7      0.883      1.700
REMARK  3 active torsions:
REMARK  status: ('A' for Active; 'I' for Inactive)
REMARK    1  A    between atoms: C_1  and  C_2 
REMARK    2  A    between atoms: C_2  and  C_4 
REMARK    3  A    between atoms: C_2  and  O_6 
ROOT
HETATM    1  C   UNL     1      63.250   9.065   4.144  1.00  0.00    -0.019 A 
HETATM    2  C   UNL     1      62.911   8.601   2.864  1.00  0.00     0.010 A 
HETATM    3  C   UNL     1      62.779  10.328   4.542  1.00  0.00     0.010 A 
HETATM    4  C   UNL     1      61.971  11.092   3.691  1.00  0.00     0.001 A 
HETATM    5  C   UNL     1      62.102   9.367   2.017  1.00  0.00     0.001 A 
HETATM    6  C   UNL     1      61.626  10.608   2.433  1.00  0.00     0.000 A 
ENDROOT
BRANCH   1   7
HETATM    7  C   UNL     1      64.118   8.249   5.082  1.00  0.00     0.252 C 
BRANCH   7   8
HETATM    8  C   UNL     1      63.332   7.393   6.086  1.00  0.00     0.207 C 
HETATM    9  O   UNL     1      62.665   7.811   7.023  1.00  0.00    -0.646 OA
HETATM   10  O   UNL     1      63.444   6.064   5.823  1.00  0.00    -0.646 OA
ENDBRANCH   7   8
BRANCH   7  11
HETATM   11  O   UNL     1      64.999   9.086   5.848  1.00  0.00    -0.380 OA
HETATM   12  H   UNL     1      64.490   9.806   6.254  1.00  0.00     0.211 HD
ENDBRANCH   7  11
ENDBRANCH   1   7
TORSDOF 3
ENDMDL
MODEL 4
REMARK VINA RESULT:      -4.6      2.025      3.041
REMARK  3 active torsions:
REMARK  status: ('A' for Active; 'I' for Inactive)
REMARK    1  A    between atoms: C_1  and  C_2 
REMARK    2  A    between atoms: C_2  and  C_4 
REMARK    3  A    between atoms: C_2  and  O_6 
ROOT
HETATM    1  C   UNL     1      62.786   9.216   3.710  1.00  0.00    -0.019 A 
HETATM    2  C   UNL     1      62.089  10.093   2.865  1.00  0.00     0.010 A 
HETATM    3  C   UNL     1      63.144   7.952   3.211  1.00  0.00     0.010 A 
HETATM    4  C   UNL     1      62.833   7.588   1.894  1.00  0.00     0.001 A 
HETATM    5  C   UNL     1      61.781   9.726   1.551  1.00  0.00     0.001 A 
HETATM    6  C   UNL     1      62.159   8.477   1.063  1.00  0.00     0.000 A 
ENDROOT
BRANCH   1   7
HETATM    7  C   UNL     1      63.139   9.597   5.135  1.00  0.00     0.252 C 
BRANCH   7   8
HETATM    8  C   UNL     1      62.871  11.068   5.482  1.00  0.00     0.207 C 
HETATM    9  O   UNL     1      62.106  11.820   4.893  1.00  0.00    -0.646 OA
HETATM   10  O   UNL     1      63.590  11.479   6.560  1.00  0.00    -0.646 OA
ENDBRANCH   7   8
BRANCH   7  11
HETATM   11  O   UNL     1      64.525   9.348   5.419  1.00  0.00    -0.380 OA
HETATM   12  H   UNL     1      64.948   8.946   4.644  1.00  0.00     0.211 HD
ENDBRANCH   7  11
ENDBRANCH   1   7
TORSDOF 3
ENDMDL
MODEL 5
REMARK VINA RESULT:      -4.6      1.184      1.785
REMARK  3 active torsions:
REMARK  status: ('A' for Active; 'I' for Inactive)
REMARK    1  A    between atoms: C_1  and  C_2 
REMARK    2  A    between atoms: C_2  and  C_4 
REMARK    3  A    between atoms: C_2  and  O_6 
ROOT
HETATM    1  C   UNL     1      63.359   8.762   4.180  1.00  0.00    -0.019 A 
HETATM    2  C   UNL     1      63.151   9.871   5.014  1.00  0.00     0.010 A 
HETATM    3  C   UNL     1      62.771   8.768   2.903  1.00  0.00     0.010 A 
HETATM    4  C   UNL     1      62.015   9.864   2.468  1.00  0.00     0.001 A 
HETATM    5  C   UNL     1      62.397  10.965   4.575  1.00  0.00     0.001 A 
HETATM    6  C   UNL     1      61.836  10.965   3.300  1.00  0.00     0.000 A 
ENDROOT
BRANCH   1   7
HETATM    7  C   UNL     1      64.180   7.569   4.631  1.00  0.00     0.252 C 
BRANCH   7   8
HETATM    8  C   UNL     1      65.354   7.923   5.556  1.00  0.00     0.207 C 
HETATM    9  O   UNL     1      66.373   8.518   5.232  1.00  0.00    -0.646 OA
HETATM   10  O   UNL     1      65.145   7.502   6.832  1.00  0.00    -0.646 OA
ENDBRANCH   7   8
BRANCH   7  11
HETATM   11  O   UNL     1      64.731   6.856   3.512  1.00  0.00    -0.380 OA
HETATM   12  H   UNL     1      64.987   7.486   2.820  1.00  0.00     0.211 HD
ENDBRANCH   7  11
ENDBRANCH   1   7
TORSDOF 3
ENDMDL
MODEL 6
REMARK VINA RESULT:      -4.3      1.423      2.175
REMARK  3 active torsions:
REMARK  status: ('A' for Active; 'I' for Inactive)
REMARK    1  A    between atoms: C_1  and  C_2 
REMARK    2  A    between atoms: C_2  and  C_4 
REMARK    3  A    between atoms: C_2  and  O_6 
ROOT
HETATM    1  C   UNL     1      62.883   8.984   3.616  1.00  0.00    -0.019 A 
HETATM    2  C   UNL     1      62.169  10.092   3.136  1.00  0.00     0.010 A 
HETATM    3  C   UNL     1      63.077   7.890   2.754  1.00  0.00     0.010 A 
HETATM    4  C   UNL     1      62.589   7.918   1.441  1.00  0.00     0.001 A 
HETATM    5  C   UNL     1      61.685  10.117   1.823  1.00  0.00     0.001 A 
HETATM    6  C   UNL     1      61.901   9.034   0.974  1.00  0.00     0.000 A 
ENDROOT
BRANCH   1   7
HETATM    7  C   UNL     1      63.426   8.939   5.032  1.00  0.00     0.252 C 
BRANCH   7   8
HETATM    8  C   UNL     1      62.860   7.797   5.889  1.00  0.00     0.207 C 
HETATM    9  O   UNL     1      63.364   7.344   6.908  1.00  0.00    -0.646 OA
HETATM   10  O   UNL     1      61.689   7.317   5.394  1.00  0.00    -0.646 OA
ENDBRANCH   7   8
BRANCH   7  11
HETATM   11  O   UNL     1      63.158  10.162   5.736  1.00  0.00    -0.380 OA
HETATM   12  H   UNL     1      62.599  10.736   5.190  1.00  0.00     0.211 HD
ENDBRANCH   7  11
ENDBRANCH   1   7
TORSDOF 3
ENDMDL
MODEL 7
REMARK VINA RESULT:      -4.2      1.936      2.935
REMARK  3 active torsions:
REMARK  status: ('A' for Active; 'I' for Inactive)
REMARK    1  A    between atoms: C_1  and  C_2 
REMARK    2  A    between atoms: C_2  and  C_4 
REMARK    3  A    between atoms: C_2  and  O_6 
ROOT
HETATM    1  C   UNL     1      65.464   7.771   5.179  1.00  0.00    -0.019 A 
HETATM    2  C   UNL     1      64.505   8.795   5.147  1.00  0.00     0.010 A 
HETATM    3  C   UNL     1      65.360   6.731   4.239  1.00  0.00     0.010 A 
HETATM    4  C   UNL     1      64.339   6.731   3.281  1.00  0.00     0.001 A 
HETATM    5  C   UNL     1      63.487   8.793   4.187  1.00  0.00     0.001 A 
HETATM    6  C   UNL     1      63.409   7.765   3.249  1.00  0.00     0.000 A 
ENDROOT
BRANCH   1   7
HETATM    7  C   UNL     1      66.581   7.758   6.205  1.00  0.00     0.252 C 
BRANCH   7   8
HETATM    8  C   UNL     1      66.400   6.722   7.324  1.00  0.00     0.207 C 
HETATM    9  O   UNL     1      67.232   5.903   7.690  1.00  0.00    -0.646 OA
HETATM   10  O   UNL     1      65.173   6.805   7.905  1.00  0.00    -0.646 OA
ENDBRANCH   7   8
BRANCH   7  11
HETATM   11  O   UNL     1      66.725   9.037   6.841  1.00  0.00    -0.380 OA
HETATM   12  H   UNL     1      65.904   9.543   6.743  1.00  0.00     0.211 HD
ENDBRANCH   7  11
ENDBRANCH   1   7
TORSDOF 3
ENDMDL
MODEL 8
REMARK VINA RESULT:      -4.0      3.080      4.787
REMARK  3 active torsions:
REMARK  status: ('A' for Active; 'I' for Inactive)
REMARK    1  A    between atoms: C_1  and  C_2 
REMARK    2  A    between atoms: C_2  and  C_4 
REMARK    3  A    between atoms: C_2  and  O_6 
ROOT
HETATM    1  C   UNL     1      62.837   8.513   3.693  1.00  0.00    -0.019 A 
HETATM    2  C   UNL     1      63.423   7.356   3.158  1.00  0.00     0.010 A 
HETATM    3  C   UNL     1      63.492   9.163   4.754  1.00  0.00     0.010 A 
HETATM    4  C   UNL     1      64.710   8.679   5.247  1.00  0.00     0.001 A 
HETATM    5  C   UNL     1      64.642   6.877   3.652  1.00  0.00     0.001 A 
HETATM    6  C   UNL     1      65.289   7.543   4.691  1.00  0.00     0.000 A 
ENDROOT
BRANCH   1   7
HETATM    7  C   UNL     1      61.522   9.055   3.167  1.00  0.00     0.252 C 
BRANCH   7   8
HETATM    8  C   UNL     1      61.456   9.179   1.638  1.00  0.00     0.207 C 
HETATM    9  O   UNL     1      62.250   9.782   0.928  1.00  0.00    -0.646 OA
HETATM   10  O   UNL     1      60.386   8.521   1.117  1.00  0.00    -0.646 OA
ENDBRANCH   7   8
BRANCH   7  11
HETATM   11  O   UNL     1      61.237  10.357   3.703  1.00  0.00    -0.380 OA
HETATM   12  H   UNL     1      61.285  10.327   4.672  1.00  0.00     0.211 HD
ENDBRANCH   7  11
ENDBRANCH   1   7
TORSDOF 3
ENDMDL
MODEL 9
REMARK VINA RESULT:      -4.0      2.624      3.825
REMARK  3 active torsions:
REMARK  status: ('A' for Active; 'I' for Inactive)
REMARK    1  A    between atoms: C_1  and  C_2 
REMARK    2  A    between atoms: C_2  and  C_4 
REMARK    3  A    between atoms: C_2  and  O_6 
ROOT
HETATM    1  C   UNL     1      61.577   9.009   2.580  1.00  0.00    -0.019 A 
HETATM    2  C   UNL     1      61.749   8.924   1.190  1.00  0.00     0.010 A 
HETATM    3  C   UNL     1      60.687   8.115   3.199  1.00  0.00     0.010 A 
HETATM    4  C   UNL     1      60.007   7.147   2.448  1.00  0.00     0.001 A 
HETATM    5  C   UNL     1      61.069   7.954   0.444  1.00  0.00     0.001 A 
HETATM    6  C   UNL     1      60.204   7.062   1.074  1.00  0.00     0.000 A 
ENDROOT
BRANCH   1   7
HETATM    7  C   UNL     1      62.310  10.046   3.411  1.00  0.00     0.252 C 
BRANCH   7   8
HETATM    8  C   UNL     1      63.156   9.460   4.550  1.00  0.00     0.207 C 
HETATM    9  O   UNL     1      63.987   8.567   4.446  1.00  0.00    -0.646 OA
HETATM   10  O   UNL     1      62.891  10.056   5.743  1.00  0.00    -0.646 OA
ENDBRANCH   7   8
BRANCH   7  11
HETATM   11  O   UNL     1      61.399  10.983   4.007  1.00  0.00    -0.380 OA
HETATM   12  H   UNL     1      61.173  10.690   4.903  1.00  0.00     0.211 HD
ENDBRANCH   7  11
ENDBRANCH   1   7
TORSDOF 3
ENDMDL
