MODEL 1
REMARK VINA RESULT:      -5.2      0.000      0.000
REMARK  0 active torsions:
REMARK  status: ('A' for Active; 'I' for Inactive)
ROOT
HETATM    1  C   UNL     1      63.071   9.535   5.237  1.00  0.00     0.164 A 
HETATM    2  C   UNL     1      62.612   9.828   3.881  1.00  0.00     0.016 A 
HETATM    3  C   UNL     1      62.803   8.697   3.095  1.00  0.00    -0.043 A 
HETATM    4  C   UNL     1      63.672   8.136   5.265  1.00  0.00     0.061 A 
HETATM    5  C   UNL     1      63.418   7.565   3.852  1.00  0.00     0.051 A 
HETATM    6  O   UNL     1      62.990  10.315   6.169  1.00  0.00    -0.292 OA
HETATM    7  C   UNL     1      62.060  10.995   3.383  1.00  0.00     0.015 A 
HETATM    8  C   UNL     1      62.417   8.702   1.764  1.00  0.00     0.008 A 
HETATM    9  C   UNL     1      63.051   7.262   6.341  1.00  0.00     0.018 C 
HETATM   10  C   UNL     1      61.681  11.008   2.039  1.00  0.00     0.001 A 
HETATM   11  C   UNL     1      61.851   9.867   1.237  1.00  0.00     0.001 A 
ENDROOT
TORSDOF 0
ENDMDL
MODEL 2
REMARK VINA RESULT:      -5.2      1.095      3.552
REMARK  0 active torsions:
REMARK  status: ('A' for Active; 'I' for Inactive)
ROOT
HETATM    1  C   UNL     1      62.276  10.526   4.066  1.00  0.00     0.164 A 
HETATM    2  C   UNL     1      63.019   9.272   4.157  1.00  0.00     0.016 A 
HETATM    3  C   UNL     1      62.836   8.561   2.976  1.00  0.00    -0.043 A 
HETATM    4  C   UNL     1      61.504  10.549   2.753  1.00  0.00     0.061 A 
HETATM    5  C   UNL     1      61.946   9.270   2.008  1.00  0.00     0.051 A 
HETATM    6  O   UNL     1      62.278  11.387   4.928  1.00  0.00    -0.292 OA
HETATM    7  C   UNL     1      63.803   8.799   5.195  1.00  0.00     0.015 A 
HETATM    8  C   UNL     1      63.466   7.340   2.794  1.00  0.00     0.008 A 
HETATM    9  C   UNL     1      61.788  11.798   1.937  1.00  0.00     0.018 C 
HETATM   10  C   UNL     1      64.431   7.564   5.020  1.00  0.00     0.001 A 
HETATM   11  C   UNL     1      64.269   6.843   3.825  1.00  0.00     0.001 A 
ENDROOT
TORSDOF 0
ENDMDL
MODEL 3
REMARK VINA RESULT:      -5.0      1.850      3.589
REMARK  0 active torsions:
REMARK  status: ('A' for Active; 'I' for Inactive)
ROOT
HETATM    1  C   UNL     1      62.993   7.663   2.597  1.00  0.00     0.164 A 
HETATM    2  C   UNL     1      62.840   8.872   3.403  1.00  0.00     0.016 A 
HETATM    3  C   UNL     1      62.177   9.829   2.644  1.00  0.00    -0.043 A 
HETATM    4  C   UNL     1      62.454   7.929   1.197  1.00  0.00     0.061 A 
HETATM    5  C   UNL     1      61.848   9.348   1.268  1.00  0.00     0.051 A 
HETATM    6  O   UNL     1      63.494   6.629   3.002  1.00  0.00    -0.292 OA
HETATM    7  C   UNL     1      63.244   9.105   4.706  1.00  0.00     0.015 A 
HETATM    8  C   UNL     1      61.877  11.066   3.192  1.00  0.00     0.008 A 
HETATM    9  C   UNL     1      61.422   6.901   0.770  1.00  0.00     0.018 C 
HETATM   10  C   UNL     1      62.954  10.354   5.258  1.00  0.00     0.001 A 
HETATM   11  C   UNL     1      62.268  11.325   4.509  1.00  0.00     0.001 A 
ENDROOT
TORSDOF 0
ENDMDL
MODEL 4
REMARK VINA RESULT:      -4.9      1.683      2.176
REMARK  0 active torsions:
REMARK  status: ('A' for Active; 'I' for Inactive)
ROOT
HETATM    1  C   UNL     1      65.133   8.401   5.329  1.00  0.00     0.164 A 
HETATM    2  C   UNL     1      63.969   9.076   4.761  1.00  0.00     0.016 A 
HETATM    3  C   UNL     1      63.477   8.305   3.714  1.00  0.00    -0.043 A 
HETATM    4  C   UNL     1      65.430   7.153   4.508  1.00  0.00     0.061 A 
HETATM    5  C   UNL     1      64.276   7.064   3.485  1.00  0.00     0.051 A 
HETATM    6  O   UNL     1      65.756   8.807   6.294  1.00  0.00    -0.292 OA
HETATM    7  C   UNL     1      63.384  10.271   5.143  1.00  0.00     0.015 A 
HETATM    8  C   UNL     1      62.346   8.712   3.022  1.00  0.00     0.008 A 
HETATM    9  C   UNL     1      65.514   5.903   5.366  1.00  0.00     0.018 C 
HETATM   10  C   UNL     1      62.252  10.690   4.442  1.00  0.00     0.001 A 
HETATM   11  C   UNL     1      61.733   9.912   3.393  1.00  0.00     0.001 A 
ENDROOT
TORSDOF 0
ENDMDL
MODEL 5
REMARK VINA RESULT:      -4.8      1.535      2.418
REMARK  0 active torsions:
REMARK  status: ('A' for Active; 'I' for Inactive)
ROOT
HETATM    1  C   UNL     1      63.535   7.602   3.816  1.00  0.00     0.164 A 
HETATM    2  C   UNL     1      62.851   8.683   3.110  1.00  0.00     0.016 A 
HETATM    3  C   UNL     1      62.693   9.752   3.985  1.00  0.00    -0.043 A 
HETATM    4  C   UNL     1      63.739   8.010   5.269  1.00  0.00     0.061 A 
HETATM    5  C   UNL     1      63.241   9.470   5.346  1.00  0.00     0.051 A 
HETATM    6  O   UNL     1      63.859   6.547   3.301  1.00  0.00    -0.292 OA
HETATM    7  C   UNL     1      62.412   8.725   1.799  1.00  0.00     0.015 A 
HETATM    8  C   UNL     1      62.096  10.925   3.550  1.00  0.00     0.008 A 
HETATM    9  C   UNL     1      65.188   7.890   5.705  1.00  0.00     0.018 C 
HETATM   10  C   UNL     1      61.799   9.900   1.359  1.00  0.00     0.001 A 
HETATM   11  C   UNL     1      61.649  10.995   2.227  1.00  0.00     0.001 A 
ENDROOT
TORSDOF 0
ENDMDL
MODEL 6
REMARK VINA RESULT:      -4.6      1.399      2.778
REMARK  0 active torsions:
REMARK  status: ('A' for Active; 'I' for Inactive)
ROOT
HETATM    1  C   UNL     1      62.658   8.646   4.483  1.00  0.00     0.164 A 
HETATM    2  C   UNL     1      62.587   8.302   3.065  1.00  0.00     0.016 A 
HETATM    3  C   UNL     1      62.172   9.425   2.358  1.00  0.00    -0.043 A 
HETATM    4  C   UNL     1      62.163  10.074   4.672  1.00  0.00     0.061 A 
HETATM    5  C   UNL     1      61.916  10.602   3.241  1.00  0.00     0.051 A 
HETATM    6  O   UNL     1      63.037   7.883   5.354  1.00  0.00    -0.292 OA
HETATM    7  C   UNL     1      62.877   7.099   2.446  1.00  0.00     0.015 A 
HETATM    8  C   UNL     1      62.055   9.373   0.977  1.00  0.00     0.008 A 
HETATM    9  C   UNL     1      63.163  10.938   5.421  1.00  0.00     0.018 C 
HETATM   10  C   UNL     1      62.749   7.039   1.057  1.00  0.00     0.001 A 
HETATM   11  C   UNL     1      62.347   8.171   0.328  1.00  0.00     0.001 A 
ENDROOT
TORSDOF 0
ENDMDL
MODEL 7
REMARK VINA RESULT:      -4.6      2.048      4.027
REMARK  0 active torsions:
REMARK  status: ('A' for Active; 'I' for Inactive)
ROOT
HETATM    1  C   UNL     1      64.121   9.146   5.116  1.00  0.00     0.164 A 
HETATM    2  C   UNL     1      65.054   8.089   4.733  1.00  0.00     0.016 A 
HETATM    3  C   UNL     1      64.404   7.218   3.866  1.00  0.00    -0.043 A 
HETATM    4  C   UNL     1      62.759   8.852   4.501  1.00  0.00     0.061 A 
HETATM    5  C   UNL     1      62.984   7.608   3.613  1.00  0.00     0.051 A 
HETATM    6  O   UNL     1      64.411  10.088   5.832  1.00  0.00    -0.292 OA
HETATM    7  C   UNL     1      66.374   7.915   5.109  1.00  0.00     0.015 A 
HETATM    8  C   UNL     1      65.083   6.137   3.327  1.00  0.00     0.008 A 
HETATM    9  C   UNL     1      62.223  10.023   3.697  1.00  0.00     0.018 C 
HETATM   10  C   UNL     1      67.060   6.821   4.577  1.00  0.00     0.001 A 
HETATM   11  C   UNL     1      66.420   5.942   3.686  1.00  0.00     0.001 A 
ENDROOT
TORSDOF 0
ENDMDL
MODEL 8
REMARK VINA RESULT:      -4.1      5.120      6.196
REMARK  0 active torsions:
REMARK  status: ('A' for Active; 'I' for Inactive)
ROOT
HETATM    1  C   UNL     1      66.941   7.247   6.962  1.00  0.00     0.164 A 
HETATM    2  C   UNL     1      66.997   6.415   5.762  1.00  0.00     0.016 A 
HETATM    3  C   UNL     1      67.393   5.134   6.131  1.00  0.00    -0.043 A 
HETATM    4  C   UNL     1      67.423   6.431   8.154  1.00  0.00     0.061 A 
HETATM    5  C   UNL     1      67.649   5.008   7.597  1.00  0.00     0.051 A 
HETATM    6  O   UNL     1      66.579   8.410   6.970  1.00  0.00    -0.292 OA
HETATM    7  C   UNL     1      66.711   6.756   4.452  1.00  0.00     0.015 A 
HETATM    8  C   UNL     1      67.494   4.135   5.175  1.00  0.00     0.008 A 
HETATM    9  C   UNL     1      66.425   6.432   9.298  1.00  0.00     0.018 C 
HETATM   10  C   UNL     1      66.824   5.756   3.484  1.00  0.00     0.001 A 
HETATM   11  C   UNL     1      67.206   4.453   3.844  1.00  0.00     0.001 A 
ENDROOT
TORSDOF 0
ENDMDL
MODEL 9
REMARK VINA RESULT:      -4.0      2.962      5.097
REMARK  0 active torsions:
REMARK  status: ('A' for Active; 'I' for Inactive)
ROOT
HETATM    1  C   UNL     1      64.146   7.095   3.377  1.00  0.00     0.164 A 
HETATM    2  C   UNL     1      65.377   6.962   4.153  1.00  0.00     0.016 A 
HETATM    3  C   UNL     1      65.410   7.973   5.107  1.00  0.00    -0.043 A 
HETATM    4  C   UNL     1      63.403   8.342   3.837  1.00  0.00     0.061 A 
HETATM    5  C   UNL     1      64.218   8.872   5.037  1.00  0.00     0.051 A 
HETATM    6  O   UNL     1      63.807   6.326   2.495  1.00  0.00    -0.292 OA
HETATM    7  C   UNL     1      66.382   6.018   4.036  1.00  0.00     0.015 A 
HETATM    8  C   UNL     1      66.466   8.053   6.001  1.00  0.00     0.008 A 
HETATM    9  C   UNL     1      61.965   8.048   4.224  1.00  0.00     0.018 C 
HETATM   10  C   UNL     1      67.454   6.101   4.926  1.00  0.00     0.001 A 
HETATM   11  C   UNL     1      67.492   7.107   5.907  1.00  0.00     0.001 A 
ENDROOT
TORSDOF 0
ENDMDL
