MODEL 1
REMARK VINA RESULT:      -4.6      0.000      0.000
REMARK  2 active torsions:
REMARK  status: ('A' for Active; 'I' for Inactive)
REMARK    1  A    between atoms: C_1  and  C_6 
REMARK    2  A    between atoms: C_2  and  O_9 
ROOT
HETATM    1  C   UNL     1      62.956   9.651   4.684  1.00  0.00     0.082 A 
HETATM    2  C   UNL     1      64.122   8.795   4.737  1.00  0.00     0.114 A 
HETATM    3  C   UNL     1      61.974   9.113   3.870  1.00  0.00     0.072 A 
HETATM    4  C   UNL     1      63.948   7.672   3.950  1.00  0.00     0.108 A 
HETATM    5  S   UNL     1      62.426   7.621   3.187  1.00  0.00    -0.086 SA
HETATM    6 CL   UNL     1      64.986   6.341   3.598  1.00  0.00    -0.073 Cl
ENDROOT
BRANCH   1   7
HETATM    7  C   UNL     1      62.798  10.921   5.373  1.00  0.00     0.212 C 
HETATM    8  O   UNL     1      63.236  11.215   6.475  1.00  0.00    -0.644 OA
HETATM    9  O   UNL     1      62.092  11.845   4.678  1.00  0.00    -0.644 OA
ENDBRANCH   1   7
BRANCH   2  10
HETATM   10  O   UNL     1      65.196   9.181   5.480  1.00  0.00    -0.353 OA
HETATM   11  C   UNL     1      65.943   8.189   6.156  1.00  0.00     0.210 C 
ENDBRANCH   2  10
TORSDOF 2
ENDMDL
MODEL 2
REMARK VINA RESULT:      -4.5      2.110      3.444
REMARK  2 active torsions:
REMARK  status: ('A' for Active; 'I' for Inactive)
REMARK    1  A    between atoms: C_1  and  C_6 
REMARK    2  A    between atoms: C_2  and  O_9 
ROOT
HETATM    1  C   UNL     1      62.978   9.263   4.350  1.00  0.00     0.082 A 
HETATM    2  C   UNL     1      62.076   9.733   3.320  1.00  0.00     0.114 A 
HETATM    3  C   UNL     1      63.261   7.916   4.194  1.00  0.00     0.072 A 
HETATM    4  C   UNL     1      61.729   8.708   2.460  1.00  0.00     0.108 A 
HETATM    5  S   UNL     1      62.477   7.228   2.850  1.00  0.00    -0.086 SA
HETATM    6 CL   UNL     1      60.680   8.659   1.092  1.00  0.00    -0.073 Cl
ENDROOT
BRANCH   1   7
HETATM    7  C   UNL     1      63.531  10.063   5.431  1.00  0.00     0.212 C 
HETATM    8  O   UNL     1      62.957  10.940   6.058  1.00  0.00    -0.644 OA
HETATM    9  O   UNL     1      64.814   9.762   5.743  1.00  0.00    -0.644 OA
ENDBRANCH   1   7
BRANCH   2  10
HETATM   10  O   UNL     1      61.675  11.035   3.332  1.00  0.00    -0.353 OA
HETATM   11  C   UNL     1      61.787  11.788   2.140  1.00  0.00     0.210 C 
ENDBRANCH   2  10
TORSDOF 2
ENDMDL
MODEL 3
REMARK VINA RESULT:      -4.3      2.560      3.370
REMARK  2 active torsions:
REMARK  status: ('A' for Active; 'I' for Inactive)
REMARK    1  A    between atoms: C_1  and  C_6 
REMARK    2  A    between atoms: C_2  and  O_9 
ROOT
HETATM    1  C   UNL     1      63.562   8.896   4.724  1.00  0.00     0.082 A 
HETATM    2  C   UNL     1      63.307   8.325   3.420  1.00  0.00     0.114 A 
HETATM    3  C   UNL     1      62.860  10.076   4.903  1.00  0.00     0.072 A 
HETATM    4  C   UNL     1      62.436   9.117   2.694  1.00  0.00     0.108 A 
HETATM    5  S   UNL     1      61.914  10.493   3.551  1.00  0.00    -0.086 SA
HETATM    6 CL   UNL     1      61.806   8.969   1.096  1.00  0.00    -0.073 Cl
ENDROOT
BRANCH   1   7
HETATM    7  C   UNL     1      64.441   8.342   5.741  1.00  0.00     0.212 C 
HETATM    8  O   UNL     1      64.211   7.382   6.461  1.00  0.00    -0.644 OA
HETATM    9  O   UNL     1      65.627   8.985   5.860  1.00  0.00    -0.644 OA
ENDBRANCH   1   7
BRANCH   2  10
HETATM   10  O   UNL     1      63.933   7.167   3.066  1.00  0.00    -0.353 OA
HETATM   11  C   UNL     1      63.188   5.966   3.075  1.00  0.00     0.210 C 
ENDBRANCH   2  10
TORSDOF 2
ENDMDL
MODEL 4
REMARK VINA RESULT:      -4.1      1.945      3.594
REMARK  2 active torsions:
REMARK  status: ('A' for Active; 'I' for Inactive)
REMARK    1  A    between atoms: C_1  and  C_6 
REMARK    2  A    between atoms: C_2  and  O_9 
ROOT
HETATM    1  C   UNL     1      64.715   7.673   5.256  1.00  0.00     0.082 A 
HETATM    2  C   UNL     1      64.024   8.863   4.809  1.00  0.00     0.114 A 
HETATM    3  C   UNL     1      64.458   6.599   4.420  1.00  0.00     0.072 A 
HETATM    4  C   UNL     1      63.281   8.608   3.671  1.00  0.00     0.108 A 
HETATM    5  S   UNL     1      63.422   6.998   3.131  1.00  0.00    -0.086 SA
HETATM    6 CL   UNL     1      62.244   9.608   2.725  1.00  0.00    -0.073 Cl
ENDROOT
BRANCH   1   7
HETATM    7  C   UNL     1      65.570   7.571   6.427  1.00  0.00     0.212 C 
HETATM    8  O   UNL     1      66.739   7.917   6.511  1.00  0.00    -0.644 OA
HETATM    9  O   UNL     1      64.961   7.040   7.514  1.00  0.00    -0.644 OA
ENDBRANCH   1   7
BRANCH   2  10
HETATM   10  O   UNL     1      64.150  10.014   5.527  1.00  0.00    -0.353 OA
HETATM   11  C   UNL     1      63.023  10.859   5.655  1.00  0.00     0.210 C 
ENDBRANCH   2  10
TORSDOF 2
ENDMDL
MODEL 5
REMARK VINA RESULT:      -4.1      2.569      3.469
REMARK  2 active torsions:
REMARK  status: ('A' for Active; 'I' for Inactive)
REMARK    1  A    between atoms: C_1  and  C_6 
REMARK    2  A    between atoms: C_2  and  O_9 
ROOT
HETATM    1  C   UNL     1      62.428   8.002   4.784  1.00  0.00     0.082 A 
HETATM    2  C   UNL     1      62.675   9.339   4.287  1.00  0.00     0.114 A 
HETATM    3  C   UNL     1      61.636   7.279   3.908  1.00  0.00     0.072 A 
HETATM    4  C   UNL     1      62.043   9.541   3.074  1.00  0.00     0.108 A 
HETATM    5  S   UNL     1      61.199   8.168   2.525  1.00  0.00    -0.086 SA
HETATM    6 CL   UNL     1      61.948  10.919   2.042  1.00  0.00    -0.073 Cl
ENDROOT
BRANCH   1   7
HETATM    7  C   UNL     1      62.922   7.452   6.036  1.00  0.00     0.212 C 
HETATM    8  O   UNL     1      64.083   7.424   6.415  1.00  0.00    -0.644 OA
HETATM    9  O   UNL     1      61.956   6.938   6.834  1.00  0.00    -0.644 OA
ENDBRANCH   1   7
BRANCH   2  10
HETATM   10  O   UNL     1      63.425  10.197   5.034  1.00  0.00    -0.353 OA
HETATM   11  C   UNL     1      62.781  11.292   5.655  1.00  0.00     0.210 C 
ENDBRANCH   2  10
TORSDOF 2
ENDMDL
MODEL 6
REMARK VINA RESULT:      -4.0      2.730      3.386
REMARK  2 active torsions:
REMARK  status: ('A' for Active; 'I' for Inactive)
REMARK    1  A    between atoms: C_1  and  C_6 
REMARK    2  A    between atoms: C_2  and  O_9 
ROOT
HETATM    1  C   UNL     1      64.593   8.272   5.454  1.00  0.00     0.082 A 
HETATM    2  C   UNL     1      64.113   7.196   6.295  1.00  0.00     0.114 A 
HETATM    3  C   UNL     1      65.876   8.019   4.999  1.00  0.00     0.072 A 
HETATM    4  C   UNL     1      65.069   6.207   6.429  1.00  0.00     0.108 A 
HETATM    5  S   UNL     1      66.494   6.535   5.555  1.00  0.00    -0.086 SA
HETATM    6 CL   UNL     1      65.081   4.731   7.319  1.00  0.00    -0.073 Cl
ENDROOT
BRANCH   1   7
HETATM    7  C   UNL     1      63.861   9.480   5.113  1.00  0.00     0.212 C 
HETATM    8  O   UNL     1      62.973   9.587   4.280  1.00  0.00    -0.644 OA
HETATM    9  O   UNL     1      64.231  10.572   5.824  1.00  0.00    -0.644 OA
ENDBRANCH   1   7
BRANCH   2  10
HETATM   10  O   UNL     1      62.870   7.288   6.846  1.00  0.00    -0.353 OA
HETATM   11  C   UNL     1      61.824   6.518   6.288  1.00  0.00     0.210 C 
ENDBRANCH   2  10
TORSDOF 2
ENDMDL
MODEL 7
REMARK VINA RESULT:      -3.9      3.558      5.164
REMARK  2 active torsions:
REMARK  status: ('A' for Active; 'I' for Inactive)
REMARK    1  A    between atoms: C_1  and  C_6 
REMARK    2  A    between atoms: C_2  and  O_9 
ROOT
HETATM    1  C   UNL     1      66.184   6.660   7.159  1.00  0.00     0.082 A 
HETATM    2  C   UNL     1      65.003   7.114   6.457  1.00  0.00     0.114 A 
HETATM    3  C   UNL     1      67.328   6.876   6.409  1.00  0.00     0.072 A 
HETATM    4  C   UNL     1      65.330   7.634   5.219  1.00  0.00     0.108 A 
HETATM    5  S   UNL     1      67.005   7.607   4.907  1.00  0.00    -0.086 SA
HETATM    6 CL   UNL     1      64.361   8.281   3.949  1.00  0.00    -0.073 Cl
ENDROOT
BRANCH   1   7
HETATM    7  C   UNL     1      66.211   6.044   8.475  1.00  0.00     0.212 C 
HETATM    8  O   UNL     1      66.424   6.604   9.540  1.00  0.00    -0.644 OA
HETATM    9  O   UNL     1      65.960   4.713   8.470  1.00  0.00    -0.644 OA
ENDBRANCH   1   7
BRANCH   2  10
HETATM   10  O   UNL     1      63.782   6.962   7.043  1.00  0.00    -0.353 OA
HETATM   11  C   UNL     1      62.821   6.146   6.403  1.00  0.00     0.210 C 
ENDBRANCH   2  10
TORSDOF 2
ENDMDL
MODEL 8
REMARK VINA RESULT:      -3.8      2.182      2.556
REMARK  2 active torsions:
REMARK  status: ('A' for Active; 'I' for Inactive)
REMARK    1  A    between atoms: C_1  and  C_6 
REMARK    2  A    between atoms: C_2  and  O_9 
ROOT
HETATM    1  C   UNL     1      62.740   9.049   4.514  1.00  0.00     0.082 A 
HETATM    2  C   UNL     1      62.112   7.786   4.838  1.00  0.00     0.114 A 
HETATM    3  C   UNL     1      62.369   9.486   3.254  1.00  0.00     0.072 A 
HETATM    4  C   UNL     1      61.317   7.346   3.796  1.00  0.00     0.108 A 
HETATM    5  S   UNL     1      61.295   8.421   2.475  1.00  0.00    -0.086 SA
HETATM    6 CL   UNL     1      60.370   5.920   3.593  1.00  0.00    -0.073 Cl
ENDROOT
BRANCH   1   7
HETATM    7  C   UNL     1      63.653   9.791   5.368  1.00  0.00     0.212 C 
HETATM    8  O   UNL     1      64.815   9.509   5.616  1.00  0.00    -0.644 OA
HETATM    9  O   UNL     1      63.116  10.908   5.915  1.00  0.00    -0.644 OA
ENDBRANCH   1   7
BRANCH   2  10
HETATM   10  O   UNL     1      62.381   7.198   6.037  1.00  0.00    -0.353 OA
HETATM   11  C   UNL     1      63.336   6.156   6.081  1.00  0.00     0.210 C 
ENDBRANCH   2  10
TORSDOF 2
ENDMDL
MODEL 9
REMARK VINA RESULT:      -3.8      2.930      3.701
REMARK  2 active torsions:
REMARK  status: ('A' for Active; 'I' for Inactive)
REMARK    1  A    between atoms: C_1  and  C_6 
REMARK    2  A    between atoms: C_2  and  O_9 
ROOT
HETATM    1  C   UNL     1      64.893   8.003   5.552  1.00  0.00     0.082 A 
HETATM    2  C   UNL     1      64.194   6.988   6.310  1.00  0.00     0.114 A 
HETATM    3  C   UNL     1      64.041   8.648   4.671  1.00  0.00     0.072 A 
HETATM    4  C   UNL     1      62.862   6.924   5.943  1.00  0.00     0.108 A 
HETATM    5  S   UNL     1      62.446   8.063   4.746  1.00  0.00    -0.086 SA
HETATM    6 CL   UNL     1      61.572   5.906   6.463  1.00  0.00    -0.073 Cl
ENDROOT
BRANCH   1   7
HETATM    7  C   UNL     1      66.304   8.331   5.665  1.00  0.00     0.212 C 
HETATM    8  O   UNL     1      67.166   8.151   4.817  1.00  0.00    -0.644 OA
HETATM    9  O   UNL     1      66.650   8.899   6.845  1.00  0.00    -0.644 OA
ENDBRANCH   1   7
BRANCH   2  10
HETATM   10  O   UNL     1      64.885   6.239   7.215  1.00  0.00    -0.353 OA
HETATM   11  C   UNL     1      65.269   4.927   6.855  1.00  0.00     0.210 C 
ENDBRANCH   2  10
TORSDOF 2
ENDMDL
