MODEL 1
REMARK VINA RESULT:      -4.5      0.000      0.000
REMARK  2 active torsions:
REMARK  status: ('A' for Active; 'I' for Inactive)
REMARK    1  A    between atoms: C_3  and  C_7 
REMARK    2  A    between atoms: C_5  and  N_11 
ROOT
HETATM    1  N   UNL     1      64.557   7.432   6.589  1.00  0.00    -0.296 N 
ATOM      2  HN  UNL     1      63.672   7.322   7.084  1.00  0.00     0.187 HD
HETATM    3  C   UNL     1      64.790   8.109   5.455  1.00  0.00     0.069 A 
HETATM    4  C   UNL     1      66.160   8.075   5.103  1.00  0.00     0.081 A 
HETATM    5  C   UNL     1      66.774   7.336   6.085  1.00  0.00     0.117 A 
HETATM    6  N   UNL     1      65.764   6.932   6.922  1.00  0.00    -0.281 N 
HETATM    7  C   UNL     1      65.872   6.025   8.038  1.00  0.00     0.179 C 
ENDROOT
BRANCH   3   8
HETATM    8  C   UNL     1      63.691   8.789   4.693  1.00  0.00     0.033 A 
HETATM    9  S   UNL     1      62.966  10.266   5.154  1.00  0.00    -0.100 SA
HETATM   10  C   UNL     1      61.948  10.272   3.779  1.00  0.00     0.050 A 
HETATM   11  C   UNL     1      62.136   9.156   2.994  1.00  0.00     0.008 A 
HETATM   12  C   UNL     1      63.147   8.298   3.522  1.00  0.00     0.021 A 
ENDBRANCH   3   8
BRANCH   5  13
HETATM   13  N   UNL     1      68.074   7.012   6.250  1.00  0.00    -0.384 N 
HETATM   14  H   UNL     1      68.354   6.483   7.032  1.00  0.00     0.157 HD
HETATM   15  H   UNL     1      68.742   7.305   5.588  1.00  0.00     0.157 HD
ENDBRANCH   5  13
TORSDOF 2
ENDMDL
MODEL 2
REMARK VINA RESULT:      -4.4      2.737      4.092
REMARK  2 active torsions:
REMARK  status: ('A' for Active; 'I' for Inactive)
REMARK    1  A    between atoms: C_3  and  C_7 
REMARK    2  A    between atoms: C_5  and  N_11 
ROOT
HETATM    1  N   UNL     1      63.168   8.228   4.043  1.00  0.00    -0.296 N 
ATOM      2  HN  UNL     1      63.402   7.277   3.758  1.00  0.00     0.187 HD
HETATM    3  C   UNL     1      62.122   8.972   3.657  1.00  0.00     0.069 A 
HETATM    4  C   UNL     1      62.109  10.227   4.310  1.00  0.00     0.081 A 
HETATM    5  C   UNL     1      63.211  10.226   5.131  1.00  0.00     0.117 A 
HETATM    6  N   UNL     1      63.839   9.028   4.896  1.00  0.00    -0.281 N 
HETATM    7  C   UNL     1      65.113   8.599   5.418  1.00  0.00     0.179 C 
ENDROOT
BRANCH   3   8
HETATM    8  C   UNL     1      61.128   8.484   2.645  1.00  0.00     0.033 A 
HETATM    9  S   UNL     1      59.807   7.460   3.004  1.00  0.00    -0.100 SA
HETATM   10  C   UNL     1      59.262   7.486   1.382  1.00  0.00     0.050 A 
HETATM   11  C   UNL     1      60.085   8.238   0.574  1.00  0.00     0.008 A 
HETATM   12  C   UNL     1      61.164   8.818   1.306  1.00  0.00     0.021 A 
ENDBRANCH   3   8
BRANCH   5  13
HETATM   13  N   UNL     1      63.660  11.165   5.991  1.00  0.00    -0.384 N 
HETATM   14  H   UNL     1      63.987  12.029   5.651  1.00  0.00     0.157 HD
HETATM   15  H   UNL     1      63.660  10.985   6.959  1.00  0.00     0.157 HD
ENDBRANCH   5  13
TORSDOF 2
ENDMDL
MODEL 3
REMARK VINA RESULT:      -4.3      2.591      4.986
REMARK  2 active torsions:
REMARK  status: ('A' for Active; 'I' for Inactive)
REMARK    1  A    between atoms: C_3  and  C_7 
REMARK    2  A    between atoms: C_5  and  N_11 
ROOT
HETATM    1  N   UNL     1      64.170   9.611   5.466  1.00  0.00    -0.296 N 
ATOM      2  HN  UNL     1      64.755  10.008   6.201  1.00  0.00     0.187 HD
HETATM    3  C   UNL     1      64.367   8.479   4.775  1.00  0.00     0.069 A 
HETATM    4  C   UNL     1      63.307   8.233   3.870  1.00  0.00     0.081 A 
HETATM    5  C   UNL     1      62.432   9.279   4.035  1.00  0.00     0.117 A 
HETATM    6  N   UNL     1      63.019  10.102   4.964  1.00  0.00    -0.281 N 
HETATM    7  C   UNL     1      62.558  11.401   5.388  1.00  0.00     0.179 C 
ENDROOT
BRANCH   3   8
HETATM    8  C   UNL     1      65.586   7.627   4.974  1.00  0.00     0.033 A 
HETATM    9  S   UNL     1      66.622   7.723   6.329  1.00  0.00    -0.100 SA
HETATM   10  C   UNL     1      67.608   6.451   5.748  1.00  0.00     0.050 A 
HETATM   11  C   UNL     1      67.174   5.978   4.530  1.00  0.00     0.008 A 
HETATM   12  C   UNL     1      66.001   6.657   4.083  1.00  0.00     0.021 A 
ENDBRANCH   3   8
BRANCH   5  13
HETATM   13  N   UNL     1      61.247   9.529   3.438  1.00  0.00    -0.384 N 
HETATM   14  H   UNL     1      60.553  10.039   3.916  1.00  0.00     0.157 HD
HETATM   15  H   UNL     1      61.078   9.202   2.525  1.00  0.00     0.157 HD
ENDBRANCH   5  13
TORSDOF 2
ENDMDL
MODEL 4
REMARK VINA RESULT:      -4.3      3.017      5.425
REMARK  2 active torsions:
REMARK  status: ('A' for Active; 'I' for Inactive)
REMARK    1  A    between atoms: C_3  and  C_7 
REMARK    2  A    between atoms: C_5  and  N_11 
ROOT
HETATM    1  N   UNL     1      63.151   8.142   2.809  1.00  0.00    -0.296 N 
ATOM      2  HN  UNL     1      63.540   7.271   2.448  1.00  0.00     0.187 HD
HETATM    3  C   UNL     1      63.316   8.678   4.027  1.00  0.00     0.069 A 
HETATM    4  C   UNL     1      62.659   9.927   4.137  1.00  0.00     0.081 A 
HETATM    5  C   UNL     1      62.071  10.143   2.915  1.00  0.00     0.117 A 
HETATM    6  N   UNL     1      62.353   9.022   2.172  1.00  0.00    -0.281 N 
HETATM    7  C   UNL     1      61.851   8.704   0.858  1.00  0.00     0.179 C 
ENDROOT
BRANCH   3   8
HETATM    8  C   UNL     1      64.102   7.987   5.101  1.00  0.00     0.033 A 
HETATM    9  S   UNL     1      63.460   6.815   6.167  1.00  0.00    -0.100 SA
HETATM   10  C   UNL     1      64.973   6.585   6.931  1.00  0.00     0.050 A 
HETATM   11  C   UNL     1      65.946   7.405   6.405  1.00  0.00     0.008 A 
HETATM   12  C   UNL     1      65.443   8.215   5.343  1.00  0.00     0.021 A 
ENDBRANCH   3   8
BRANCH   5  13
HETATM   13  N   UNL     1      61.342  11.188   2.468  1.00  0.00    -0.384 N 
HETATM   14  H   UNL     1      61.749  11.851   1.866  1.00  0.00     0.157 HD
HETATM   15  H   UNL     1      60.402  11.285   2.746  1.00  0.00     0.157 HD
ENDBRANCH   5  13
TORSDOF 2
ENDMDL
MODEL 5
REMARK VINA RESULT:      -4.3      1.280      1.755
REMARK  2 active torsions:
REMARK  status: ('A' for Active; 'I' for Inactive)
REMARK    1  A    between atoms: C_3  and  C_7 
REMARK    2  A    between atoms: C_5  and  N_11 
ROOT
HETATM    1  N   UNL     1      65.238   8.382   5.952  1.00  0.00    -0.296 N 
ATOM      2  HN  UNL     1      65.769   9.250   5.867  1.00  0.00     0.187 HD
HETATM    3  C   UNL     1      64.032   8.098   5.440  1.00  0.00     0.069 A 
HETATM    4  C   UNL     1      63.646   6.768   5.730  1.00  0.00     0.081 A 
HETATM    5  C   UNL     1      64.682   6.234   6.456  1.00  0.00     0.117 A 
HETATM    6  N   UNL     1      65.588   7.256   6.605  1.00  0.00    -0.281 N 
HETATM    7  C   UNL     1      66.791   7.240   7.400  1.00  0.00     0.179 C 
ENDROOT
BRANCH   3   8
HETATM    8  C   UNL     1      63.235   9.111   4.672  1.00  0.00     0.033 A 
HETATM    9  S   UNL     1      62.863  10.680   5.238  1.00  0.00    -0.100 SA
HETATM   10  C   UNL     1      62.041  11.078   3.791  1.00  0.00     0.050 A 
HETATM   11  C   UNL     1      62.025  10.027   2.901  1.00  0.00     0.008 A 
HETATM   12  C   UNL     1      62.719   8.889   3.410  1.00  0.00     0.021 A 
ENDBRANCH   3   8
BRANCH   5  13
HETATM   13  N   UNL     1      64.843   4.995   6.967  1.00  0.00    -0.384 N 
HETATM   14  H   UNL     1      65.403   4.337   6.496  1.00  0.00     0.157 HD
HETATM   15  H   UNL     1      64.400   4.750   7.812  1.00  0.00     0.157 HD
ENDBRANCH   5  13
TORSDOF 2
ENDMDL
MODEL 6
REMARK VINA RESULT:      -4.1      1.589      2.085
REMARK  2 active torsions:
REMARK  status: ('A' for Active; 'I' for Inactive)
REMARK    1  A    between atoms: C_3  and  C_7 
REMARK    2  A    between atoms: C_5  and  N_11 
ROOT
HETATM    1  N   UNL     1      62.837   6.981   4.872  1.00  0.00    -0.296 N 
ATOM      2  HN  UNL     1      62.001   6.524   4.506  1.00  0.00     0.187 HD
HETATM    3  C   UNL     1      63.341   8.176   4.533  1.00  0.00     0.069 A 
HETATM    4  C   UNL     1      64.489   8.491   5.298  1.00  0.00     0.081 A 
HETATM    5  C   UNL     1      64.676   7.421   6.138  1.00  0.00     0.117 A 
HETATM    6  N   UNL     1      63.692   6.522   5.808  1.00  0.00    -0.281 N 
HETATM    7  C   UNL     1      63.535   5.181   6.316  1.00  0.00     0.179 C 
ENDROOT
BRANCH   3   8
HETATM    8  C   UNL     1      62.724   9.025   3.460  1.00  0.00     0.033 A 
HETATM    9  S   UNL     1      62.136  10.611   3.702  1.00  0.00    -0.100 SA
HETATM   10  C   UNL     1      61.707  10.774   2.053  1.00  0.00     0.050 A 
HETATM   11  C   UNL     1      61.982   9.632   1.335  1.00  0.00     0.008 A 
HETATM   12  C   UNL     1      62.573   8.620   2.149  1.00  0.00     0.021 A 
ENDBRANCH   3   8
BRANCH   5  13
HETATM   13  N   UNL     1      65.610   7.210   7.090  1.00  0.00    -0.384 N 
HETATM   14  H   UNL     1      66.558   7.120   6.838  1.00  0.00     0.157 HD
HETATM   15  H   UNL     1      65.343   7.146   8.036  1.00  0.00     0.157 HD
ENDBRANCH   5  13
TORSDOF 2
ENDMDL
MODEL 7
REMARK VINA RESULT:      -4.0      1.592      1.953
REMARK  2 active torsions:
REMARK  status: ('A' for Active; 'I' for Inactive)
REMARK    1  A    between atoms: C_3  and  C_7 
REMARK    2  A    between atoms: C_5  and  N_11 
ROOT
HETATM    1  N   UNL     1      65.368   6.762   4.296  1.00  0.00    -0.296 N 
ATOM      2  HN  UNL     1      64.886   6.311   3.518  1.00  0.00     0.187 HD
HETATM    3  C   UNL     1      65.038   7.899   4.925  1.00  0.00     0.069 A 
HETATM    4  C   UNL     1      65.925   8.178   5.992  1.00  0.00     0.081 A 
HETATM    5  C   UNL     1      66.833   7.147   5.994  1.00  0.00     0.117 A 
HETATM    6  N   UNL     1      66.487   6.354   4.928  1.00  0.00    -0.281 N 
HETATM    7  C   UNL     1      67.209   5.211   4.425  1.00  0.00     0.179 C 
ENDROOT
BRANCH   3   8
HETATM    8  C   UNL     1      63.867   8.734   4.499  1.00  0.00     0.033 A 
HETATM    9  S   UNL     1      62.866   8.383   3.158  1.00  0.00    -0.100 SA
HETATM   10  C   UNL     1      61.868   9.738   3.465  1.00  0.00     0.050 A 
HETATM   11  C   UNL     1      62.303  10.463   4.552  1.00  0.00     0.008 A 
HETATM   12  C   UNL     1      63.459   9.880   5.153  1.00  0.00     0.021 A 
ENDBRANCH   3   8
BRANCH   5  13
HETATM   13  N   UNL     1      67.879   6.906   6.813  1.00  0.00    -0.384 N 
HETATM   14  H   UNL     1      68.571   7.594   6.944  1.00  0.00     0.157 HD
HETATM   15  H   UNL     1      67.949   6.041   7.280  1.00  0.00     0.157 HD
ENDBRANCH   5  13
TORSDOF 2
ENDMDL
MODEL 8
REMARK VINA RESULT:      -3.8      2.616      5.261
REMARK  2 active torsions:
REMARK  status: ('A' for Active; 'I' for Inactive)
REMARK    1  A    between atoms: C_3  and  C_7 
REMARK    2  A    between atoms: C_5  and  N_11 
ROOT
HETATM    1  N   UNL     1      64.596   8.416   6.109  1.00  0.00    -0.296 N 
ATOM      2  HN  UNL     1      64.676   8.889   7.010  1.00  0.00     0.187 HD
HETATM    3  C   UNL     1      65.234   7.312   5.696  1.00  0.00     0.069 A 
HETATM    4  C   UNL     1      64.822   6.930   4.397  1.00  0.00     0.081 A 
HETATM    5  C   UNL     1      63.886   7.861   4.020  1.00  0.00     0.117 A 
HETATM    6  N   UNL     1      63.824   8.758   5.058  1.00  0.00    -0.281 N 
HETATM    7  C   UNL     1      63.081   9.993   5.094  1.00  0.00     0.179 C 
ENDROOT
BRANCH   3   8
HETATM    8  C   UNL     1      66.256   6.618   6.547  1.00  0.00     0.033 A 
HETATM    9  S   UNL     1      67.321   5.406   5.983  1.00  0.00    -0.100 SA
HETATM   10  C   UNL     1      68.075   5.264   7.513  1.00  0.00     0.050 A 
HETATM   11  C   UNL     1      67.510   6.105   8.445  1.00  0.00     0.008 A 
HETATM   12  C   UNL     1      66.459   6.891   7.886  1.00  0.00     0.021 A 
ENDBRANCH   3   8
BRANCH   5  13
HETATM   13  N   UNL     1      63.158   7.958   2.886  1.00  0.00    -0.384 N 
HETATM   14  H   UNL     1      63.497   7.566   2.049  1.00  0.00     0.157 HD
HETATM   15  H   UNL     1      62.290   8.422   2.897  1.00  0.00     0.157 HD
ENDBRANCH   5  13
TORSDOF 2
ENDMDL
MODEL 9
REMARK VINA RESULT:      -3.7      2.734      5.172
REMARK  2 active torsions:
REMARK  status: ('A' for Active; 'I' for Inactive)
REMARK    1  A    between atoms: C_3  and  C_7 
REMARK    2  A    between atoms: C_5  and  N_11 
ROOT
HETATM    1  N   UNL     1      62.218   7.336   4.564  1.00  0.00    -0.296 N 
ATOM      2  HN  UNL     1      62.046   6.346   4.739  1.00  0.00     0.187 HD
HETATM    3  C   UNL     1      63.278   8.069   4.936  1.00  0.00     0.069 A 
HETATM    4  C   UNL     1      63.180   9.399   4.464  1.00  0.00     0.081 A 
HETATM    5  C   UNL     1      61.995   9.458   3.773  1.00  0.00     0.117 A 
HETATM    6  N   UNL     1      61.433   8.212   3.906  1.00  0.00    -0.281 N 
HETATM    7  C   UNL     1      60.122   7.800   3.468  1.00  0.00     0.179 C 
ENDROOT
BRANCH   3   8
HETATM    8  C   UNL     1      64.393   7.495   5.759  1.00  0.00     0.033 A 
HETATM    9  S   UNL     1      65.990   8.102   5.780  1.00  0.00    -0.100 SA
HETATM   10  C   UNL     1      66.486   6.945   6.939  1.00  0.00     0.050 A 
HETATM   11  C   UNL     1      65.462   6.092   7.285  1.00  0.00     0.008 A 
HETATM   12  C   UNL     1      64.249   6.412   6.604  1.00  0.00     0.021 A 
ENDBRANCH   3   8
BRANCH   5  13
HETATM   13  N   UNL     1      61.424  10.482   3.103  1.00  0.00    -0.384 N 
HETATM   14  H   UNL     1      61.930  11.313   2.949  1.00  0.00     0.157 HD
HETATM   15  H   UNL     1      60.502  10.398   2.768  1.00  0.00     0.157 HD
ENDBRANCH   5  13
TORSDOF 2
ENDMDL
