MODEL 1
REMARK VINA RESULT:      -3.9      0.000      0.000
REMARK  0 active torsions:
REMARK  status: ('A' for Active; 'I' for Inactive)
ROOT
HETATM    1  N   UNL     1      61.673  11.222   3.226  1.00  0.00    -0.304 N 
ATOM      2  HN  UNL     1      61.140  11.655   2.471  1.00  0.00     0.186 HD
HETATM    3  C   UNL     1      62.787   9.719   4.533  1.00  0.00     0.075 A 
HETATM    4  C   UNL     1      62.833  10.938   5.159  1.00  0.00     0.115 A 
HETATM    5  N   UNL     1      62.156  11.801   4.341  1.00  0.00    -0.286 N 
HETATM    6  C   UNL     1      62.056   9.944   3.340  1.00  0.00     0.025 A 
HETATM    7  N   UNL     1      63.390  11.324   6.320  1.00  0.00    -0.384 N 
HETATM    8  C   UNL     1      61.710   8.949   2.298  1.00  0.00     0.070 C 
HETATM    9  H   UNL     1      62.033  12.755   4.550  1.00  0.00     0.188 HD
HETATM   10  H   UNL     1      63.869  10.669   6.878  1.00  0.00     0.157 HD
HETATM   11  H   UNL     1      63.319  12.261   6.612  1.00  0.00     0.157 HD
ENDROOT
TORSDOF 0
ENDMDL
MODEL 2
REMARK VINA RESULT:      -3.8      1.519      1.994
REMARK  0 active torsions:
REMARK  status: ('A' for Active; 'I' for Inactive)
ROOT
HETATM    1  N   UNL     1      62.531  11.509   4.915  1.00  0.00    -0.304 N 
ATOM      2  HN  UNL     1      62.416  12.513   5.060  1.00  0.00     0.186 HD
HETATM    3  C   UNL     1      62.558   9.422   3.993  1.00  0.00     0.075 A 
HETATM    4  C   UNL     1      63.018   9.319   5.280  1.00  0.00     0.115 A 
HETATM    5  N   UNL     1      62.984  10.589   5.788  1.00  0.00    -0.286 N 
HETATM    6  C   UNL     1      62.267  10.797   3.812  1.00  0.00     0.025 A 
HETATM    7  N   UNL     1      63.439   8.263   5.995  1.00  0.00    -0.384 N 
HETATM    8  C   UNL     1      61.732  11.450   2.594  1.00  0.00     0.070 C 
HETATM    9  H   UNL     1      63.262  10.809   6.706  1.00  0.00     0.188 HD
HETATM   10  H   UNL     1      63.447   7.365   5.589  1.00  0.00     0.157 HD
HETATM   11  H   UNL     1      63.738   8.385   6.925  1.00  0.00     0.157 HD
ENDROOT
TORSDOF 0
ENDMDL
MODEL 3
REMARK VINA RESULT:      -3.5      1.539      3.258
REMARK  0 active torsions:
REMARK  status: ('A' for Active; 'I' for Inactive)
ROOT
HETATM    1  N   UNL     1      61.754  11.588   3.209  1.00  0.00    -0.304 N 
ATOM      2  HN  UNL     1      61.567  12.551   3.489  1.00  0.00     0.186 HD
HETATM    3  C   UNL     1      62.409   9.402   3.197  1.00  0.00     0.075 A 
HETATM    4  C   UNL     1      61.865   9.685   1.971  1.00  0.00     0.115 A 
HETATM    5  N   UNL     1      61.489  11.000   2.027  1.00  0.00    -0.286 N 
HETATM    6  C   UNL     1      62.319  10.611   3.930  1.00  0.00     0.025 A 
HETATM    7  N   UNL     1      61.686   8.925   0.878  1.00  0.00    -0.384 N 
HETATM    8  C   UNL     1      62.773  10.856   5.319  1.00  0.00     0.070 C 
HETATM    9  H   UNL     1      61.067  11.471   1.273  1.00  0.00     0.188 HD
HETATM   10  H   UNL     1      61.972   7.982   0.881  1.00  0.00     0.157 HD
HETATM   11  H   UNL     1      61.270   9.310   0.073  1.00  0.00     0.157 HD
ENDROOT
TORSDOF 0
ENDMDL
MODEL 4
REMARK VINA RESULT:      -3.5      1.191      2.697
REMARK  0 active torsions:
REMARK  status: ('A' for Active; 'I' for Inactive)
ROOT
HETATM    1  N   UNL     1      63.107  10.294   5.674  1.00  0.00    -0.304 N 
ATOM      2  HN  UNL     1      63.437  10.470   6.623  1.00  0.00     0.186 HD
HETATM    3  C   UNL     1      62.625   9.306   3.674  1.00  0.00     0.075 A 
HETATM    4  C   UNL     1      62.158  10.595   3.630  1.00  0.00     0.115 A 
HETATM    5  N   UNL     1      62.469  11.143   4.845  1.00  0.00    -0.286 N 
HETATM    6  C   UNL     1      63.205   9.166   4.959  1.00  0.00     0.025 A 
HETATM    7  N   UNL     1      61.522  11.280   2.666  1.00  0.00    -0.384 N 
HETATM    8  C   UNL     1      63.864   7.964   5.521  1.00  0.00     0.070 C 
HETATM    9  H   UNL     1      62.249  12.070   5.089  1.00  0.00     0.188 HD
HETATM   10  H   UNL     1      61.318  10.846   1.806  1.00  0.00     0.157 HD
HETATM   11  H   UNL     1      61.260  12.217   2.819  1.00  0.00     0.157 HD
ENDROOT
TORSDOF 0
ENDMDL
MODEL 5
REMARK VINA RESULT:      -3.3      2.041      2.744
REMARK  0 active torsions:
REMARK  status: ('A' for Active; 'I' for Inactive)
ROOT
HETATM    1  N   UNL     1      61.812   9.406   3.884  1.00  0.00    -0.304 N 
ATOM      2  HN  UNL     1      61.724   8.948   4.791  1.00  0.00     0.186 HD
HETATM    3  C   UNL     1      62.150   9.816   1.665  1.00  0.00     0.075 A 
HETATM    4  C   UNL     1      61.830  11.005   2.268  1.00  0.00     0.115 A 
HETATM    5  N   UNL     1      61.637  10.709   3.590  1.00  0.00    -0.286 N 
HETATM    6  C   UNL     1      62.128   8.855   2.705  1.00  0.00     0.025 A 
HETATM    7  N   UNL     1      61.703  12.248   1.777  1.00  0.00    -0.384 N 
HETATM    8  C   UNL     1      62.411   7.404   2.595  1.00  0.00     0.070 C 
HETATM    9  H   UNL     1      61.396  11.385   4.263  1.00  0.00     0.188 HD
HETATM   10  H   UNL     1      61.851  12.416   0.817  1.00  0.00     0.157 HD
HETATM   11  H   UNL     1      61.463  12.992   2.375  1.00  0.00     0.157 HD
ENDROOT
TORSDOF 0
ENDMDL
MODEL 6
REMARK VINA RESULT:      -3.3      4.041      4.842
REMARK  0 active torsions:
REMARK  status: ('A' for Active; 'I' for Inactive)
ROOT
HETATM    1  N   UNL     1      63.983   7.476   6.469  1.00  0.00    -0.304 N 
ATOM      2  HN  UNL     1      62.995   7.333   6.681  1.00  0.00     0.186 HD
HETATM    3  C   UNL     1      65.937   8.079   5.456  1.00  0.00     0.075 A 
HETATM    4  C   UNL     1      66.249   7.451   6.634  1.00  0.00     0.115 A 
HETATM    5  N   UNL     1      65.052   7.111   7.201  1.00  0.00    -0.286 N 
HETATM    6  C   UNL     1      64.521   8.069   5.396  1.00  0.00     0.025 A 
HETATM    7  N   UNL     1      67.431   7.174   7.210  1.00  0.00    -0.384 N 
HETATM    8  C   UNL     1      63.664   8.618   4.319  1.00  0.00     0.070 C 
HETATM    9  H   UNL     1      64.980   6.641   8.063  1.00  0.00     0.188 HD
HETATM   10  H   UNL     1      68.270   7.437   6.765  1.00  0.00     0.157 HD
HETATM   11  H   UNL     1      67.458   6.706   8.075  1.00  0.00     0.157 HD
ENDROOT
TORSDOF 0
ENDMDL
MODEL 7
REMARK VINA RESULT:      -3.2      1.723      1.825
REMARK  0 active torsions:
REMARK  status: ('A' for Active; 'I' for Inactive)
ROOT
HETATM    1  N   UNL     1      62.485   9.233   3.459  1.00  0.00    -0.304 N 
ATOM      2  HN  UNL     1      61.908   9.010   2.647  1.00  0.00     0.186 HD
HETATM    3  C   UNL     1      64.026   9.135   5.138  1.00  0.00     0.075 A 
HETATM    4  C   UNL     1      63.369  10.334   5.239  1.00  0.00     0.115 A 
HETATM    5  N   UNL     1      62.460  10.345   4.217  1.00  0.00    -0.286 N 
HETATM    6  C   UNL     1      63.444   8.486   4.021  1.00  0.00     0.025 A 
HETATM    7  N   UNL     1      63.499  11.352   6.106  1.00  0.00    -0.384 N 
HETATM    8  C   UNL     1      63.786   7.151   3.478  1.00  0.00     0.070 C 
HETATM    9  H   UNL     1      61.845  11.096   4.052  1.00  0.00     0.188 HD
HETATM   10  H   UNL     1      64.167  11.301   6.829  1.00  0.00     0.157 HD
HETATM   11  H   UNL     1      62.926  12.147   6.020  1.00  0.00     0.157 HD
ENDROOT
TORSDOF 0
ENDMDL
MODEL 8
REMARK VINA RESULT:      -3.1      2.537      3.806
REMARK  0 active torsions:
REMARK  status: ('A' for Active; 'I' for Inactive)
ROOT
HETATM    1  N   UNL     1      61.162   9.845   3.254  1.00  0.00    -0.304 N 
ATOM      2  HN  UNL     1      60.769  10.332   4.060  1.00  0.00     0.186 HD
HETATM    3  C   UNL     1      62.148   9.376   1.250  1.00  0.00     0.075 A 
HETATM    4  C   UNL     1      61.834   8.186   1.854  1.00  0.00     0.115 A 
HETATM    5  N   UNL     1      61.248   8.518   3.046  1.00  0.00    -0.286 N 
HETATM    6  C   UNL     1      61.711  10.376   2.154  1.00  0.00     0.025 A 
HETATM    7  N   UNL     1      62.012   6.913   1.463  1.00  0.00    -0.384 N 
HETATM    8  C   UNL     1      61.806  11.845   1.982  1.00  0.00     0.070 C 
HETATM    9  H   UNL     1      60.920   7.849   3.689  1.00  0.00     0.188 HD
HETATM   10  H   UNL     1      62.438   6.719   0.596  1.00  0.00     0.157 HD
HETATM   11  H   UNL     1      61.715   6.174   2.042  1.00  0.00     0.157 HD
ENDROOT
TORSDOF 0
ENDMDL
MODEL 9
REMARK VINA RESULT:      -2.9      2.828      3.613
REMARK  0 active torsions:
REMARK  status: ('A' for Active; 'I' for Inactive)
ROOT
HETATM    1  N   UNL     1      64.211   9.472   5.512  1.00  0.00    -0.304 N 
ATOM      2  HN  UNL     1      64.770  10.325   5.514  1.00  0.00     0.186 HD
HETATM    3  C   UNL     1      62.542   7.952   5.177  1.00  0.00     0.075 A 
HETATM    4  C   UNL     1      63.549   7.326   5.867  1.00  0.00     0.115 A 
HETATM    5  N   UNL     1      64.521   8.273   6.042  1.00  0.00    -0.286 N 
HETATM    6  C   UNL     1      62.996   9.279   4.981  1.00  0.00     0.025 A 
HETATM    7  N   UNL     1      63.669   6.069   6.323  1.00  0.00    -0.384 N 
HETATM    8  C   UNL     1      62.283  10.381   4.293  1.00  0.00     0.070 C 
HETATM    9  H   UNL     1      65.366   8.095   6.513  1.00  0.00     0.188 HD
HETATM   10  H   UNL     1      62.944   5.419   6.175  1.00  0.00     0.157 HD
HETATM   11  H   UNL     1      64.482   5.797   6.807  1.00  0.00     0.157 HD
ENDROOT
TORSDOF 0
ENDMDL
