MODEL 1
REMARK VINA RESULT:      -5.3      0.000      0.000
REMARK  3 active torsions:
REMARK  status: ('A' for Active; 'I' for Inactive)
REMARK    1  A    between atoms: S_1  and  C_2 
REMARK    2  A    between atoms: S_1  and  C_8 
REMARK    3  A    between atoms: C_3  and  N_10 
ROOT
HETATM    1  S   UNL     1      63.257   7.371   5.437  1.00  0.00     0.209 S 
HETATM    2  O   UNL     1      63.317   7.678   6.853  1.00  0.00    -0.217 OA
HETATM    3  O   UNL     1      62.457   6.269   4.928  1.00  0.00    -0.217 OA
ENDROOT
BRANCH   1   4
HETATM    4  C   UNL     1      64.883   6.971   4.981  1.00  0.00     0.097 A 
HETATM    5  C   UNL     1      66.067   7.563   5.515  1.00  0.00     0.054 A 
HETATM    6  C   UNL     1      67.207   7.070   4.923  1.00  0.00     0.080 A 
HETATM    7  S   UNL     1      66.862   5.845   3.780  1.00  0.00    -0.110 SA
HETATM    8  C   UNL     1      65.179   5.996   4.048  1.00  0.00     0.075 A 
BRANCH   5   9
HETATM    9  N   UNL     1      66.115   8.495   6.495  1.00  0.00    -0.397 N 
HETATM   10  H   UNL     1      66.808   9.194   6.478  1.00  0.00     0.156 HD
HETATM   11  H   UNL     1      65.455   8.474   7.226  1.00  0.00     0.156 HD
ENDBRANCH   5   9
ENDBRANCH   1   4
BRANCH   1  12
HETATM   12  C   UNL     1      62.814   8.848   4.563  1.00  0.00     0.064 A 
HETATM   13  C   UNL     1      62.379   8.767   3.235  1.00  0.00     0.024 A 
HETATM   14  C   UNL     1      61.944   9.919   2.576  1.00  0.00     0.002 A 
HETATM   15  C   UNL     1      61.944  11.148   3.241  1.00  0.00     0.000 A 
HETATM   16  C   UNL     1      62.378  11.226   4.564  1.00  0.00     0.002 A 
HETATM   17  C   UNL     1      62.810  10.077   5.231  1.00  0.00     0.024 A 
ENDBRANCH   1  12
TORSDOF 3
ENDMDL
MODEL 2
REMARK VINA RESULT:      -5.3      1.443      1.664
REMARK  3 active torsions:
REMARK  status: ('A' for Active; 'I' for Inactive)
REMARK    1  A    between atoms: S_1  and  C_2 
REMARK    2  A    between atoms: S_1  and  C_8 
REMARK    3  A    between atoms: C_3  and  N_10 
ROOT
HETATM    1  S   UNL     1      63.154   7.715   5.205  1.00  0.00     0.209 S 
HETATM    2  O   UNL     1      62.979   8.116   6.587  1.00  0.00    -0.217 OA
HETATM    3  O   UNL     1      62.554   6.499   4.680  1.00  0.00    -0.217 OA
ENDROOT
BRANCH   1   4
HETATM    4  C   UNL     1      64.861   7.476   5.004  1.00  0.00     0.097 A 
HETATM    5  C   UNL     1      65.476   6.687   3.984  1.00  0.00     0.054 A 
HETATM    6  C   UNL     1      66.845   6.652   4.111  1.00  0.00     0.080 A 
HETATM    7  S   UNL     1      67.400   7.624   5.405  1.00  0.00    -0.110 SA
HETATM    8  C   UNL     1      65.801   8.067   5.825  1.00  0.00     0.075 A 
BRANCH   5   9
HETATM    9  N   UNL     1      64.832   6.041   2.985  1.00  0.00    -0.397 N 
HETATM   10  H   UNL     1      65.296   5.862   2.135  1.00  0.00     0.156 HD
HETATM   11  H   UNL     1      63.901   5.748   3.108  1.00  0.00     0.156 HD
ENDBRANCH   5   9
ENDBRANCH   1   4
BRANCH   1  12
HETATM   12  C   UNL     1      62.688   9.074   4.165  1.00  0.00     0.064 A 
HETATM   13  C   UNL     1      62.451   8.858   2.802  1.00  0.00     0.024 A 
HETATM   14  C   UNL     1      61.995   9.909   2.003  1.00  0.00     0.002 A 
HETATM   15  C   UNL     1      61.779  11.171   2.562  1.00  0.00     0.000 A 
HETATM   16  C   UNL     1      62.017  11.383   3.920  1.00  0.00     0.002 A 
HETATM   17  C   UNL     1      62.467  10.336   4.727  1.00  0.00     0.024 A 
ENDBRANCH   1  12
TORSDOF 3
ENDMDL
MODEL 3
REMARK VINA RESULT:      -5.1      1.505      1.742
REMARK  3 active torsions:
REMARK  status: ('A' for Active; 'I' for Inactive)
REMARK    1  A    between atoms: S_1  and  C_2 
REMARK    2  A    between atoms: S_1  and  C_8 
REMARK    3  A    between atoms: C_3  and  N_10 
ROOT
HETATM    1  S   UNL     1      64.821   7.910   5.885  1.00  0.00     0.209 S 
HETATM    2  O   UNL     1      65.954   8.755   6.206  1.00  0.00    -0.217 OA
HETATM    3  O   UNL     1      64.009   7.295   6.923  1.00  0.00    -0.217 OA
ENDROOT
BRANCH   1   4
HETATM    4  C   UNL     1      65.478   6.570   5.000  1.00  0.00     0.097 A 
HETATM    5  C   UNL     1      66.725   6.564   4.304  1.00  0.00     0.054 A 
HETATM    6  C   UNL     1      66.953   5.370   3.659  1.00  0.00     0.080 A 
HETATM    7  S   UNL     1      65.709   4.231   3.948  1.00  0.00    -0.110 SA
HETATM    8  C   UNL     1      64.840   5.347   4.910  1.00  0.00     0.075 A 
BRANCH   5   9
HETATM    9  N   UNL     1      67.615   7.581   4.263  1.00  0.00    -0.397 N 
HETATM   10  H   UNL     1      67.447   8.404   4.778  1.00  0.00     0.156 HD
HETATM   11  H   UNL     1      68.432   7.499   3.719  1.00  0.00     0.156 HD
ENDBRANCH   5   9
ENDBRANCH   1   4
BRANCH   1  12
HETATM   12  C   UNL     1      63.755   8.798   4.781  1.00  0.00     0.064 A 
HETATM   13  C   UNL     1      63.402   8.233   3.549  1.00  0.00     0.024 A 
HETATM   14  C   UNL     1      62.492   8.892   2.720  1.00  0.00     0.002 A 
HETATM   15  C   UNL     1      61.937  10.110   3.119  1.00  0.00     0.000 A 
HETATM   16  C   UNL     1      62.291  10.671   4.346  1.00  0.00     0.002 A 
HETATM   17  C   UNL     1      63.196  10.016   5.183  1.00  0.00     0.024 A 
ENDBRANCH   1  12
TORSDOF 3
ENDMDL
MODEL 4
REMARK VINA RESULT:      -5.1      1.425      1.549
REMARK  3 active torsions:
REMARK  status: ('A' for Active; 'I' for Inactive)
REMARK    1  A    between atoms: S_1  and  C_2 
REMARK    2  A    between atoms: S_1  and  C_8 
REMARK    3  A    between atoms: C_3  and  N_10 
ROOT
HETATM    1  S   UNL     1      63.059   7.390   5.604  1.00  0.00     0.209 S 
HETATM    2  O   UNL     1      62.686   7.956   6.885  1.00  0.00    -0.217 OA
HETATM    3  O   UNL     1      62.567   6.093   5.170  1.00  0.00    -0.217 OA
ENDROOT
BRANCH   1   4
HETATM    4  C   UNL     1      64.782   7.200   5.664  1.00  0.00     0.097 A 
HETATM    5  C   UNL     1      65.479   6.119   6.284  1.00  0.00     0.054 A 
HETATM    6  C   UNL     1      66.844   6.269   6.207  1.00  0.00     0.080 A 
HETATM    7  S   UNL     1      67.292   7.666   5.326  1.00  0.00    -0.110 SA
HETATM    8  C   UNL     1      65.655   8.096   5.077  1.00  0.00     0.075 A 
BRANCH   5   9
HETATM    9  N   UNL     1      64.909   5.047   6.881  1.00  0.00    -0.397 N 
HETATM   10  H   UNL     1      64.703   5.070   7.844  1.00  0.00     0.156 HD
HETATM   11  H   UNL     1      64.700   4.243   6.352  1.00  0.00     0.156 HD
ENDBRANCH   5   9
ENDBRANCH   1   4
BRANCH   1  12
HETATM   12  C   UNL     1      62.705   8.584   4.341  1.00  0.00     0.064 A 
HETATM   13  C   UNL     1      62.575   8.171   3.010  1.00  0.00     0.024 A 
HETATM   14  C   UNL     1      62.206   9.095   2.030  1.00  0.00     0.002 A 
HETATM   15  C   UNL     1      61.971  10.427   2.379  1.00  0.00     0.000 A 
HETATM   16  C   UNL     1      62.102  10.836   3.705  1.00  0.00     0.002 A 
HETATM   17  C   UNL     1      62.465   9.917   4.692  1.00  0.00     0.024 A 
ENDBRANCH   1  12
TORSDOF 3
ENDMDL
MODEL 5
REMARK VINA RESULT:      -5.0      1.652      4.810
REMARK  3 active torsions:
REMARK  status: ('A' for Active; 'I' for Inactive)
REMARK    1  A    between atoms: S_1  and  C_2 
REMARK    2  A    between atoms: S_1  and  C_8 
REMARK    3  A    between atoms: C_3  and  N_10 
ROOT
HETATM    1  S   UNL     1      63.188   7.281   5.653  1.00  0.00     0.209 S 
HETATM    2  O   UNL     1      62.636   6.038   5.151  1.00  0.00    -0.217 OA
HETATM    3  O   UNL     1      62.809   7.815   6.951  1.00  0.00    -0.217 OA
ENDROOT
BRANCH   1   4
HETATM    4  C   UNL     1      62.691   8.500   4.522  1.00  0.00     0.097 A 
HETATM    5  C   UNL     1      62.690   9.907   4.764  1.00  0.00     0.054 A 
HETATM    6  C   UNL     1      62.199  10.617   3.692  1.00  0.00     0.080 A 
HETATM    7  S   UNL     1      61.811   9.603   2.369  1.00  0.00    -0.110 SA
HETATM    8  C   UNL     1      62.264   8.204   3.242  1.00  0.00     0.075 A 
BRANCH   5   9
HETATM    9  N   UNL     1      63.120  10.519   5.891  1.00  0.00    -0.397 N 
HETATM   10  H   UNL     1      62.476  10.972   6.482  1.00  0.00     0.156 HD
HETATM   11  H   UNL     1      64.077  10.510   6.121  1.00  0.00     0.156 HD
ENDBRANCH   5   9
ENDBRANCH   1   4
BRANCH   1  12
HETATM   12  C   UNL     1      64.957   7.180   5.574  1.00  0.00     0.064 A 
HETATM   13  C   UNL     1      65.703   7.113   6.756  1.00  0.00     0.024 A 
HETATM   14  C   UNL     1      67.088   6.941   6.693  1.00  0.00     0.002 A 
HETATM   15  C   UNL     1      67.724   6.838   5.454  1.00  0.00     0.000 A 
HETATM   16  C   UNL     1      66.978   6.906   4.277  1.00  0.00     0.002 A 
HETATM   17  C   UNL     1      65.593   7.072   4.333  1.00  0.00     0.024 A 
ENDBRANCH   1  12
TORSDOF 3
ENDMDL
MODEL 6
REMARK VINA RESULT:      -4.9      2.591      3.527
REMARK  3 active torsions:
REMARK  status: ('A' for Active; 'I' for Inactive)
REMARK    1  A    between atoms: S_1  and  C_2 
REMARK    2  A    between atoms: S_1  and  C_8 
REMARK    3  A    between atoms: C_3  and  N_10 
ROOT
HETATM    1  S   UNL     1      66.707   8.023   5.651  1.00  0.00     0.209 S 
HETATM    2  O   UNL     1      67.755   8.208   4.667  1.00  0.00    -0.217 OA
HETATM    3  O   UNL     1      66.583   8.896   6.807  1.00  0.00    -0.217 OA
ENDROOT
BRANCH   1   4
HETATM    4  C   UNL     1      66.979   6.448   6.327  1.00  0.00     0.097 A 
HETATM    5  C   UNL     1      66.570   6.018   7.626  1.00  0.00     0.054 A 
HETATM    6  C   UNL     1      66.968   4.728   7.894  1.00  0.00     0.080 A 
HETATM    7  S   UNL     1      67.764   4.007   6.563  1.00  0.00    -0.110 SA
HETATM    8  C   UNL     1      67.612   5.435   5.633  1.00  0.00     0.075 A 
BRANCH   5   9
HETATM    9  N   UNL     1      65.866   6.751   8.518  1.00  0.00    -0.397 N 
HETATM   10  H   UNL     1      65.698   7.706   8.349  1.00  0.00     0.156 HD
HETATM   11  H   UNL     1      65.520   6.328   9.338  1.00  0.00     0.156 HD
ENDBRANCH   5   9
ENDBRANCH   1   4
BRANCH   1  12
HETATM   12  C   UNL     1      65.149   7.971   4.807  1.00  0.00     0.064 A 
HETATM   13  C   UNL     1      64.208   8.986   5.019  1.00  0.00     0.024 A 
HETATM   14  C   UNL     1      63.020   8.995   4.286  1.00  0.00     0.002 A 
HETATM   15  C   UNL     1      62.771   7.992   3.345  1.00  0.00     0.000 A 
HETATM   16  C   UNL     1      63.709   6.982   3.136  1.00  0.00     0.002 A 
HETATM   17  C   UNL     1      64.903   6.970   3.861  1.00  0.00     0.024 A 
ENDBRANCH   1  12
TORSDOF 3
ENDMDL
MODEL 7
REMARK VINA RESULT:      -4.5      2.354      3.240
REMARK  3 active torsions:
REMARK  status: ('A' for Active; 'I' for Inactive)
REMARK    1  A    between atoms: S_1  and  C_2 
REMARK    2  A    between atoms: S_1  and  C_8 
REMARK    3  A    between atoms: C_3  and  N_10 
ROOT
HETATM    1  S   UNL     1      64.330   7.513   5.208  1.00  0.00     0.209 S 
HETATM    2  O   UNL     1      65.036   6.815   4.152  1.00  0.00    -0.217 OA
HETATM    3  O   UNL     1      65.016   7.991   6.398  1.00  0.00    -0.217 OA
ENDROOT
BRANCH   1   4
HETATM    4  C   UNL     1      63.159   6.384   5.810  1.00  0.00     0.097 A 
HETATM    5  C   UNL     1      63.377   4.986   6.009  1.00  0.00     0.054 A 
HETATM    6  C   UNL     1      62.245   4.343   6.455  1.00  0.00     0.080 A 
HETATM    7  S   UNL     1      60.944   5.425   6.706  1.00  0.00    -0.110 SA
HETATM    8  C   UNL     1      61.882   6.757   6.183  1.00  0.00     0.075 A 
BRANCH   5   9
HETATM    9  N   UNL     1      64.542   4.329   5.807  1.00  0.00    -0.397 N 
HETATM   10  H   UNL     1      65.371   4.654   6.227  1.00  0.00     0.156 HD
HETATM   11  H   UNL     1      64.560   3.523   5.241  1.00  0.00     0.156 HD
ENDBRANCH   5   9
ENDBRANCH   1   4
BRANCH   1  12
HETATM   12  C   UNL     1      63.436   8.864   4.486  1.00  0.00     0.064 A 
HETATM   13  C   UNL     1      62.874   8.723   3.212  1.00  0.00     0.024 A 
HETATM   14  C   UNL     1      62.093   9.753   2.681  1.00  0.00     0.002 A 
HETATM   15  C   UNL     1      61.877  10.918   3.420  1.00  0.00     0.000 A 
HETATM   16  C   UNL     1      62.439  11.056   4.689  1.00  0.00     0.002 A 
HETATM   17  C   UNL     1      63.216  10.029   5.228  1.00  0.00     0.024 A 
ENDBRANCH   1  12
TORSDOF 3
ENDMDL
MODEL 8
REMARK VINA RESULT:      -4.5      3.593      5.261
REMARK  3 active torsions:
REMARK  status: ('A' for Active; 'I' for Inactive)
REMARK    1  A    between atoms: S_1  and  C_2 
REMARK    2  A    between atoms: S_1  and  C_8 
REMARK    3  A    between atoms: C_3  and  N_10 
ROOT
HETATM    1  S   UNL     1      62.274   8.100   1.560  1.00  0.00     0.209 S 
HETATM    2  O   UNL     1      62.322   8.869   0.333  1.00  0.00    -0.217 OA
HETATM    3  O   UNL     1      63.113   6.929   1.760  1.00  0.00    -0.217 OA
ENDROOT
BRANCH   1   4
HETATM    4  C   UNL     1      60.653   7.492   1.665  1.00  0.00     0.097 A 
HETATM    5  C   UNL     1      60.190   6.510   2.593  1.00  0.00     0.054 A 
HETATM    6  C   UNL     1      58.864   6.200   2.402  1.00  0.00     0.080 A 
HETATM    7  S   UNL     1      58.153   7.139   1.161  1.00  0.00    -0.110 SA
HETATM    8  C   UNL     1      59.632   7.940   0.849  1.00  0.00     0.075 A 
BRANCH   5   9
HETATM    9  N   UNL     1      60.928   5.932   3.569  1.00  0.00    -0.397 N 
HETATM   10  H   UNL     1      60.594   5.126   4.026  1.00  0.00     0.156 HD
HETATM   11  H   UNL     1      61.799   6.316   3.820  1.00  0.00     0.156 HD
ENDBRANCH   5   9
ENDBRANCH   1   4
BRANCH   1  12
HETATM   12  C   UNL     1      62.510   9.208   2.924  1.00  0.00     0.064 A 
HETATM   13  C   UNL     1      61.916  10.475   2.902  1.00  0.00     0.024 A 
HETATM   14  C   UNL     1      62.026  11.312   4.015  1.00  0.00     0.002 A 
HETATM   15  C   UNL     1      62.729  10.886   5.144  1.00  0.00     0.000 A 
HETATM   16  C   UNL     1      63.321   9.623   5.163  1.00  0.00     0.002 A 
HETATM   17  C   UNL     1      63.210   8.778   4.057  1.00  0.00     0.024 A 
ENDBRANCH   1  12
TORSDOF 3
ENDMDL
MODEL 9
REMARK VINA RESULT:      -4.5      2.739      3.745
REMARK  3 active torsions:
REMARK  status: ('A' for Active; 'I' for Inactive)
REMARK    1  A    between atoms: S_1  and  C_2 
REMARK    2  A    between atoms: S_1  and  C_8 
REMARK    3  A    between atoms: C_3  and  N_10 
ROOT
HETATM    1  S   UNL     1      63.218   7.158   3.578  1.00  0.00     0.209 S 
HETATM    2  O   UNL     1      63.226   6.296   2.413  1.00  0.00    -0.217 OA
HETATM    3  O   UNL     1      64.408   7.356   4.390  1.00  0.00    -0.217 OA
ENDROOT
BRANCH   1   4
HETATM    4  C   UNL     1      62.063   6.457   4.666  1.00  0.00     0.097 A 
HETATM    5  C   UNL     1      61.965   6.730   6.064  1.00  0.00     0.054 A 
HETATM    6  C   UNL     1      60.978   5.987   6.670  1.00  0.00     0.080 A 
HETATM    7  S   UNL     1      60.119   5.019   5.550  1.00  0.00    -0.110 SA
HETATM    8  C   UNL     1      61.093   5.564   4.253  1.00  0.00     0.075 A 
BRANCH   5   9
HETATM    9  N   UNL     1      62.722   7.612   6.755  1.00  0.00    -0.397 N 
HETATM   10  H   UNL     1      63.591   7.332   7.126  1.00  0.00     0.156 HD
HETATM   11  H   UNL     1      62.406   8.535   6.887  1.00  0.00     0.156 HD
ENDBRANCH   5   9
ENDBRANCH   1   4
BRANCH   1  12
HETATM   12  C   UNL     1      62.590   8.745   3.095  1.00  0.00     0.064 A 
HETATM   13  C   UNL     1      62.484   9.770   4.043  1.00  0.00     0.024 A 
HETATM   14  C   UNL     1      62.076  11.044   3.644  1.00  0.00     0.002 A 
HETATM   15  C   UNL     1      61.773  11.294   2.303  1.00  0.00     0.000 A 
HETATM   16  C   UNL     1      61.878  10.271   1.361  1.00  0.00     0.002 A 
HETATM   17  C   UNL     1      62.291   8.995   1.752  1.00  0.00     0.024 A 
ENDBRANCH   1  12
TORSDOF 3
ENDMDL
