MODEL 1
REMARK VINA RESULT:      -5.1      0.000      0.000
REMARK  2 active torsions:
REMARK  status: ('A' for Active; 'I' for Inactive)
REMARK    1  A    between atoms: C_4  and  C_7 
REMARK    2  A    between atoms: C_5  and  N_8 
ROOT
HETATM    1  C   UNL     1      66.261   7.617   5.769  1.00  0.00     0.081 A 
HETATM    2  N   UNL     1      64.353   7.228   6.950  1.00  0.00    -0.298 N 
ATOM      3  HN  UNL     1      63.377   7.169   7.242  1.00  0.00     0.187 HD
HETATM    4  C   UNL     1      64.837   7.658   5.772  1.00  0.00     0.062 A 
HETATM    5  C   UNL     1      66.620   7.122   6.994  1.00  0.00     0.115 A 
HETATM    6  N   UNL     1      65.447   6.895   7.656  1.00  0.00    -0.285 N 
HETATM    7  H   UNL     1      65.407   6.523   8.567  1.00  0.00     0.188 HD
ENDROOT
BRANCH   4   8
HETATM    8  C   UNL     1      63.958   8.102   4.688  1.00  0.00    -0.008 A 
HETATM    9  C   UNL     1      63.265   9.319   4.785  1.00  0.00     0.015 A 
HETATM   10  C   UNL     1      62.450   9.759   3.737  1.00  0.00     0.024 A 
HETATM   11  C   UNL     1      62.315   8.978   2.591  1.00  0.00     0.034 A 
HETATM   12  C   UNL     1      62.984   7.760   2.485  1.00  0.00     0.024 A 
HETATM   13 CL   UNL     1      61.321   9.520   1.296  1.00  0.00    -0.084 Cl
HETATM   14  C   UNL     1      63.803   7.324   3.531  1.00  0.00     0.015 A 
ENDBRANCH   4   8
BRANCH   5  15
HETATM   15  N   UNL     1      67.824   6.867   7.533  1.00  0.00    -0.384 N 
HETATM   16  H   UNL     1      68.073   7.273   8.394  1.00  0.00     0.157 HD
HETATM   17  H   UNL     1      68.455   6.272   7.068  1.00  0.00     0.157 HD
ENDBRANCH   5  15
TORSDOF 2
ENDMDL
MODEL 2
REMARK VINA RESULT:      -4.9      3.685      4.643
REMARK  2 active torsions:
REMARK  status: ('A' for Active; 'I' for Inactive)
REMARK    1  A    between atoms: C_4  and  C_7 
REMARK    2  A    between atoms: C_5  and  N_8 
ROOT
HETATM    1  C   UNL     1      62.721   9.624   4.733  1.00  0.00     0.081 A 
HETATM    2  N   UNL     1      61.558  11.018   3.358  1.00  0.00    -0.298 N 
ATOM      3  HN  UNL     1      60.982  11.394   2.605  1.00  0.00     0.187 HD
HETATM    4  C   UNL     1      61.860   9.731   3.604  1.00  0.00     0.062 A 
HETATM    5  C   UNL     1      62.912  10.905   5.177  1.00  0.00     0.115 A 
HETATM    6  N   UNL     1      62.189  11.697   4.332  1.00  0.00    -0.285 N 
HETATM    7  H   UNL     1      62.135  12.677   4.425  1.00  0.00     0.188 HD
ENDROOT
BRANCH   4   8
HETATM    8  C   UNL     1      61.345   8.642   2.772  1.00  0.00    -0.008 A 
HETATM    9  C   UNL     1      61.315   8.764   1.374  1.00  0.00     0.015 A 
HETATM   10  C   UNL     1      60.852   7.712   0.578  1.00  0.00     0.024 A 
HETATM   11  C   UNL     1      60.406   6.535   1.177  1.00  0.00     0.034 A 
HETATM   12  C   UNL     1      60.413   6.404   2.563  1.00  0.00     0.024 A 
HETATM   13 CL   UNL     1      59.844   5.235   0.200  1.00  0.00    -0.084 Cl
HETATM   14  C   UNL     1      60.882   7.454   3.358  1.00  0.00     0.015 A 
ENDBRANCH   4   8
BRANCH   5  15
HETATM   15  N   UNL     1      63.623  11.394   6.206  1.00  0.00    -0.384 N 
HETATM   16  H   UNL     1      63.378  11.157   7.129  1.00  0.00     0.157 HD
HETATM   17  H   UNL     1      64.389  11.989   6.036  1.00  0.00     0.157 HD
ENDBRANCH   5  15
TORSDOF 2
ENDMDL
MODEL 3
REMARK VINA RESULT:      -4.6      3.530      4.316
REMARK  2 active torsions:
REMARK  status: ('A' for Active; 'I' for Inactive)
REMARK    1  A    between atoms: C_4  and  C_7 
REMARK    2  A    between atoms: C_5  and  N_8 
ROOT
HETATM    1  C   UNL     1      63.539   9.491   4.994  1.00  0.00     0.081 A 
HETATM    2  N   UNL     1      62.083  10.223   3.403  1.00  0.00    -0.298 N 
ATOM      3  HN  UNL     1      61.521  10.311   2.556  1.00  0.00     0.187 HD
HETATM    4  C   UNL     1      62.913   9.222   3.744  1.00  0.00     0.062 A 
HETATM    5  C   UNL     1      63.036  10.695   5.409  1.00  0.00     0.115 A 
HETATM    6  N   UNL     1      62.165  11.084   4.432  1.00  0.00    -0.285 N 
HETATM    7  H   UNL     1      61.644  11.919   4.477  1.00  0.00     0.188 HD
ENDROOT
BRANCH   4   8
HETATM    8  C   UNL     1      63.103   8.048   2.888  1.00  0.00    -0.008 A 
HETATM    9  C   UNL     1      62.402   7.925   1.679  1.00  0.00     0.015 A 
HETATM   10  C   UNL     1      62.607   6.820   0.847  1.00  0.00     0.024 A 
HETATM   11  C   UNL     1      63.506   5.826   1.226  1.00  0.00     0.034 A 
HETATM   12  C   UNL     1      64.198   5.924   2.431  1.00  0.00     0.024 A 
HETATM   13 CL   UNL     1      63.768   4.469   0.201  1.00  0.00    -0.084 Cl
HETATM   14  C   UNL     1      63.997   7.032   3.260  1.00  0.00     0.015 A 
ENDBRANCH   4   8
BRANCH   5  15
HETATM   15  N   UNL     1      63.268  11.424   6.513  1.00  0.00    -0.384 N 
HETATM   16  H   UNL     1      63.853  12.214   6.467  1.00  0.00     0.157 HD
HETATM   17  H   UNL     1      62.852  11.168   7.367  1.00  0.00     0.157 HD
ENDBRANCH   5  15
TORSDOF 2
ENDMDL
MODEL 4
REMARK VINA RESULT:      -4.6      3.800      5.616
REMARK  2 active torsions:
REMARK  status: ('A' for Active; 'I' for Inactive)
REMARK    1  A    between atoms: C_4  and  C_7 
REMARK    2  A    between atoms: C_5  and  N_8 
ROOT
HETATM    1  C   UNL     1      63.214   9.496   4.660  1.00  0.00     0.081 A 
HETATM    2  N   UNL     1      63.648   7.734   3.283  1.00  0.00    -0.298 N 
ATOM      3  HN  UNL     1      64.039   6.887   2.871  1.00  0.00     0.187 HD
HETATM    4  C   UNL     1      63.965   8.302   4.460  1.00  0.00     0.062 A 
HETATM    5  C   UNL     1      62.410   9.617   3.559  1.00  0.00     0.115 A 
HETATM    6  N   UNL     1      62.697   8.537   2.774  1.00  0.00    -0.285 N 
HETATM    7  H   UNL     1      62.250   8.362   1.914  1.00  0.00     0.188 HD
ENDROOT
BRANCH   4   8
HETATM    8  C   UNL     1      64.964   7.719   5.358  1.00  0.00    -0.008 A 
HETATM    9  C   UNL     1      64.569   6.942   6.458  1.00  0.00     0.015 A 
HETATM   10  C   UNL     1      65.524   6.360   7.297  1.00  0.00     0.024 A 
HETATM   11  C   UNL     1      66.880   6.561   7.047  1.00  0.00     0.034 A 
HETATM   12  C   UNL     1      67.289   7.343   5.968  1.00  0.00     0.024 A 
HETATM   13 CL   UNL     1      68.058   5.839   8.071  1.00  0.00    -0.084 Cl
HETATM   14  C   UNL     1      66.333   7.920   5.127  1.00  0.00     0.015 A 
ENDBRANCH   4   8
BRANCH   5  15
HETATM   15  N   UNL     1      61.498  10.543   3.219  1.00  0.00    -0.384 N 
HETATM   16  H   UNL     1      61.400  10.814   2.279  1.00  0.00     0.157 HD
HETATM   17  H   UNL     1      60.929  10.950   3.912  1.00  0.00     0.157 HD
ENDBRANCH   5  15
TORSDOF 2
ENDMDL
MODEL 5
REMARK VINA RESULT:      -4.6      1.847      2.852
REMARK  2 active torsions:
REMARK  status: ('A' for Active; 'I' for Inactive)
REMARK    1  A    between atoms: C_4  and  C_7 
REMARK    2  A    between atoms: C_5  and  N_8 
ROOT
HETATM    1  C   UNL     1      66.400   5.106   7.719  1.00  0.00     0.081 A 
HETATM    2  N   UNL     1      67.196   7.222   7.993  1.00  0.00    -0.298 N 
ATOM      3  HN  UNL     1      67.343   8.229   7.927  1.00  0.00     0.187 HD
HETATM    4  C   UNL     1      66.243   6.485   7.398  1.00  0.00     0.062 A 
HETATM    5  C   UNL     1      67.482   5.041   8.555  1.00  0.00     0.115 A 
HETATM    6  N   UNL     1      67.914   6.329   8.697  1.00  0.00    -0.285 N 
HETATM    7  H   UNL     1      68.681   6.581   9.262  1.00  0.00     0.188 HD
ENDROOT
BRANCH   4   8
HETATM    8  C   UNL     1      65.220   7.087   6.540  1.00  0.00    -0.008 A 
HETATM    9  C   UNL     1      65.537   8.166   5.702  1.00  0.00     0.015 A 
HETATM   10  C   UNL     1      64.568   8.722   4.860  1.00  0.00     0.024 A 
HETATM   11  C   UNL     1      63.274   8.206   4.860  1.00  0.00     0.034 A 
HETATM   12  C   UNL     1      62.938   7.146   5.699  1.00  0.00     0.024 A 
HETATM   13 CL   UNL     1      62.082   8.881   3.819  1.00  0.00    -0.084 Cl
HETATM   14  C   UNL     1      63.909   6.588   6.536  1.00  0.00     0.015 A 
ENDBRANCH   4   8
BRANCH   5  15
HETATM   15  N   UNL     1      68.074   4.002   9.167  1.00  0.00    -0.384 N 
HETATM   16  H   UNL     1      67.738   3.687  10.036  1.00  0.00     0.157 HD
HETATM   17  H   UNL     1      68.843   3.556   8.744  1.00  0.00     0.157 HD
ENDBRANCH   5  15
TORSDOF 2
ENDMDL
MODEL 6
REMARK VINA RESULT:      -4.4      1.550      2.292
REMARK  2 active torsions:
REMARK  status: ('A' for Active; 'I' for Inactive)
REMARK    1  A    between atoms: C_4  and  C_7 
REMARK    2  A    between atoms: C_5  and  N_8 
ROOT
HETATM    1  C   UNL     1      65.279   7.395   4.403  1.00  0.00     0.081 A 
HETATM    2  N   UNL     1      64.093   9.058   5.411  1.00  0.00    -0.298 N 
ATOM      3  HN  UNL     1      63.393   9.766   5.630  1.00  0.00     0.187 HD
HETATM    4  C   UNL     1      64.109   8.206   4.371  1.00  0.00     0.062 A 
HETATM    5  C   UNL     1      65.966   7.779   5.524  1.00  0.00     0.115 A 
HETATM    6  N   UNL     1      65.212   8.764   6.096  1.00  0.00    -0.285 N 
HETATM    7  H   UNL     1      65.466   9.218   6.932  1.00  0.00     0.188 HD
ENDROOT
BRANCH   4   8
HETATM    8  C   UNL     1      63.037   8.180   3.374  1.00  0.00    -0.008 A 
HETATM    9  C   UNL     1      62.496   6.961   2.938  1.00  0.00     0.015 A 
HETATM   10  C   UNL     1      61.451   6.938   2.009  1.00  0.00     0.024 A 
HETATM   11  C   UNL     1      60.949   8.135   1.502  1.00  0.00     0.034 A 
HETATM   12  C   UNL     1      61.485   9.353   1.912  1.00  0.00     0.024 A 
HETATM   13 CL   UNL     1      59.657   8.110   0.366  1.00  0.00    -0.084 Cl
HETATM   14  C   UNL     1      62.526   9.376   2.845  1.00  0.00     0.015 A 
ENDBRANCH   4   8
BRANCH   5  15
HETATM   15  N   UNL     1      67.126   7.350   6.048  1.00  0.00    -0.384 N 
HETATM   16  H   UNL     1      67.850   7.991   6.228  1.00  0.00     0.157 HD
HETATM   17  H   UNL     1      67.250   6.396   6.252  1.00  0.00     0.157 HD
ENDBRANCH   5  15
TORSDOF 2
ENDMDL
MODEL 7
REMARK VINA RESULT:      -4.3     13.083     14.089
REMARK  2 active torsions:
REMARK  status: ('A' for Active; 'I' for Inactive)
REMARK    1  A    between atoms: C_4  and  C_7 
REMARK    2  A    between atoms: C_5  and  N_8 
ROOT
HETATM    1  C   UNL     1      55.733   2.901  13.610  1.00  0.00     0.081 A 
HETATM    2  N   UNL     1      55.321   1.041  14.857  1.00  0.00    -0.298 N 
ATOM      3  HN  UNL     1      55.389   0.125  15.301  1.00  0.00     0.187 HD
HETATM    4  C   UNL     1      56.217   1.637  14.051  1.00  0.00     0.062 A 
HETATM    5  C   UNL     1      54.509   3.058  14.203  1.00  0.00     0.115 A 
HETATM    6  N   UNL     1      54.314   1.927  14.944  1.00  0.00    -0.285 N 
HETATM    7  H   UNL     1      53.510   1.775  15.492  1.00  0.00     0.188 HD
ENDROOT
BRANCH   4   8
HETATM    8  C   UNL     1      57.492   1.004  13.708  1.00  0.00    -0.008 A 
HETATM    9  C   UNL     1      57.601  -0.393  13.643  1.00  0.00     0.015 A 
HETATM   10  C   UNL     1      58.811  -0.997  13.286  1.00  0.00     0.024 A 
HETATM   11  C   UNL     1      59.922  -0.205  13.002  1.00  0.00     0.034 A 
HETATM   12  C   UNL     1      59.836   1.184  13.078  1.00  0.00     0.024 A 
HETATM   13 CL   UNL     1      61.410  -0.943  12.553  1.00  0.00    -0.084 Cl
HETATM   14  C   UNL     1      58.624   1.786  13.430  1.00  0.00     0.015 A 
ENDBRANCH   4   8
BRANCH   5  15
HETATM   15  N   UNL     1      53.613   4.057  14.147  1.00  0.00    -0.384 N 
HETATM   16  H   UNL     1      52.653   3.862  14.236  1.00  0.00     0.157 HD
HETATM   17  H   UNL     1      53.918   4.983  14.018  1.00  0.00     0.157 HD
ENDBRANCH   5  15
TORSDOF 2
ENDMDL
MODEL 8
REMARK VINA RESULT:      -4.1      2.134      2.321
REMARK  2 active torsions:
REMARK  status: ('A' for Active; 'I' for Inactive)
REMARK    1  A    between atoms: C_4  and  C_7 
REMARK    2  A    between atoms: C_5  and  N_8 
ROOT
HETATM    1  C   UNL     1      63.454   6.283   6.149  1.00  0.00     0.081 A 
HETATM    2  N   UNL     1      64.812   6.117   4.328  1.00  0.00    -0.298 N 
ATOM      3  HN  UNL     1      65.258   6.266   3.424  1.00  0.00     0.187 HD
HETATM    4  C   UNL     1      63.823   6.835   4.889  1.00  0.00     0.062 A 
HETATM    5  C   UNL     1      64.280   5.207   6.339  1.00  0.00     0.115 A 
HETATM    6  N   UNL     1      65.077   5.158   5.232  1.00  0.00    -0.285 N 
HETATM    7  H   UNL     1      65.782   4.481   5.106  1.00  0.00     0.188 HD
ENDROOT
BRANCH   4   8
HETATM    8  C   UNL     1      63.245   8.007   4.229  1.00  0.00    -0.008 A 
HETATM    9  C   UNL     1      63.010   9.188   4.949  1.00  0.00     0.015 A 
HETATM   10  C   UNL     1      62.487  10.318   4.312  1.00  0.00     0.024 A 
HETATM   11  C   UNL     1      62.187  10.269   2.952  1.00  0.00     0.034 A 
HETATM   12  C   UNL     1      62.400   9.099   2.226  1.00  0.00     0.024 A 
HETATM   13 CL   UNL     1      61.553  11.659   2.163  1.00  0.00    -0.084 Cl
HETATM   14  C   UNL     1      62.927   7.972   2.863  1.00  0.00     0.015 A 
ENDBRANCH   4   8
BRANCH   5  15
HETATM   15  N   UNL     1      64.379   4.329   7.350  1.00  0.00    -0.384 N 
HETATM   16  H   UNL     1      64.880   4.569   8.163  1.00  0.00     0.157 HD
HETATM   17  H   UNL     1      63.951   3.446   7.279  1.00  0.00     0.157 HD
ENDBRANCH   5  15
TORSDOF 2
ENDMDL
MODEL 9
REMARK VINA RESULT:      -3.9      3.174      4.109
REMARK  2 active torsions:
REMARK  status: ('A' for Active; 'I' for Inactive)
REMARK    1  A    between atoms: C_4  and  C_7 
REMARK    2  A    between atoms: C_5  and  N_8 
ROOT
HETATM    1  C   UNL     1      62.147   5.259   2.762  1.00  0.00     0.081 A 
HETATM    2  N   UNL     1      63.959   6.049   3.893  1.00  0.00    -0.298 N 
ATOM      3  HN  UNL     1      64.675   6.655   4.293  1.00  0.00     0.187 HD
HETATM    4  C   UNL     1      62.888   6.407   3.163  1.00  0.00     0.062 A 
HETATM    5  C   UNL     1      62.806   4.185   3.299  1.00  0.00     0.115 A 
HETATM    6  N   UNL     1      63.871   4.710   3.974  1.00  0.00    -0.285 N 
HETATM    7  H   UNL     1      64.517   4.158   4.472  1.00  0.00     0.188 HD
ENDROOT
BRANCH   4   8
HETATM    8  C   UNL     1      62.593   7.807   2.854  1.00  0.00    -0.008 A 
HETATM    9  C   UNL     1      62.377   8.216   1.529  1.00  0.00     0.015 A 
HETATM   10  C   UNL     1      62.066   9.547   1.237  1.00  0.00     0.024 A 
HETATM   11  C   UNL     1      61.979  10.480   2.268  1.00  0.00     0.034 A 
HETATM   12  C   UNL     1      62.207  10.095   3.588  1.00  0.00     0.024 A 
HETATM   13 CL   UNL     1      61.587  12.117   1.914  1.00  0.00    -0.084 Cl
HETATM   14  C   UNL     1      62.513   8.762   3.879  1.00  0.00     0.015 A 
ENDBRANCH   4   8
BRANCH   5  15
HETATM   15  N   UNL     1      62.551   2.867   3.249  1.00  0.00    -0.384 N 
HETATM   16  H   UNL     1      61.704   2.545   2.866  1.00  0.00     0.157 HD
HETATM   17  H   UNL     1      63.212   2.225   3.593  1.00  0.00     0.157 HD
ENDBRANCH   5  15
TORSDOF 2
ENDMDL
