MODEL 1
REMARK VINA RESULT:      -5.5      0.000      0.000
REMARK  3 active torsions:
REMARK  status: ('A' for Active; 'I' for Inactive)
REMARK    1  A    between atoms: S_1  and  C_2 
REMARK    2  A    between atoms: S_1  and  C_3 
REMARK    3  A    between atoms: C_2  and  C_6 
ROOT
HETATM    1  C   UNL     1      62.840   8.597   4.535  1.00  0.00     0.059 A 
HETATM    2  C   UNL     1      62.522   8.358   3.194  1.00  0.00     0.025 A 
HETATM    3  C   UNL     1      62.733   9.883   5.074  1.00  0.00     0.025 A 
HETATM    4  C   UNL     1      62.055  10.713   2.908  1.00  0.00     0.034 A 
HETATM    5  C   UNL     1      62.348  10.945   4.252  1.00  0.00     0.025 A 
HETATM    6  C   UNL     1      62.133   9.424   2.378  1.00  0.00     0.025 A 
HETATM    7 CL   UNL     1      61.579  12.023   1.899  1.00  0.00    -0.084 Cl
ENDROOT
BRANCH   1   8
HETATM    8  S   UNL     1      63.270   7.229   5.590  1.00  0.00     0.182 S 
HETATM    9  O   UNL     1      63.050   7.645   6.960  1.00  0.00    -0.222 OA
HETATM   10  O   UNL     1      62.576   6.064   5.071  1.00  0.00    -0.222 OA
BRANCH   8  11
HETATM   11  C   UNL     1      64.992   6.949   5.361  1.00  0.00     0.223 C 
BRANCH  11  12
HETATM   12  C   UNL     1      65.802   7.713   6.359  1.00  0.00     0.137 C 
HETATM   13  O   UNL     1      65.972   8.926   6.236  1.00  0.00    -0.297 OA
HETATM   14  C   UNL     1      66.414   6.954   7.507  1.00  0.00     0.091 C 
ENDBRANCH  11  12
ENDBRANCH   8  11
ENDBRANCH   1   8
TORSDOF 3
ENDMDL
MODEL 2
REMARK VINA RESULT:      -5.0      1.025      1.657
REMARK  3 active torsions:
REMARK  status: ('A' for Active; 'I' for Inactive)
REMARK    1  A    between atoms: S_1  and  C_2 
REMARK    2  A    between atoms: S_1  and  C_3 
REMARK    3  A    between atoms: C_2  and  C_6 
ROOT
HETATM    1  C   UNL     1      62.846   8.812   4.602  1.00  0.00     0.059 A 
HETATM    2  C   UNL     1      62.721  10.116   5.094  1.00  0.00     0.025 A 
HETATM    3  C   UNL     1      62.588   8.532   3.256  1.00  0.00     0.025 A 
HETATM    4  C   UNL     1      62.010  10.852   2.904  1.00  0.00     0.034 A 
HETATM    5  C   UNL     1      62.159   9.556   2.408  1.00  0.00     0.025 A 
HETATM    6  C   UNL     1      62.296  11.136   4.240  1.00  0.00     0.025 A 
HETATM    7 CL   UNL     1      61.483  12.110   1.857  1.00  0.00    -0.084 Cl
ENDROOT
BRANCH   1   8
HETATM    8  S   UNL     1      63.452   7.526   5.672  1.00  0.00     0.182 S 
HETATM    9  O   UNL     1      62.858   7.725   6.979  1.00  0.00    -0.222 OA
HETATM   10  O   UNL     1      63.250   6.269   4.974  1.00  0.00    -0.222 OA
BRANCH   8  11
HETATM   11  C   UNL     1      65.190   7.770   5.805  1.00  0.00     0.223 C 
BRANCH  11  12
HETATM   12  C   UNL     1      65.877   6.523   6.264  1.00  0.00     0.137 C 
HETATM   13  O   UNL     1      66.427   5.773   5.457  1.00  0.00    -0.297 OA
HETATM   14  C   UNL     1      65.864   6.205   7.737  1.00  0.00     0.091 C 
ENDBRANCH  11  12
ENDBRANCH   8  11
ENDBRANCH   1   8
TORSDOF 3
ENDMDL
MODEL 3
REMARK VINA RESULT:      -4.8      1.902      2.405
REMARK  3 active torsions:
REMARK  status: ('A' for Active; 'I' for Inactive)
REMARK    1  A    between atoms: S_1  and  C_2 
REMARK    2  A    between atoms: S_1  and  C_3 
REMARK    3  A    between atoms: C_2  and  C_6 
ROOT
HETATM    1  C   UNL     1      64.134   8.106   4.667  1.00  0.00     0.059 A 
HETATM    2  C   UNL     1      64.017   7.228   3.584  1.00  0.00     0.025 A 
HETATM    3  C   UNL     1      63.360   9.270   4.726  1.00  0.00     0.025 A 
HETATM    4  C   UNL     1      62.397   8.715   2.580  1.00  0.00     0.034 A 
HETATM    5  C   UNL     1      62.496   9.578   3.673  1.00  0.00     0.025 A 
HETATM    6  C   UNL     1      63.147   7.539   2.536  1.00  0.00     0.025 A 
HETATM    7 CL   UNL     1      61.330   9.096   1.286  1.00  0.00    -0.084 Cl
ENDROOT
BRANCH   1   8
HETATM    8  S   UNL     1      65.190   7.677   6.033  1.00  0.00     0.182 S 
HETATM    9  O   UNL     1      66.060   8.808   6.289  1.00  0.00    -0.222 OA
HETATM   10  O   UNL     1      64.327   7.179   7.091  1.00  0.00    -0.222 OA
BRANCH   8  11
HETATM   11  C   UNL     1      66.177   6.324   5.491  1.00  0.00     0.223 C 
BRANCH  11  12
HETATM   12  C   UNL     1      66.608   5.474   6.643  1.00  0.00     0.137 C 
HETATM   13  O   UNL     1      66.044   4.406   6.884  1.00  0.00    -0.297 OA
HETATM   14  C   UNL     1      67.740   5.969   7.507  1.00  0.00     0.091 C 
ENDBRANCH  11  12
ENDBRANCH   8  11
ENDBRANCH   1   8
TORSDOF 3
ENDMDL
MODEL 4
REMARK VINA RESULT:      -4.8      1.937      2.704
REMARK  3 active torsions:
REMARK  status: ('A' for Active; 'I' for Inactive)
REMARK    1  A    between atoms: S_1  and  C_2 
REMARK    2  A    between atoms: S_1  and  C_3 
REMARK    3  A    between atoms: C_2  and  C_6 
ROOT
HETATM    1  C   UNL     1      64.220   8.077   4.840  1.00  0.00     0.059 A 
HETATM    2  C   UNL     1      63.488   9.266   4.925  1.00  0.00     0.025 A 
HETATM    3  C   UNL     1      64.117   7.256   3.711  1.00  0.00     0.025 A 
HETATM    4  C   UNL     1      62.491   8.781   2.777  1.00  0.00     0.034 A 
HETATM    5  C   UNL     1      63.240   7.607   2.682  1.00  0.00     0.025 A 
HETATM    6  C   UNL     1      62.617   9.614   3.889  1.00  0.00     0.025 A 
HETATM    7 CL   UNL     1      61.414   9.210   1.507  1.00  0.00    -0.084 Cl
ENDROOT
BRANCH   1   8
HETATM    8  S   UNL     1      65.380   7.668   6.126  1.00  0.00     0.182 S 
HETATM    9  O   UNL     1      66.169   8.852   6.400  1.00  0.00    -0.222 OA
HETATM   10  O   UNL     1      64.619   7.047   7.196  1.00  0.00    -0.222 OA
BRANCH   8  11
HETATM   11  C   UNL     1      66.441   6.431   5.462  1.00  0.00     0.223 C 
BRANCH  11  12
HETATM   12  C   UNL     1      67.077   5.624   6.549  1.00  0.00     0.137 C 
HETATM   13  O   UNL     1      67.905   6.131   7.307  1.00  0.00    -0.297 OA
HETATM   14  C   UNL     1      66.689   4.175   6.678  1.00  0.00     0.091 C 
ENDBRANCH  11  12
ENDBRANCH   8  11
ENDBRANCH   1   8
TORSDOF 3
ENDMDL
MODEL 5
REMARK VINA RESULT:      -4.8      2.199      3.098
REMARK  3 active torsions:
REMARK  status: ('A' for Active; 'I' for Inactive)
REMARK    1  A    between atoms: S_1  and  C_2 
REMARK    2  A    between atoms: S_1  and  C_3 
REMARK    3  A    between atoms: C_2  and  C_6 
ROOT
HETATM    1  C   UNL     1      62.400   8.541   4.518  1.00  0.00     0.059 A 
HETATM    2  C   UNL     1      61.995   8.348   3.193  1.00  0.00     0.025 A 
HETATM    3  C   UNL     1      62.545   9.832   5.037  1.00  0.00     0.025 A 
HETATM    4  C   UNL     1      61.946  10.745   2.882  1.00  0.00     0.034 A 
HETATM    5  C   UNL     1      62.326  10.936   4.211  1.00  0.00     0.025 A 
HETATM    6  C   UNL     1      61.772   9.457   2.373  1.00  0.00     0.025 A 
HETATM    7 CL   UNL     1      61.674  12.108   1.867  1.00  0.00    -0.084 Cl
ENDROOT
BRANCH   1   8
HETATM    8  S   UNL     1      62.618   7.131   5.581  1.00  0.00     0.182 S 
HETATM    9  O   UNL     1      63.637   6.287   4.990  1.00  0.00    -0.222 OA
HETATM   10  O   UNL     1      62.801   7.645   6.928  1.00  0.00    -0.222 OA
BRANCH   8  11
HETATM   11  C   UNL     1      61.091   6.257   5.565  1.00  0.00     0.223 C 
BRANCH  11  12
HETATM   12  C   UNL     1      60.886   5.502   6.839  1.00  0.00     0.137 C 
HETATM   13  O   UNL     1      60.244   5.995   7.768  1.00  0.00    -0.297 OA
HETATM   14  C   UNL     1      61.499   4.131   6.960  1.00  0.00     0.091 C 
ENDBRANCH  11  12
ENDBRANCH   8  11
ENDBRANCH   1   8
TORSDOF 3
ENDMDL
MODEL 6
REMARK VINA RESULT:      -4.7      1.834      2.276
REMARK  3 active torsions:
REMARK  status: ('A' for Active; 'I' for Inactive)
REMARK    1  A    between atoms: S_1  and  C_2 
REMARK    2  A    between atoms: S_1  and  C_3 
REMARK    3  A    between atoms: C_2  and  C_6 
ROOT
HETATM    1  C   UNL     1      63.384   8.450   3.904  1.00  0.00     0.059 A 
HETATM    2  C   UNL     1      63.515   7.274   3.158  1.00  0.00     0.025 A 
HETATM    3  C   UNL     1      62.459   9.431   3.530  1.00  0.00     0.025 A 
HETATM    4  C   UNL     1      61.839   8.089   1.618  1.00  0.00     0.034 A 
HETATM    5  C   UNL     1      61.692   9.251   2.377  1.00  0.00     0.025 A 
HETATM    6  C   UNL     1      62.740   7.098   2.009  1.00  0.00     0.025 A 
HETATM    7 CL   UNL     1      60.890   7.870   0.200  1.00  0.00    -0.084 Cl
ENDROOT
BRANCH   1   8
HETATM    8  S   UNL     1      64.320   8.644   5.405  1.00  0.00     0.182 S 
HETATM    9  O   UNL     1      64.405  10.063   5.690  1.00  0.00    -0.222 OA
HETATM   10  O   UNL     1      63.734   7.747   6.385  1.00  0.00    -0.222 OA
BRANCH   8  11
HETATM   11  C   UNL     1      65.939   8.047   5.060  1.00  0.00     0.223 C 
BRANCH  11  12
HETATM   12  C   UNL     1      66.700   7.789   6.322  1.00  0.00     0.137 C 
HETATM   13  O   UNL     1      66.831   8.673   7.170  1.00  0.00    -0.297 OA
HETATM   14  C   UNL     1      67.313   6.427   6.516  1.00  0.00     0.091 C 
ENDBRANCH  11  12
ENDBRANCH   8  11
ENDBRANCH   1   8
TORSDOF 3
ENDMDL
MODEL 7
REMARK VINA RESULT:      -4.7      1.955      2.964
REMARK  3 active torsions:
REMARK  status: ('A' for Active; 'I' for Inactive)
REMARK    1  A    between atoms: S_1  and  C_2 
REMARK    2  A    between atoms: S_1  and  C_3 
REMARK    3  A    between atoms: C_2  and  C_6 
ROOT
HETATM    1  C   UNL     1      63.792   8.113   3.795  1.00  0.00     0.059 A 
HETATM    2  C   UNL     1      63.647   7.092   2.851  1.00  0.00     0.025 A 
HETATM    3  C   UNL     1      62.909   9.198   3.811  1.00  0.00     0.025 A 
HETATM    4  C   UNL     1      61.771   8.275   1.889  1.00  0.00     0.034 A 
HETATM    5  C   UNL     1      61.901   9.281   2.847  1.00  0.00     0.025 A 
HETATM    6  C   UNL     1      62.634   7.178   1.893  1.00  0.00     0.025 A 
HETATM    7 CL   UNL     1      60.528   8.379   0.705  1.00  0.00    -0.084 Cl
ENDROOT
BRANCH   1   8
HETATM    8  S   UNL     1      65.038   7.970   5.057  1.00  0.00     0.182 S 
HETATM    9  O   UNL     1      66.251   7.488   4.426  1.00  0.00    -0.222 OA
HETATM   10  O   UNL     1      65.054   9.232   5.777  1.00  0.00    -0.222 OA
BRANCH   8  11
HETATM   11  C   UNL     1      64.467   6.742   6.181  1.00  0.00     0.223 C 
BRANCH  11  12
HETATM   12  C   UNL     1      63.002   6.886   6.441  1.00  0.00     0.137 C 
HETATM   13  O   UNL     1      62.565   7.855   7.064  1.00  0.00    -0.297 OA
HETATM   14  C   UNL     1      62.080   5.808   5.934  1.00  0.00     0.091 C 
ENDBRANCH  11  12
ENDBRANCH   8  11
ENDBRANCH   1   8
TORSDOF 3
ENDMDL
MODEL 8
REMARK VINA RESULT:      -4.2      1.738      2.393
REMARK  3 active torsions:
REMARK  status: ('A' for Active; 'I' for Inactive)
REMARK    1  A    between atoms: S_1  and  C_2 
REMARK    2  A    between atoms: S_1  and  C_3 
REMARK    3  A    between atoms: C_2  and  C_6 
ROOT
HETATM    1  C   UNL     1      62.541   7.285   4.477  1.00  0.00     0.059 A 
HETATM    2  C   UNL     1      62.860   8.620   4.207  1.00  0.00     0.025 A 
HETATM    3  C   UNL     1      62.217   6.406   3.437  1.00  0.00     0.025 A 
HETATM    4  C   UNL     1      62.462   8.218   1.857  1.00  0.00     0.034 A 
HETATM    5  C   UNL     1      62.169   6.880   2.124  1.00  0.00     0.025 A 
HETATM    6  C   UNL     1      62.815   9.086   2.891  1.00  0.00     0.025 A 
HETATM    7 CL   UNL     1      62.404   8.798   0.238  1.00  0.00    -0.084 Cl
ENDROOT
BRANCH   1   8
HETATM    8  S   UNL     1      62.665   6.674   6.144  1.00  0.00     0.182 S 
HETATM    9  O   UNL     1      62.651   7.817   7.034  1.00  0.00    -0.222 OA
HETATM   10  O   UNL     1      61.656   5.638   6.287  1.00  0.00    -0.222 OA
BRANCH   8  11
HETATM   11  C   UNL     1      64.234   5.887   6.268  1.00  0.00     0.223 C 
BRANCH  11  12
HETATM   12  C   UNL     1      65.255   6.807   6.855  1.00  0.00     0.137 C 
HETATM   13  O   UNL     1      65.458   6.832   8.070  1.00  0.00    -0.297 OA
HETATM   14  C   UNL     1      66.016   7.712   5.922  1.00  0.00     0.091 C 
ENDBRANCH  11  12
ENDBRANCH   8  11
ENDBRANCH   1   8
TORSDOF 3
ENDMDL
MODEL 9
REMARK VINA RESULT:      -4.1      3.346      4.141
REMARK  3 active torsions:
REMARK  status: ('A' for Active; 'I' for Inactive)
REMARK    1  A    between atoms: S_1  and  C_2 
REMARK    2  A    between atoms: S_1  and  C_3 
REMARK    3  A    between atoms: C_2  and  C_6 
ROOT
HETATM    1  C   UNL     1      61.105   6.621   5.309  1.00  0.00     0.059 A 
HETATM    2  C   UNL     1      60.195   5.968   6.146  1.00  0.00     0.025 A 
HETATM    3  C   UNL     1      60.683   7.186   4.101  1.00  0.00     0.025 A 
HETATM    4  C   UNL     1      58.445   6.382   4.531  1.00  0.00     0.034 A 
HETATM    5  C   UNL     1      59.349   7.056   3.709  1.00  0.00     0.025 A 
HETATM    6  C   UNL     1      58.861   5.846   5.751  1.00  0.00     0.025 A 
HETATM    7 CL   UNL     1      56.802   6.225   4.045  1.00  0.00    -0.084 Cl
ENDROOT
BRANCH   1   8
HETATM    8  S   UNL     1      62.789   6.837   5.845  1.00  0.00     0.182 S 
HETATM    9  O   UNL     1      62.764   7.586   7.085  1.00  0.00    -0.222 OA
HETATM   10  O   UNL     1      63.413   5.525   5.808  1.00  0.00    -0.222 OA
BRANCH   8  11
HETATM   11  C   UNL     1      63.578   7.819   4.615  1.00  0.00     0.223 C 
BRANCH  11  12
HETATM   12  C   UNL     1      63.838   9.204   5.115  1.00  0.00     0.137 C 
HETATM   13  O   UNL     1      64.910   9.490   5.650  1.00  0.00    -0.297 OA
HETATM   14  C   UNL     1      62.749  10.232   4.958  1.00  0.00     0.091 C 
ENDBRANCH  11  12
ENDBRANCH   8  11
ENDBRANCH   1   8
TORSDOF 3
ENDMDL
