MODEL 1
REMARK VINA RESULT:      -5.4      0.000      0.000
REMARK  2 active torsions:
REMARK  status: ('A' for Active; 'I' for Inactive)
REMARK    1  A    between atoms: C_4  and  N_8 
REMARK    2  A    between atoms: C_6  and  C_7 
ROOT
HETATM    1  N   UNL     1      64.580   7.507   6.603  1.00  0.00    -0.296 N 
ATOM      2  HN  UNL     1      63.682   7.414   7.078  1.00  0.00     0.187 HD
HETATM    3  C   UNL     1      66.231   8.103   5.157  1.00  0.00     0.081 A 
HETATM    4  C   UNL     1      66.799   7.327   6.138  1.00  0.00     0.117 A 
HETATM    5  N   UNL     1      65.764   6.980   6.968  1.00  0.00    -0.281 N 
HETATM    6  C   UNL     1      64.847   8.181   5.473  1.00  0.00     0.062 A 
HETATM    7  C   UNL     1      65.830   6.125   8.130  1.00  0.00     0.179 C 
ENDROOT
BRANCH   6   8
HETATM    8  C   UNL     1      63.799   8.861   4.711  1.00  0.00    -0.008 A 
HETATM    9  C   UNL     1      63.266  10.078   5.162  1.00  0.00     0.014 A 
HETATM   10  C   UNL     1      62.305  10.755   4.408  1.00  0.00     0.001 A 
HETATM   11  C   UNL     1      61.863  10.218   3.201  1.00  0.00     0.000 A 
HETATM   12  C   UNL     1      62.368   8.998   2.753  1.00  0.00     0.001 A 
HETATM   13  C   UNL     1      63.332   8.323   3.505  1.00  0.00     0.014 A 
ENDBRANCH   6   8
BRANCH   4  14
HETATM   14  N   UNL     1      68.075   6.936   6.304  1.00  0.00    -0.384 N 
HETATM   15  H   UNL     1      68.455   6.239   5.724  1.00  0.00     0.157 HD
HETATM   16  H   UNL     1      68.628   7.349   7.006  1.00  0.00     0.157 HD
ENDBRANCH   4  14
TORSDOF 2
ENDMDL
MODEL 2
REMARK VINA RESULT:      -5.2      0.146      1.347
REMARK  2 active torsions:
REMARK  status: ('A' for Active; 'I' for Inactive)
REMARK    1  A    between atoms: C_4  and  N_8 
REMARK    2  A    between atoms: C_6  and  C_7 
ROOT
HETATM    1  N   UNL     1      64.582   7.472   6.573  1.00  0.00    -0.296 N 
ATOM      2  HN  UNL     1      63.679   7.402   7.045  1.00  0.00     0.187 HD
HETATM    3  C   UNL     1      66.247   8.004   5.118  1.00  0.00     0.081 A 
HETATM    4  C   UNL     1      66.803   7.261   6.131  1.00  0.00     0.117 A 
HETATM    5  N   UNL     1      65.760   6.951   6.966  1.00  0.00    -0.281 N 
HETATM    6  C   UNL     1      64.861   8.102   5.421  1.00  0.00     0.062 A 
HETATM    7  C   UNL     1      65.812   6.140   8.159  1.00  0.00     0.179 C 
ENDROOT
BRANCH   6   8
HETATM    8  C   UNL     1      63.822   8.760   4.627  1.00  0.00    -0.008 A 
HETATM    9  C   UNL     1      63.345   8.170   3.447  1.00  0.00     0.014 A 
HETATM   10  C   UNL     1      62.317   8.770   2.719  1.00  0.00     0.001 A 
HETATM   11  C   UNL     1      61.760   9.969   3.158  1.00  0.00     0.000 A 
HETATM   12  C   UNL     1      62.241  10.578   4.317  1.00  0.00     0.001 A 
HETATM   13  C   UNL     1      63.267   9.976   5.048  1.00  0.00     0.014 A 
ENDBRANCH   6   8
BRANCH   4  14
HETATM   14  N   UNL     1      68.075   6.869   6.321  1.00  0.00    -0.384 N 
HETATM   15  H   UNL     1      68.314   6.347   7.120  1.00  0.00     0.157 HD
HETATM   16  H   UNL     1      68.766   7.104   5.660  1.00  0.00     0.157 HD
ENDBRANCH   4  14
TORSDOF 2
ENDMDL
MODEL 3
REMARK VINA RESULT:      -5.1      1.255      2.172
REMARK  2 active torsions:
REMARK  status: ('A' for Active; 'I' for Inactive)
REMARK    1  A    between atoms: C_4  and  N_8 
REMARK    2  A    between atoms: C_6  and  C_7 
ROOT
HETATM    1  N   UNL     1      65.169   8.298   5.976  1.00  0.00    -0.296 N 
ATOM      2  HN  UNL     1      65.697   9.171   5.971  1.00  0.00     0.187 HD
HETATM    3  C   UNL     1      63.613   6.688   5.571  1.00  0.00     0.081 A 
HETATM    4  C   UNL     1      64.579   6.139   6.379  1.00  0.00     0.117 A 
HETATM    5  N   UNL     1      65.477   7.150   6.607  1.00  0.00    -0.281 N 
HETATM    6  C   UNL     1      64.008   8.037   5.353  1.00  0.00     0.062 A 
HETATM    7  C   UNL     1      66.655   7.096   7.441  1.00  0.00     0.179 C 
ENDROOT
BRANCH   6   8
HETATM    8  C   UNL     1      63.291   9.059   4.590  1.00  0.00    -0.008 A 
HETATM    9  C   UNL     1      62.851   8.797   3.284  1.00  0.00     0.014 A 
HETATM   10  C   UNL     1      62.121   9.752   2.575  1.00  0.00     0.001 A 
HETATM   11  C   UNL     1      61.829  10.981   3.162  1.00  0.00     0.000 A 
HETATM   12  C   UNL     1      62.280  11.264   4.451  1.00  0.00     0.001 A 
HETATM   13  C   UNL     1      63.008  10.307   5.161  1.00  0.00     0.014 A 
ENDBRANCH   6   8
BRANCH   4  14
HETATM   14  N   UNL     1      64.681   4.898   6.888  1.00  0.00    -0.384 N 
HETATM   15  H   UNL     1      64.793   4.128   6.287  1.00  0.00     0.157 HD
HETATM   16  H   UNL     1      64.644   4.762   7.862  1.00  0.00     0.157 HD
ENDBRANCH   4  14
TORSDOF 2
ENDMDL
MODEL 4
REMARK VINA RESULT:      -5.1      1.259      1.722
REMARK  2 active torsions:
REMARK  status: ('A' for Active; 'I' for Inactive)
REMARK    1  A    between atoms: C_4  and  N_8 
REMARK    2  A    between atoms: C_6  and  C_7 
ROOT
HETATM    1  N   UNL     1      65.082   8.188   6.171  1.00  0.00    -0.296 N 
ATOM      2  HN  UNL     1      65.573   9.081   6.224  1.00  0.00     0.187 HD
HETATM    3  C   UNL     1      63.614   6.535   5.636  1.00  0.00     0.081 A 
HETATM    4  C   UNL     1      64.570   5.990   6.459  1.00  0.00     0.117 A 
HETATM    5  N   UNL     1      65.415   7.027   6.766  1.00  0.00    -0.281 N 
HETATM    6  C   UNL     1      63.959   7.906   5.490  1.00  0.00     0.062 A 
HETATM    7  C   UNL     1      66.560   6.985   7.645  1.00  0.00     0.179 C 
ENDROOT
BRANCH   6   8
HETATM    8  C   UNL     1      63.230   8.931   4.741  1.00  0.00    -0.008 A 
HETATM    9  C   UNL     1      63.005  10.198   5.300  1.00  0.00     0.014 A 
HETATM   10  C   UNL     1      62.358  11.193   4.565  1.00  0.00     0.001 A 
HETATM   11  C   UNL     1      61.924  10.929   3.268  1.00  0.00     0.000 A 
HETATM   12  C   UNL     1      62.121   9.667   2.709  1.00  0.00     0.001 A 
HETATM   13  C   UNL     1      62.771   8.672   3.443  1.00  0.00     0.014 A 
ENDBRANCH   6   8
BRANCH   4  14
HETATM   14  N   UNL     1      64.705   4.735   6.920  1.00  0.00    -0.384 N 
HETATM   15  H   UNL     1      63.908   4.174   7.060  1.00  0.00     0.157 HD
HETATM   16  H   UNL     1      65.600   4.376   7.117  1.00  0.00     0.157 HD
ENDBRANCH   4  14
TORSDOF 2
ENDMDL
MODEL 5
REMARK VINA RESULT:      -4.5      1.470      1.534
REMARK  2 active torsions:
REMARK  status: ('A' for Active; 'I' for Inactive)
REMARK    1  A    between atoms: C_4  and  N_8 
REMARK    2  A    between atoms: C_6  and  C_7 
ROOT
HETATM    1  N   UNL     1      64.210   7.700   5.898  1.00  0.00    -0.296 N 
ATOM      2  HN  UNL     1      63.808   8.420   6.500  1.00  0.00     0.187 HD
HETATM    3  C   UNL     1      64.821   6.455   4.095  1.00  0.00     0.081 A 
HETATM    4  C   UNL     1      65.410   5.897   5.203  1.00  0.00     0.117 A 
HETATM    5  N   UNL     1      64.996   6.669   6.259  1.00  0.00    -0.281 N 
HETATM    6  C   UNL     1      64.071   7.567   4.569  1.00  0.00     0.062 A 
HETATM    7  C   UNL     1      65.301   6.467   7.656  1.00  0.00     0.179 C 
ENDROOT
BRANCH   6   8
HETATM    8  C   UNL     1      63.227   8.469   3.785  1.00  0.00    -0.008 A 
HETATM    9  C   UNL     1      62.740   9.659   4.346  1.00  0.00     0.014 A 
HETATM   10  C   UNL     1      61.981  10.546   3.582  1.00  0.00     0.001 A 
HETATM   11  C   UNL     1      61.695  10.250   2.251  1.00  0.00     0.000 A 
HETATM   12  C   UNL     1      62.154   9.060   1.687  1.00  0.00     0.001 A 
HETATM   13  C   UNL     1      62.916   8.174   2.451  1.00  0.00     0.014 A 
ENDBRANCH   6   8
BRANCH   4  14
HETATM   14  N   UNL     1      66.211   4.823   5.311  1.00  0.00    -0.384 N 
HETATM   15  H   UNL     1      67.180   4.942   5.432  1.00  0.00     0.157 HD
HETATM   16  H   UNL     1      65.828   3.917   5.269  1.00  0.00     0.157 HD
ENDBRANCH   4  14
TORSDOF 2
ENDMDL
MODEL 6
REMARK VINA RESULT:      -4.5      2.328      3.083
REMARK  2 active torsions:
REMARK  status: ('A' for Active; 'I' for Inactive)
REMARK    1  A    between atoms: C_4  and  N_8 
REMARK    2  A    between atoms: C_6  and  C_7 
ROOT
HETATM    1  N   UNL     1      64.336   7.207   3.749  1.00  0.00    -0.296 N 
ATOM      2  HN  UNL     1      64.954   7.485   2.986  1.00  0.00     0.187 HD
HETATM    3  C   UNL     1      62.606   7.086   5.221  1.00  0.00     0.081 A 
HETATM    4  C   UNL     1      63.448   6.032   5.483  1.00  0.00     0.117 A 
HETATM    5  N   UNL     1      64.478   6.162   4.586  1.00  0.00    -0.281 N 
HETATM    6  C   UNL     1      63.199   7.802   4.145  1.00  0.00     0.062 A 
HETATM    7  C   UNL     1      65.650   5.326   4.482  1.00  0.00     0.179 C 
ENDROOT
BRANCH   6   8
HETATM    8  C   UNL     1      62.711   9.032   3.521  1.00  0.00    -0.008 A 
HETATM    9  C   UNL     1      62.458   9.080   2.142  1.00  0.00     0.014 A 
HETATM   10  C   UNL     1      61.941  10.236   1.554  1.00  0.00     0.001 A 
HETATM   11  C   UNL     1      61.678  11.357   2.338  1.00  0.00     0.000 A 
HETATM   12  C   UNL     1      61.947  11.331   3.706  1.00  0.00     0.001 A 
HETATM   13  C   UNL     1      62.461  10.173   4.295  1.00  0.00     0.014 A 
ENDBRANCH   6   8
BRANCH   4  14
HETATM   14  N   UNL     1      63.358   5.060   6.407  1.00  0.00    -0.384 N 
HETATM   15  H   UNL     1      63.480   4.120   6.144  1.00  0.00     0.157 HD
HETATM   16  H   UNL     1      63.171   5.289   7.346  1.00  0.00     0.157 HD
ENDBRANCH   4  14
TORSDOF 2
ENDMDL
MODEL 7
REMARK VINA RESULT:      -4.4      2.476      3.050
REMARK  2 active torsions:
REMARK  status: ('A' for Active; 'I' for Inactive)
REMARK    1  A    between atoms: C_4  and  N_8 
REMARK    2  A    between atoms: C_6  and  C_7 
ROOT
HETATM    1  N   UNL     1      61.466   7.077   4.886  1.00  0.00    -0.296 N 
ATOM      2  HN  UNL     1      60.476   7.320   4.914  1.00  0.00     0.187 HD
HETATM    3  C   UNL     1      63.710   7.106   4.512  1.00  0.00     0.081 A 
HETATM    4  C   UNL     1      63.428   5.987   5.258  1.00  0.00     0.117 A 
HETATM    5  N   UNL     1      62.069   6.006   5.438  1.00  0.00    -0.281 N 
HETATM    6  C   UNL     1      62.463   7.751   4.289  1.00  0.00     0.062 A 
HETATM    7  C   UNL     1      61.268   5.016   6.118  1.00  0.00     0.179 C 
ENDROOT
BRANCH   6   8
HETATM    8  C   UNL     1      62.217   8.967   3.512  1.00  0.00    -0.008 A 
HETATM    9  C   UNL     1      62.091  10.209   4.151  1.00  0.00     0.014 A 
HETATM   10  C   UNL     1      61.911  11.376   3.407  1.00  0.00     0.001 A 
HETATM   11  C   UNL     1      61.849  11.312   2.017  1.00  0.00     0.000 A 
HETATM   12  C   UNL     1      61.950  10.081   1.370  1.00  0.00     0.001 A 
HETATM   13  C   UNL     1      62.134   8.914   2.114  1.00  0.00     0.014 A 
ENDBRANCH   6   8
BRANCH   4  14
HETATM   14  N   UNL     1      64.247   5.031   5.729  1.00  0.00    -0.384 N 
HETATM   15  H   UNL     1      64.259   4.823   6.690  1.00  0.00     0.157 HD
HETATM   16  H   UNL     1      64.835   4.538   5.111  1.00  0.00     0.157 HD
ENDBRANCH   4  14
TORSDOF 2
ENDMDL
MODEL 8
REMARK VINA RESULT:      -4.4      2.340      5.354
REMARK  2 active torsions:
REMARK  status: ('A' for Active; 'I' for Inactive)
REMARK    1  A    between atoms: C_4  and  N_8 
REMARK    2  A    between atoms: C_6  and  C_7 
ROOT
HETATM    1  N   UNL     1      63.683   7.711   3.246  1.00  0.00    -0.296 N 
ATOM      2  HN  UNL     1      64.095   6.876   2.827  1.00  0.00     0.187 HD
HETATM    3  C   UNL     1      63.218   9.453   4.633  1.00  0.00     0.081 A 
HETATM    4  C   UNL     1      62.405   9.570   3.532  1.00  0.00     0.117 A 
HETATM    5  N   UNL     1      62.709   8.492   2.742  1.00  0.00    -0.281 N 
HETATM    6  C   UNL     1      63.989   8.276   4.425  1.00  0.00     0.062 A 
HETATM    7  C   UNL     1      62.091   8.130   1.488  1.00  0.00     0.179 C 
ENDROOT
BRANCH   6   8
HETATM    8  C   UNL     1      64.978   7.690   5.331  1.00  0.00    -0.008 A 
HETATM    9  C   UNL     1      66.350   7.883   5.109  1.00  0.00     0.014 A 
HETATM   10  C   UNL     1      67.292   7.370   6.003  1.00  0.00     0.001 A 
HETATM   11  C   UNL     1      66.873   6.655   7.122  1.00  0.00     0.000 A 
HETATM   12  C   UNL     1      65.513   6.437   7.342  1.00  0.00     0.001 A 
HETATM   13  C   UNL     1      64.571   6.952   6.450  1.00  0.00     0.014 A 
ENDBRANCH   6   8
BRANCH   4  14
HETATM   14  N   UNL     1      61.479  10.498   3.234  1.00  0.00    -0.384 N 
HETATM   15  H   UNL     1      61.544  11.005   2.393  1.00  0.00     0.157 HD
HETATM   16  H   UNL     1      60.736  10.670   3.857  1.00  0.00     0.157 HD
ENDBRANCH   4  14
TORSDOF 2
ENDMDL
MODEL 9
REMARK VINA RESULT:      -4.3      1.882      2.962
REMARK  2 active torsions:
REMARK  status: ('A' for Active; 'I' for Inactive)
REMARK    1  A    between atoms: C_4  and  N_8 
REMARK    2  A    between atoms: C_6  and  C_7 
ROOT
HETATM    1  N   UNL     1      64.925   6.766   3.573  1.00  0.00    -0.296 N 
ATOM      2  HN  UNL     1      64.968   6.026   2.872  1.00  0.00     0.187 HD
HETATM    3  C   UNL     1      64.281   8.560   4.813  1.00  0.00     0.081 A 
HETATM    4  C   UNL     1      65.406   8.034   5.399  1.00  0.00     0.117 A 
HETATM    5  N   UNL     1      65.763   6.972   4.606  1.00  0.00    -0.281 N 
HETATM    6  C   UNL     1      64.020   7.753   3.672  1.00  0.00     0.062 A 
HETATM    7  C   UNL     1      66.913   6.115   4.767  1.00  0.00     0.179 C 
ENDROOT
BRANCH   6   8
HETATM    8  C   UNL     1      62.951   7.925   2.688  1.00  0.00    -0.008 A 
HETATM    9  C   UNL     1      62.406   6.815   2.025  1.00  0.00     0.014 A 
HETATM   10  C   UNL     1      61.349   6.972   1.127  1.00  0.00     0.001 A 
HETATM   11  C   UNL     1      60.832   8.241   0.876  1.00  0.00     0.000 A 
HETATM   12  C   UNL     1      61.380   9.356   1.510  1.00  0.00     0.001 A 
HETATM   13  C   UNL     1      62.434   9.198   2.412  1.00  0.00     0.014 A 
ENDBRANCH   6   8
BRANCH   4  14
HETATM   14  N   UNL     1      66.077   8.426   6.496  1.00  0.00    -0.384 N 
HETATM   15  H   UNL     1      67.005   8.131   6.636  1.00  0.00     0.157 HD
HETATM   16  H   UNL     1      65.640   9.010   7.157  1.00  0.00     0.157 HD
ENDBRANCH   4  14
TORSDOF 2
ENDMDL
