MODEL 1
REMARK VINA RESULT:      -5.8      0.000      0.000
REMARK  2 active torsions:
REMARK  status: ('A' for Active; 'I' for Inactive)
REMARK    1  A    between atoms: C_2  and  S_3 
REMARK    2  A    between atoms: C_4  and  C_11 
ROOT
HETATM    1  C   UNL     1      64.032   7.178   5.342  1.00  0.00     0.084 A 
HETATM    2  C   UNL     1      63.966   6.016   6.090  1.00  0.00     0.120 A 
HETATM    3  C   UNL     1      62.789   7.483   4.669  1.00  0.00     0.003 A 
HETATM    4  S   UNL     1      62.395   5.342   6.060  1.00  0.00    -0.088 SA
HETATM    5  C   UNL     1      61.819   6.554   5.006  1.00  0.00     0.065 A 
HETATM    6  C   UNL     1      65.229   7.967   5.257  1.00  0.00     0.102 C 
HETATM    7  N   UNL     1      66.167   8.641   5.156  1.00  0.00    -0.191 NA
ENDROOT
BRANCH   2   8
HETATM    8  S   UNL     1      65.179   5.104   7.022  1.00  0.00     0.179 S 
HETATM    9  O   UNL     1      65.738   6.052   7.964  1.00  0.00    -0.222 OA
HETATM   10  O   UNL     1      64.497   3.907   7.466  1.00  0.00    -0.222 OA
HETATM   11  C   UNL     1      66.415   4.635   5.845  1.00  0.00     0.167 C 
ENDBRANCH   2   8
BRANCH   3  12
HETATM   12  C   UNL     1      62.500   8.581   3.733  1.00  0.00    -0.024 A 
HETATM   13  C   UNL     1      62.275   9.881   4.212  1.00  0.00     0.012 A 
HETATM   14  C   UNL     1      61.956  10.925   3.339  1.00  0.00     0.001 A 
HETATM   15  C   UNL     1      61.894  10.693   1.970  1.00  0.00     0.000 A 
HETATM   16  C   UNL     1      62.148   9.417   1.472  1.00  0.00     0.001 A 
HETATM   17  C   UNL     1      62.443   8.365   2.347  1.00  0.00     0.012 A 
ENDBRANCH   3  12
TORSDOF 2
ENDMDL
MODEL 2
REMARK VINA RESULT:      -5.6      1.512      2.077
REMARK  2 active torsions:
REMARK  status: ('A' for Active; 'I' for Inactive)
REMARK    1  A    between atoms: C_2  and  S_3 
REMARK    2  A    between atoms: C_4  and  C_11 
ROOT
HETATM    1  C   UNL     1      64.484   7.230   4.779  1.00  0.00     0.084 A 
HETATM    2  C   UNL     1      64.811   5.890   4.890  1.00  0.00     0.120 A 
HETATM    3  C   UNL     1      63.387   7.465   3.866  1.00  0.00     0.003 A 
HETATM    4  S   UNL     1      63.751   4.909   3.974  1.00  0.00    -0.088 SA
HETATM    5  C   UNL     1      62.897   6.264   3.382  1.00  0.00     0.065 A 
HETATM    6  C   UNL     1      65.187   8.252   5.501  1.00  0.00     0.102 C 
HETATM    7  N   UNL     1      65.720   9.116   6.062  1.00  0.00    -0.191 NA
ENDROOT
BRANCH   2   8
HETATM    8  S   UNL     1      66.108   5.027   5.753  1.00  0.00     0.179 S 
HETATM    9  O   UNL     1      65.895   3.622   5.468  1.00  0.00    -0.222 OA
HETATM   10  O   UNL     1      67.332   5.700   5.373  1.00  0.00    -0.222 OA
HETATM   11  C   UNL     1      65.812   5.338   7.470  1.00  0.00     0.167 C 
ENDBRANCH   2   8
BRANCH   3  12
HETATM   12  C   UNL     1      62.813   8.750   3.437  1.00  0.00    -0.024 A 
HETATM   13  C   UNL     1      62.480   8.964   2.090  1.00  0.00     0.012 A 
HETATM   14  C   UNL     1      61.976  10.195   1.660  1.00  0.00     0.001 A 
HETATM   15  C   UNL     1      61.761  11.218   2.576  1.00  0.00     0.000 A 
HETATM   16  C   UNL     1      62.052  11.013   3.923  1.00  0.00     0.001 A 
HETATM   17  C   UNL     1      62.581   9.789   4.351  1.00  0.00     0.012 A 
ENDBRANCH   3  12
TORSDOF 2
ENDMDL
MODEL 3
REMARK VINA RESULT:      -5.5      1.905      2.474
REMARK  2 active torsions:
REMARK  status: ('A' for Active; 'I' for Inactive)
REMARK    1  A    between atoms: C_2  and  S_3 
REMARK    2  A    between atoms: C_4  and  C_11 
ROOT
HETATM    1  C   UNL     1      64.405   6.655   6.007  1.00  0.00     0.084 A 
HETATM    2  C   UNL     1      65.551   6.069   6.515  1.00  0.00     0.120 A 
HETATM    3  C   UNL     1      64.682   7.833   5.215  1.00  0.00     0.003 A 
HETATM    4  S   UNL     1      66.959   6.873   5.970  1.00  0.00    -0.088 SA
HETATM    5  C   UNL     1      66.048   8.034   5.113  1.00  0.00     0.065 A 
HETATM    6  C   UNL     1      63.095   6.128   6.269  1.00  0.00     0.102 C 
HETATM    7  N   UNL     1      62.016   5.743   6.447  1.00  0.00    -0.191 NA
ENDROOT
BRANCH   2   8
HETATM    8  S   UNL     1      65.825   4.699   7.620  1.00  0.00     0.179 S 
HETATM    9  O   UNL     1      66.099   5.292   8.913  1.00  0.00    -0.222 OA
HETATM   10  O   UNL     1      64.698   3.815   7.416  1.00  0.00    -0.222 OA
HETATM   11  C   UNL     1      67.280   3.895   7.014  1.00  0.00     0.167 C 
ENDBRANCH   2   8
BRANCH   3  12
HETATM   12  C   UNL     1      63.726   8.755   4.582  1.00  0.00    -0.024 A 
HETATM   13  C   UNL     1      63.379   9.960   5.213  1.00  0.00     0.012 A 
HETATM   14  C   UNL     1      62.440  10.825   4.645  1.00  0.00     0.001 A 
HETATM   15  C   UNL     1      61.860  10.517   3.420  1.00  0.00     0.000 A 
HETATM   16  C   UNL     1      62.218   9.343   2.761  1.00  0.00     0.001 A 
HETATM   17  C   UNL     1      63.140   8.463   3.341  1.00  0.00     0.012 A 
ENDBRANCH   3  12
TORSDOF 2
ENDMDL
MODEL 4
REMARK VINA RESULT:      -5.3      2.182      2.727
REMARK  2 active torsions:
REMARK  status: ('A' for Active; 'I' for Inactive)
REMARK    1  A    between atoms: C_2  and  S_3 
REMARK    2  A    between atoms: C_4  and  C_11 
ROOT
HETATM    1  C   UNL     1      64.051   7.682   4.587  1.00  0.00     0.084 A 
HETATM    2  C   UNL     1      65.180   7.046   5.073  1.00  0.00     0.120 A 
HETATM    3  C   UNL     1      63.569   7.102   3.353  1.00  0.00     0.003 A 
HETATM    4  S   UNL     1      65.607   5.704   4.104  1.00  0.00    -0.088 SA
HETATM    5  C   UNL     1      64.335   6.002   3.006  1.00  0.00     0.065 A 
HETATM    6  C   UNL     1      63.454   8.802   5.259  1.00  0.00     0.102 C 
HETATM    7  N   UNL     1      62.933   9.708   5.761  1.00  0.00    -0.191 NA
ENDROOT
BRANCH   2   8
HETATM    8  S   UNL     1      66.255   7.373   6.455  1.00  0.00     0.179 S 
HETATM    9  O   UNL     1      66.741   8.723   6.257  1.00  0.00    -0.222 OA
HETATM   10  O   UNL     1      65.490   7.007   7.627  1.00  0.00    -0.222 OA
HETATM   11  C   UNL     1      67.594   6.228   6.285  1.00  0.00     0.167 C 
ENDBRANCH   2   8
BRANCH   3  12
HETATM   12  C   UNL     1      62.451   7.549   2.507  1.00  0.00    -0.024 A 
HETATM   13  C   UNL     1      61.251   6.823   2.474  1.00  0.00     0.012 A 
HETATM   14  C   UNL     1      60.197   7.211   1.643  1.00  0.00     0.001 A 
HETATM   15  C   UNL     1      60.313   8.353   0.858  1.00  0.00     0.000 A 
HETATM   16  C   UNL     1      61.483   9.107   0.903  1.00  0.00     0.001 A 
HETATM   17  C   UNL     1      62.549   8.705   1.717  1.00  0.00     0.012 A 
ENDBRANCH   3  12
TORSDOF 2
ENDMDL
MODEL 5
REMARK VINA RESULT:      -5.1      2.853      3.605
REMARK  2 active torsions:
REMARK  status: ('A' for Active; 'I' for Inactive)
REMARK    1  A    between atoms: C_2  and  S_3 
REMARK    2  A    between atoms: C_4  and  C_11 
ROOT
HETATM    1  C   UNL     1      63.359   7.865   3.746  1.00  0.00     0.084 A 
HETATM    2  C   UNL     1      64.140   8.482   4.707  1.00  0.00     0.120 A 
HETATM    3  C   UNL     1      62.149   8.600   3.451  1.00  0.00     0.003 A 
HETATM    4  S   UNL     1      63.471   9.981   5.189  1.00  0.00    -0.088 SA
HETATM    5  C   UNL     1      62.116   9.782   4.170  1.00  0.00     0.065 A 
HETATM    6  C   UNL     1      63.737   6.622   3.134  1.00  0.00     0.102 C 
HETATM    7  N   UNL     1      63.996   5.621   2.609  1.00  0.00    -0.191 NA
ENDROOT
BRANCH   2   8
HETATM    8  S   UNL     1      65.645   8.008   5.534  1.00  0.00     0.179 S 
HETATM    9  O   UNL     1      66.535   7.551   4.486  1.00  0.00    -0.222 OA
HETATM   10  O   UNL     1      65.985   9.132   6.380  1.00  0.00    -0.222 OA
HETATM   11  C   UNL     1      65.198   6.646   6.571  1.00  0.00     0.167 C 
ENDBRANCH   2   8
BRANCH   3  12
HETATM   12  C   UNL     1      61.047   8.225   2.550  1.00  0.00    -0.024 A 
HETATM   13  C   UNL     1      61.158   8.437   1.168  1.00  0.00     0.012 A 
HETATM   14  C   UNL     1      60.102   8.126   0.305  1.00  0.00     0.001 A 
HETATM   15  C   UNL     1      58.935   7.565   0.808  1.00  0.00     0.000 A 
HETATM   16  C   UNL     1      58.819   7.314   2.173  1.00  0.00     0.001 A 
HETATM   17  C   UNL     1      59.865   7.648   3.041  1.00  0.00     0.012 A 
ENDBRANCH   3  12
TORSDOF 2
ENDMDL
MODEL 6
REMARK VINA RESULT:      -5.0      2.611      3.087
REMARK  2 active torsions:
REMARK  status: ('A' for Active; 'I' for Inactive)
REMARK    1  A    between atoms: C_2  and  S_3 
REMARK    2  A    between atoms: C_4  and  C_11 
ROOT
HETATM    1  C   UNL     1      61.872   6.701   4.620  1.00  0.00     0.084 A 
HETATM    2  C   UNL     1      62.505   5.714   5.355  1.00  0.00     0.120 A 
HETATM    3  C   UNL     1      62.764   7.773   4.235  1.00  0.00     0.003 A 
HETATM    4  S   UNL     1      64.180   6.024   5.505  1.00  0.00    -0.088 SA
HETATM    5  C   UNL     1      64.055   7.497   4.651  1.00  0.00     0.065 A 
HETATM    6  C   UNL     1      60.473   6.640   4.301  1.00  0.00     0.102 C 
HETATM    7  N   UNL     1      59.349   6.639   4.015  1.00  0.00    -0.191 NA
ENDROOT
BRANCH   2   8
HETATM    8  S   UNL     1      61.916   4.247   6.174  1.00  0.00     0.179 S 
HETATM    9  O   UNL     1      60.958   4.710   7.158  1.00  0.00    -0.222 OA
HETATM   10  O   UNL     1      61.532   3.345   5.110  1.00  0.00    -0.222 OA
HETATM   11  C   UNL     1      63.331   3.571   6.994  1.00  0.00     0.167 C 
ENDBRANCH   2   8
BRANCH   3  12
HETATM   12  C   UNL     1      62.443   9.019   3.522  1.00  0.00    -0.024 A 
HETATM   13  C   UNL     1      62.271  10.218   4.230  1.00  0.00     0.012 A 
HETATM   14  C   UNL     1      61.922  11.400   3.570  1.00  0.00     0.001 A 
HETATM   15  C   UNL     1      61.777  11.409   2.188  1.00  0.00     0.000 A 
HETATM   16  C   UNL     1      61.978  10.237   1.463  1.00  0.00     0.001 A 
HETATM   17  C   UNL     1      62.303   9.046   2.125  1.00  0.00     0.012 A 
ENDBRANCH   3  12
TORSDOF 2
ENDMDL
MODEL 7
REMARK VINA RESULT:      -5.0      3.629      5.908
REMARK  2 active torsions:
REMARK  status: ('A' for Active; 'I' for Inactive)
REMARK    1  A    between atoms: C_2  and  S_3 
REMARK    2  A    between atoms: C_4  and  C_11 
ROOT
HETATM    1  C   UNL     1      63.647   8.066   3.981  1.00  0.00     0.084 A 
HETATM    2  C   UNL     1      62.872   7.883   2.849  1.00  0.00     0.120 A 
HETATM    3  C   UNL     1      64.609   7.004   4.178  1.00  0.00     0.003 A 
HETATM    4  S   UNL     1      63.356   6.494   1.977  1.00  0.00    -0.088 SA
HETATM    5  C   UNL     1      64.549   6.099   3.132  1.00  0.00     0.065 A 
HETATM    6  C   UNL     1      63.480   9.197   4.850  1.00  0.00     0.102 C 
HETATM    7  N   UNL     1      63.387  10.091   5.583  1.00  0.00    -0.191 NA
ENDROOT
BRANCH   2   8
HETATM    8  S   UNL     1      61.490   8.777   2.170  1.00  0.00     0.179 S 
HETATM    9  O   UNL     1      60.379   8.510   3.061  1.00  0.00    -0.222 OA
HETATM   10  O   UNL     1      61.977  10.122   1.949  1.00  0.00    -0.222 OA
HETATM   11  C   UNL     1      61.181   8.032   0.595  1.00  0.00     0.167 C 
ENDBRANCH   2   8
BRANCH   3  12
HETATM   12  C   UNL     1      65.544   6.813   5.298  1.00  0.00    -0.024 A 
HETATM   13  C   UNL     1      66.930   6.849   5.080  1.00  0.00     0.012 A 
HETATM   14  C   UNL     1      67.830   6.626   6.126  1.00  0.00     0.001 A 
HETATM   15  C   UNL     1      67.358   6.399   7.413  1.00  0.00     0.000 A 
HETATM   16  C   UNL     1      65.987   6.394   7.657  1.00  0.00     0.001 A 
HETATM   17  C   UNL     1      65.084   6.592   6.606  1.00  0.00     0.012 A 
ENDBRANCH   3  12
TORSDOF 2
ENDMDL
MODEL 8
REMARK VINA RESULT:      -4.9      3.530      4.285
REMARK  2 active torsions:
REMARK  status: ('A' for Active; 'I' for Inactive)
REMARK    1  A    between atoms: C_2  and  S_3 
REMARK    2  A    between atoms: C_4  and  C_11 
ROOT
HETATM    1  C   UNL     1      60.267   6.814   4.646  1.00  0.00     0.084 A 
HETATM    2  C   UNL     1      60.434   5.814   5.588  1.00  0.00     0.120 A 
HETATM    3  C   UNL     1      61.503   7.491   4.322  1.00  0.00     0.003 A 
HETATM    4  S   UNL     1      62.079   5.625   6.014  1.00  0.00    -0.088 SA
HETATM    5  C   UNL     1      62.562   6.910   4.999  1.00  0.00     0.065 A 
HETATM    6  C   UNL     1      58.985   7.127   4.080  1.00  0.00     0.102 C 
HETATM    7  N   UNL     1      57.974   7.418   3.591  1.00  0.00    -0.191 NA
ENDROOT
BRANCH   2   8
HETATM    8  S   UNL     1      59.290   4.744   6.435  1.00  0.00     0.179 S 
HETATM    9  O   UNL     1      58.373   5.627   7.127  1.00  0.00    -0.222 OA
HETATM   10  O   UNL     1      58.830   3.808   5.432  1.00  0.00    -0.222 OA
HETATM   11  C   UNL     1      60.268   3.858   7.616  1.00  0.00     0.167 C 
ENDBRANCH   2   8
BRANCH   3  12
HETATM   12  C   UNL     1      61.709   8.644   3.432  1.00  0.00    -0.024 A 
HETATM   13  C   UNL     1      61.735   9.947   3.952  1.00  0.00     0.012 A 
HETATM   14  C   UNL     1      61.885  11.054   3.113  1.00  0.00     0.001 A 
HETATM   15  C   UNL     1      62.049  10.874   1.744  1.00  0.00     0.000 A 
HETATM   16  C   UNL     1      62.062   9.587   1.213  1.00  0.00     0.001 A 
HETATM   17  C   UNL     1      61.886   8.478   2.049  1.00  0.00     0.012 A 
ENDBRANCH   3  12
TORSDOF 2
ENDMDL
MODEL 9
REMARK VINA RESULT:      -4.8      3.232      4.562
REMARK  2 active torsions:
REMARK  status: ('A' for Active; 'I' for Inactive)
REMARK    1  A    between atoms: C_2  and  S_3 
REMARK    2  A    between atoms: C_4  and  C_11 
ROOT
HETATM    1  C   UNL     1      60.248   6.892   4.695  1.00  0.00     0.084 A 
HETATM    2  C   UNL     1      60.438   5.884   5.624  1.00  0.00     0.120 A 
HETATM    3  C   UNL     1      61.480   7.550   4.321  1.00  0.00     0.003 A 
HETATM    4  S   UNL     1      62.097   5.666   5.978  1.00  0.00    -0.088 SA
HETATM    5  C   UNL     1      62.557   6.948   4.949  1.00  0.00     0.065 A 
HETATM    6  C   UNL     1      58.947   7.229   4.186  1.00  0.00     0.102 C 
HETATM    7  N   UNL     1      57.922   7.539   3.742  1.00  0.00    -0.191 NA
ENDROOT
BRANCH   2   8
HETATM    8  S   UNL     1      59.314   4.828   6.514  1.00  0.00     0.179 S 
HETATM    9  O   UNL     1      58.540   4.143   5.500  1.00  0.00    -0.222 OA
HETATM   10  O   UNL     1      60.139   4.102   7.457  1.00  0.00    -0.222 OA
HETATM   11  C   UNL     1      58.264   5.925   7.424  1.00  0.00     0.167 C 
ENDBRANCH   2   8
BRANCH   3  12
HETATM   12  C   UNL     1      61.667   8.705   3.429  1.00  0.00    -0.024 A 
HETATM   13  C   UNL     1      61.816   8.516   2.046  1.00  0.00     0.012 A 
HETATM   14  C   UNL     1      62.038   9.600   1.192  1.00  0.00     0.001 A 
HETATM   15  C   UNL     1      62.077  10.892   1.702  1.00  0.00     0.000 A 
HETATM   16  C   UNL     1      61.896  11.103   3.067  1.00  0.00     0.001 A 
HETATM   17  C   UNL     1      61.699  10.017   3.927  1.00  0.00     0.012 A 
ENDBRANCH   3  12
TORSDOF 2
ENDMDL
