MODEL 1
REMARK VINA RESULT:      -5.8      0.000      0.000
REMARK  4 active torsions:
REMARK  status: ('A' for Active; 'I' for Inactive)
REMARK    1  A    between atoms: C_1  and  S_5 
REMARK    2  A    between atoms: C_2  and  C_4 
REMARK    3  A    between atoms: S_5  and  C_13 
REMARK    4  A    between atoms: C_12  and  C_13 
ROOT
HETATM    1  C   UNL     1      62.034   9.917   2.593  1.00  0.00     0.041 A 
HETATM    2  C   UNL     1      62.183   8.955   3.605  1.00  0.00     0.026 A 
HETATM    3  C   UNL     1      62.340   7.592   3.297  1.00  0.00    -0.048 A 
HETATM    4  C   UNL     1      62.051   9.526   1.252  1.00  0.00     0.018 A 
HETATM    5  C   UNL     1      62.214   8.179   0.927  1.00  0.00     0.002 A 
HETATM    6  C   UNL     1      62.362   7.226   1.939  1.00  0.00     0.008 A 
ENDROOT
BRANCH   3   7
HETATM    7  C   UNL     1      62.586   6.517   4.344  1.00  0.00     0.118 C 
BRANCH   7   8
HETATM    8  S   UNL     1      62.885   7.123   6.031  1.00  0.00    -0.118 SA
BRANCH   8   9
HETATM    9  C   UNL     1      64.639   7.197   6.116  1.00  0.00     0.041 A 
HETATM   10  S   UNL     1      65.565   6.347   7.277  1.00  0.00    -0.095 SA
HETATM   11  C   UNL     1      67.015   7.101   6.773  1.00  0.00     0.051 A 
HETATM   12  C   UNL     1      66.808   7.964   5.720  1.00  0.00     0.009 A 
HETATM   13  C   UNL     1      65.434   8.012   5.335  1.00  0.00     0.026 A 
ENDBRANCH   8   9
ENDBRANCH   7   8
ENDBRANCH   3   7
BRANCH   1  14
HETATM   14  C   UNL     1      61.881  11.337   2.993  1.00  0.00     0.209 C 
HETATM   15  O   UNL     1      61.792  11.754   4.132  1.00  0.00    -0.644 OA
HETATM   16  O   UNL     1      61.861  12.181   1.943  1.00  0.00    -0.644 OA
ENDBRANCH   1  14
TORSDOF 4
ENDMDL
MODEL 2
REMARK VINA RESULT:      -5.5      1.832      2.642
REMARK  4 active torsions:
REMARK  status: ('A' for Active; 'I' for Inactive)
REMARK    1  A    between atoms: C_1  and  S_5 
REMARK    2  A    between atoms: C_2  and  C_4 
REMARK    3  A    between atoms: S_5  and  C_13 
REMARK    4  A    between atoms: C_12  and  C_13 
ROOT
HETATM    1  C   UNL     1      63.067   9.540   4.430  1.00  0.00     0.041 A 
HETATM    2  C   UNL     1      64.178   8.795   4.855  1.00  0.00     0.026 A 
HETATM    3  C   UNL     1      64.524   7.583   4.232  1.00  0.00    -0.048 A 
HETATM    4  C   UNL     1      62.289   9.083   3.362  1.00  0.00     0.018 A 
HETATM    5  C   UNL     1      62.623   7.887   2.726  1.00  0.00     0.002 A 
HETATM    6  C   UNL     1      63.730   7.150   3.155  1.00  0.00     0.008 A 
ENDROOT
BRANCH   3   7
HETATM    7  C   UNL     1      65.761   6.774   4.595  1.00  0.00     0.118 C 
BRANCH   7   8
HETATM    8  S   UNL     1      65.475   5.370   5.712  1.00  0.00    -0.118 SA
BRANCH   8   9
HETATM    9  C   UNL     1      66.435   5.788   7.122  1.00  0.00     0.041 A 
HETATM   10  S   UNL     1      67.999   5.162   7.421  1.00  0.00    -0.095 SA
HETATM   11  C   UNL     1      68.072   5.895   8.965  1.00  0.00     0.051 A 
HETATM   12  C   UNL     1      66.942   6.628   9.241  1.00  0.00     0.009 A 
HETATM   13  C   UNL     1      65.998   6.574   8.171  1.00  0.00     0.026 A 
ENDBRANCH   8   9
ENDBRANCH   7   8
ENDBRANCH   3   7
BRANCH   1  14
HETATM   14  C   UNL     1      62.767  10.813   5.129  1.00  0.00     0.209 C 
HETATM   15  O   UNL     1      63.160  11.132   6.234  1.00  0.00    -0.644 OA
HETATM   16  O   UNL     1      61.994  11.644   4.403  1.00  0.00    -0.644 OA
ENDBRANCH   1  14
TORSDOF 4
ENDMDL
MODEL 3
REMARK VINA RESULT:      -5.5      1.444      1.671
REMARK  4 active torsions:
REMARK  status: ('A' for Active; 'I' for Inactive)
REMARK    1  A    between atoms: C_1  and  S_5 
REMARK    2  A    between atoms: C_2  and  C_4 
REMARK    3  A    between atoms: S_5  and  C_13 
REMARK    4  A    between atoms: C_12  and  C_13 
ROOT
HETATM    1  C   UNL     1      62.448   9.940   3.612  1.00  0.00     0.041 A 
HETATM    2  C   UNL     1      63.077   8.693   3.743  1.00  0.00     0.026 A 
HETATM    3  C   UNL     1      63.074   7.762   2.688  1.00  0.00    -0.048 A 
HETATM    4  C   UNL     1      61.812  10.279   2.415  1.00  0.00     0.018 A 
HETATM    5  C   UNL     1      61.806   9.372   1.355  1.00  0.00     0.002 A 
HETATM    6  C   UNL     1      62.435   8.130   1.491  1.00  0.00     0.008 A 
ENDROOT
BRANCH   3   7
HETATM    7  C   UNL     1      63.806   6.430   2.741  1.00  0.00     0.118 C 
BRANCH   7   8
HETATM    8  S   UNL     1      63.897   5.652   4.381  1.00  0.00    -0.118 SA
BRANCH   8   9
HETATM    9  C   UNL     1      65.514   6.073   4.926  1.00  0.00     0.041 A 
HETATM   10  S   UNL     1      66.195   5.505   6.389  1.00  0.00    -0.095 SA
HETATM   11  C   UNL     1      67.582   6.490   6.204  1.00  0.00     0.051 A 
HETATM   12  C   UNL     1      67.546   7.218   5.037  1.00  0.00     0.009 A 
HETATM   13  C   UNL     1      66.353   6.969   4.293  1.00  0.00     0.026 A 
ENDBRANCH   8   9
ENDBRANCH   7   8
ENDBRANCH   3   7
BRANCH   1  14
HETATM   14  C   UNL     1      62.498  10.875   4.763  1.00  0.00     0.209 C 
HETATM   15  O   UNL     1      63.011  10.652   5.843  1.00  0.00    -0.644 OA
HETATM   16  O   UNL     1      61.915  12.061   4.506  1.00  0.00    -0.644 OA
ENDBRANCH   1  14
TORSDOF 4
ENDMDL
MODEL 4
REMARK VINA RESULT:      -5.2      3.198      4.732
REMARK  4 active torsions:
REMARK  status: ('A' for Active; 'I' for Inactive)
REMARK    1  A    between atoms: C_1  and  S_5 
REMARK    2  A    between atoms: C_2  and  C_4 
REMARK    3  A    between atoms: S_5  and  C_13 
REMARK    4  A    between atoms: C_12  and  C_13 
ROOT
HETATM    1  C   UNL     1      62.215  10.040   3.636  1.00  0.00     0.041 A 
HETATM    2  C   UNL     1      62.205   8.662   3.902  1.00  0.00     0.026 A 
HETATM    3  C   UNL     1      61.999   7.724   2.874  1.00  0.00    -0.048 A 
HETATM    4  C   UNL     1      62.029  10.500   2.330  1.00  0.00     0.018 A 
HETATM    5  C   UNL     1      61.831   9.584   1.296  1.00  0.00     0.002 A 
HETATM    6  C   UNL     1      61.822   8.212   1.567  1.00  0.00     0.008 A 
ENDROOT
BRANCH   3   7
HETATM    7  C   UNL     1      62.057   6.219   3.086  1.00  0.00     0.118 C 
BRANCH   7   8
HETATM    8  S   UNL     1      60.523   5.318   2.717  1.00  0.00    -0.118 SA
BRANCH   8   9
HETATM    9  C   UNL     1      59.332   6.149   3.706  1.00  0.00     0.041 A 
HETATM   10  S   UNL     1      58.914   5.661   5.291  1.00  0.00    -0.095 SA
HETATM   11  C   UNL     1      57.659   6.819   5.390  1.00  0.00     0.051 A 
HETATM   12  C   UNL     1      57.574   7.586   4.251  1.00  0.00     0.009 A 
HETATM   13  C   UNL     1      58.549   7.204   3.280  1.00  0.00     0.026 A 
ENDBRANCH   8   9
ENDBRANCH   7   8
ENDBRANCH   3   7
BRANCH   1  14
HETATM   14  C   UNL     1      62.446  10.971   4.768  1.00  0.00     0.209 C 
HETATM   15  O   UNL     1      63.066  10.721   5.784  1.00  0.00    -0.644 OA
HETATM   16  O   UNL     1      61.900  12.186   4.572  1.00  0.00    -0.644 OA
ENDBRANCH   1  14
TORSDOF 4
ENDMDL
MODEL 5
REMARK VINA RESULT:      -5.1      3.194      5.275
REMARK  4 active torsions:
REMARK  status: ('A' for Active; 'I' for Inactive)
REMARK    1  A    between atoms: C_1  and  S_5 
REMARK    2  A    between atoms: C_2  and  C_4 
REMARK    3  A    between atoms: S_5  and  C_13 
REMARK    4  A    between atoms: C_12  and  C_13 
ROOT
HETATM    1  C   UNL     1      63.405   9.253   4.805  1.00  0.00     0.041 A 
HETATM    2  C   UNL     1      63.106   8.695   3.552  1.00  0.00     0.026 A 
HETATM    3  C   UNL     1      62.304   9.381   2.622  1.00  0.00    -0.048 A 
HETATM    4  C   UNL     1      62.913  10.516   5.141  1.00  0.00     0.018 A 
HETATM    5  C   UNL     1      62.123  11.215   4.228  1.00  0.00     0.002 A 
HETATM    6  C   UNL     1      61.828  10.654   2.982  1.00  0.00     0.008 A 
ENDROOT
BRANCH   3   7
HETATM    7  C   UNL     1      62.013   8.864   1.221  1.00  0.00     0.118 C 
BRANCH   7   8
HETATM    8  S   UNL     1      60.338   8.208   0.964  1.00  0.00    -0.118 SA
BRANCH   8   9
HETATM    9  C   UNL     1      60.086   7.206   2.385  1.00  0.00     0.041 A 
HETATM   10  S   UNL     1      60.722   5.627   2.552  1.00  0.00    -0.095 SA
HETATM   11  C   UNL     1      59.884   5.372   4.021  1.00  0.00     0.051 A 
HETATM   12  C   UNL     1      59.155   6.476   4.398  1.00  0.00     0.009 A 
HETATM   13  C   UNL     1      59.280   7.541   3.455  1.00  0.00     0.026 A 
ENDBRANCH   8   9
ENDBRANCH   7   8
ENDBRANCH   3   7
BRANCH   1  14
HETATM   14  C   UNL     1      64.264   8.475   5.731  1.00  0.00     0.209 C 
HETATM   15  O   UNL     1      63.931   7.484   6.353  1.00  0.00    -0.644 OA
HETATM   16  O   UNL     1      65.515   8.965   5.829  1.00  0.00    -0.644 OA
ENDBRANCH   1  14
TORSDOF 4
ENDMDL
MODEL 6
REMARK VINA RESULT:      -5.1      3.239      5.349
REMARK  4 active torsions:
REMARK  status: ('A' for Active; 'I' for Inactive)
REMARK    1  A    between atoms: C_1  and  S_5 
REMARK    2  A    between atoms: C_2  and  C_4 
REMARK    3  A    between atoms: S_5  and  C_13 
REMARK    4  A    between atoms: C_12  and  C_13 
ROOT
HETATM    1  C   UNL     1      62.580   9.693   3.995  1.00  0.00     0.041 A 
HETATM    2  C   UNL     1      62.755   8.499   3.276  1.00  0.00     0.026 A 
HETATM    3  C   UNL     1      62.421   8.414   1.913  1.00  0.00    -0.048 A 
HETATM    4  C   UNL     1      62.076  10.826   3.351  1.00  0.00     0.018 A 
HETATM    5  C   UNL     1      61.747  10.763   1.997  1.00  0.00     0.002 A 
HETATM    6  C   UNL     1      61.923   9.571   1.287  1.00  0.00     0.008 A 
ENDROOT
BRANCH   3   7
HETATM    7  C   UNL     1      62.663   7.176   1.064  1.00  0.00     0.118 C 
BRANCH   7   8
HETATM    8  S   UNL     1      61.742   5.692   1.567  1.00  0.00    -0.118 SA
BRANCH   8   9
HETATM    9  C   UNL     1      60.129   6.317   1.876  1.00  0.00     0.041 A 
HETATM   10  S   UNL     1      59.069   6.848   0.642  1.00  0.00    -0.095 SA
HETATM   11  C   UNL     1      57.922   7.415   1.778  1.00  0.00     0.051 A 
HETATM   12  C   UNL     1      58.320   7.180   3.074  1.00  0.00     0.009 A 
HETATM   13  C   UNL     1      59.593   6.537   3.130  1.00  0.00     0.026 A 
ENDBRANCH   8   9
ENDBRANCH   7   8
ENDBRANCH   3   7
BRANCH   1  14
HETATM   14  C   UNL     1      62.962   9.711   5.428  1.00  0.00     0.209 C 
HETATM   15  O   UNL     1      62.987   8.751   6.173  1.00  0.00    -0.644 OA
HETATM   16  O   UNL     1      63.313  10.936   5.865  1.00  0.00    -0.644 OA
ENDBRANCH   1  14
TORSDOF 4
ENDMDL
MODEL 7
REMARK VINA RESULT:      -5.0      3.323      5.597
REMARK  4 active torsions:
REMARK  status: ('A' for Active; 'I' for Inactive)
REMARK    1  A    between atoms: C_1  and  S_5 
REMARK    2  A    between atoms: C_2  and  C_4 
REMARK    3  A    between atoms: S_5  and  C_13 
REMARK    4  A    between atoms: C_12  and  C_13 
ROOT
HETATM    1  C   UNL     1      63.200   9.533   4.594  1.00  0.00     0.041 A 
HETATM    2  C   UNL     1      62.395   8.998   3.576  1.00  0.00     0.026 A 
HETATM    3  C   UNL     1      62.714   7.773   2.963  1.00  0.00    -0.048 A 
HETATM    4  C   UNL     1      64.335   8.839   5.022  1.00  0.00     0.018 A 
HETATM    5  C   UNL     1      64.662   7.618   4.432  1.00  0.00     0.002 A 
HETATM    6  C   UNL     1      63.856   7.091   3.418  1.00  0.00     0.008 A 
ENDROOT
BRANCH   3   7
HETATM    7  C   UNL     1      61.838   7.106   1.914  1.00  0.00     0.118 C 
BRANCH   7   8
HETATM    8  S   UNL     1      60.480   8.125   1.266  1.00  0.00    -0.118 SA
BRANCH   8   9
HETATM    9  C   UNL     1      59.082   7.518   2.139  1.00  0.00     0.041 A 
HETATM   10  S   UNL     1      57.698   6.867   1.371  1.00  0.00    -0.095 SA
HETATM   11  C   UNL     1      56.856   6.732   2.854  1.00  0.00     0.051 A 
HETATM   12  C   UNL     1      57.620   7.146   3.921  1.00  0.00     0.009 A 
HETATM   13  C   UNL     1      58.912   7.592   3.507  1.00  0.00     0.026 A 
ENDBRANCH   8   9
ENDBRANCH   7   8
ENDBRANCH   3   7
BRANCH   1  14
HETATM   14  C   UNL     1      62.798  10.826   5.200  1.00  0.00     0.209 C 
HETATM   15  O   UNL     1      63.150  11.247   6.285  1.00  0.00    -0.644 OA
HETATM   16  O   UNL     1      61.981  11.547   4.409  1.00  0.00    -0.644 OA
ENDBRANCH   1  14
TORSDOF 4
ENDMDL
MODEL 8
REMARK VINA RESULT:      -5.0      3.766      6.784
REMARK  4 active torsions:
REMARK  status: ('A' for Active; 'I' for Inactive)
REMARK    1  A    between atoms: C_1  and  S_5 
REMARK    2  A    between atoms: C_2  and  C_4 
REMARK    3  A    between atoms: S_5  and  C_13 
REMARK    4  A    between atoms: C_12  and  C_13 
ROOT
HETATM    1  C   UNL     1      66.606   6.256   7.249  1.00  0.00     0.041 A 
HETATM    2  C   UNL     1      65.647   7.222   6.904  1.00  0.00     0.026 A 
HETATM    3  C   UNL     1      65.697   7.887   5.666  1.00  0.00    -0.048 A 
HETATM    4  C   UNL     1      67.625   5.934   6.349  1.00  0.00     0.018 A 
HETATM    5  C   UNL     1      67.685   6.577   5.113  1.00  0.00     0.002 A 
HETATM    6  C   UNL     1      66.728   7.538   4.775  1.00  0.00     0.008 A 
ENDROOT
BRANCH   3   7
HETATM    7  C   UNL     1      64.643   8.882   5.204  1.00  0.00     0.118 C 
BRANCH   7   8
HETATM    8  S   UNL     1      62.966   8.209   5.008  1.00  0.00    -0.118 SA
BRANCH   8   9
HETATM    9  C   UNL     1      62.452   8.881   3.468  1.00  0.00     0.041 A 
HETATM   10  S   UNL     1      62.459   7.997   2.002  1.00  0.00    -0.095 SA
HETATM   11  C   UNL     1      62.029   9.378   1.088  1.00  0.00     0.051 A 
HETATM   12  C   UNL     1      61.853  10.488   1.883  1.00  0.00     0.009 A 
HETATM   13  C   UNL     1      62.089  10.197   3.261  1.00  0.00     0.026 A 
ENDBRANCH   8   9
ENDBRANCH   7   8
ENDBRANCH   3   7
BRANCH   1  14
HETATM   14  C   UNL     1      66.486   5.590   8.569  1.00  0.00     0.209 C 
HETATM   15  O   UNL     1      66.569   4.395   8.777  1.00  0.00    -0.644 OA
HETATM   16  O   UNL     1      66.283   6.456   9.581  1.00  0.00    -0.644 OA
ENDBRANCH   1  14
TORSDOF 4
ENDMDL
MODEL 9
REMARK VINA RESULT:      -4.9      2.106      3.104
REMARK  4 active torsions:
REMARK  status: ('A' for Active; 'I' for Inactive)
REMARK    1  A    between atoms: C_1  and  S_5 
REMARK    2  A    between atoms: C_2  and  C_4 
REMARK    3  A    between atoms: S_5  and  C_13 
REMARK    4  A    between atoms: C_12  and  C_13 
ROOT
HETATM    1  C   UNL     1      62.287   9.200   2.669  1.00  0.00     0.041 A 
HETATM    2  C   UNL     1      63.081   8.345   3.450  1.00  0.00     0.026 A 
HETATM    3  C   UNL     1      63.528   8.732   4.726  1.00  0.00    -0.048 A 
HETATM    4  C   UNL     1      61.920  10.454   3.162  1.00  0.00     0.018 A 
HETATM    5  C   UNL     1      62.347  10.851   4.429  1.00  0.00     0.002 A 
HETATM    6  C   UNL     1      63.138   9.996   5.202  1.00  0.00     0.008 A 
ENDROOT
BRANCH   3   7
HETATM    7  C   UNL     1      64.321   7.820   5.650  1.00  0.00     0.118 C 
BRANCH   7   8
HETATM    8  S   UNL     1      65.900   7.215   4.984  1.00  0.00    -0.118 SA
BRANCH   8   9
HETATM    9  C   UNL     1      66.731   6.627   6.416  1.00  0.00     0.041 A 
HETATM   10  S   UNL     1      67.776   5.272   6.413  1.00  0.00    -0.095 SA
HETATM   11  C   UNL     1      67.951   5.317   8.114  1.00  0.00     0.051 A 
HETATM   12  C   UNL     1      67.253   6.361   8.677  1.00  0.00     0.009 A 
HETATM   13  C   UNL     1      66.554   7.124   7.693  1.00  0.00     0.026 A 
ENDBRANCH   8   9
ENDBRANCH   7   8
ENDBRANCH   3   7
BRANCH   1  14
HETATM   14  C   UNL     1      61.844   8.722   1.336  1.00  0.00     0.209 C 
HETATM   15  O   UNL     1      62.473   8.812   0.299  1.00  0.00    -0.644 OA
HETATM   16  O   UNL     1      60.633   8.133   1.362  1.00  0.00    -0.644 OA
ENDBRANCH   1  14
TORSDOF 4
ENDMDL
