MODEL 1
REMARK VINA RESULT:      -5.3      0.000      0.000
REMARK  6 active torsions:
REMARK  status: ('A' for Active; 'I' for Inactive)
REMARK    1  A    between atoms: C_2  and  S_8 
REMARK    2  A    between atoms: C_4  and  C_6 
REMARK    3  A    between atoms: C_6  and  O_12 
REMARK    4  A    between atoms: S_8  and  C_15 
REMARK    5  A    between atoms: O_12  and  C_16 
REMARK    6  A    between atoms: C_15  and  C_17 
ROOT
HETATM    1  C   UNL     1      64.028   8.978   4.844  1.00  0.00     0.041 C 
HETATM    2  C   UNL     1      65.036   8.072   5.122  1.00  0.00     0.056 C 
HETATM    3  C   UNL     1      63.083   8.439   3.881  1.00  0.00    -0.019 C 
HETATM    4  C   UNL     1      63.416   7.149   3.484  1.00  0.00     0.088 C 
HETATM    5  S   UNL     1      64.963   6.719   4.075  1.00  0.00    -0.076 SA
HETATM    6  C   UNL     1      63.833  10.307   5.440  1.00  0.00     0.162 C 
HETATM    7  O   UNL     1      64.638  10.840   6.201  1.00  0.00    -0.292 OA
HETATM    8  C   UNL     1      61.858   9.215   3.478  1.00  0.00     0.042 C 
HETATM    9  C   UNL     1      62.511  10.995   5.135  1.00  0.00     0.084 C 
HETATM   10  C   UNL     1      62.043  10.714   3.712  1.00  0.00     0.012 C 
ENDROOT
BRANCH   4  11
HETATM   11  C   UNL     1      62.685   6.170   2.697  1.00  0.00     0.300 C 
HETATM   12  O   UNL     1      61.754   5.464   3.083  1.00  0.00    -0.259 OA
BRANCH  11  13
HETATM   13  O   UNL     1      63.145   6.181   1.411  1.00  0.00    -0.317 OA
BRANCH  13  14
HETATM   14  C   UNL     1      62.210   6.536   0.389  1.00  0.00     0.174 C 
HETATM   15  C   UNL     1      62.169   8.041   0.201  1.00  0.00     0.034 C 
ENDBRANCH  13  14
ENDBRANCH  11  13
ENDBRANCH   4  11
BRANCH   2  16
HETATM   16  S   UNL     1      66.321   8.132   6.323  1.00  0.00    -0.122 SA
BRANCH  16  17
HETATM   17  C   UNL     1      65.991   6.634   7.312  1.00  0.00     0.080 C 
BRANCH  17  18
HETATM   18  C   UNL     1      66.503   6.633   8.755  1.00  0.00     0.006 C 
HETATM   19  C   UNL     1      67.831   5.926   8.979  1.00  0.00     0.006 C 
ENDBRANCH  17  18
ENDBRANCH  16  17
ENDBRANCH   2  16
TORSDOF 6
ENDMDL
MODEL 2
REMARK VINA RESULT:      -5.2      2.237      5.499
REMARK  6 active torsions:
REMARK  status: ('A' for Active; 'I' for Inactive)
REMARK    1  A    between atoms: C_2  and  S_8 
REMARK    2  A    between atoms: C_4  and  C_6 
REMARK    3  A    between atoms: C_6  and  O_12 
REMARK    4  A    between atoms: S_8  and  C_15 
REMARK    5  A    between atoms: O_12  and  C_16 
REMARK    6  A    between atoms: C_15  and  C_17 
ROOT
HETATM    1  C   UNL     1      62.766   8.383   2.622  1.00  0.00     0.041 C 
HETATM    2  C   UNL     1      63.172   7.079   2.399  1.00  0.00     0.056 C 
HETATM    3  C   UNL     1      63.109   8.822   3.963  1.00  0.00    -0.019 C 
HETATM    4  C   UNL     1      63.764   7.834   4.688  1.00  0.00     0.088 C 
HETATM    5  S   UNL     1      63.732   6.347   3.843  1.00  0.00    -0.076 SA
HETATM    6  C   UNL     1      62.118   9.291   1.665  1.00  0.00     0.162 C 
HETATM    7  O   UNL     1      61.741   8.950   0.546  1.00  0.00    -0.292 OA
HETATM    8  C   UNL     1      62.833  10.232   4.413  1.00  0.00     0.042 C 
HETATM    9  C   UNL     1      61.998  10.746   2.093  1.00  0.00     0.084 C 
HETATM   10  C   UNL     1      61.719  10.874   3.586  1.00  0.00     0.012 C 
ENDROOT
BRANCH   4  11
HETATM   11  C   UNL     1      64.440   7.877   5.975  1.00  0.00     0.300 C 
HETATM   12  O   UNL     1      64.128   7.256   6.990  1.00  0.00    -0.259 OA
BRANCH  11  13
HETATM   13  O   UNL     1      65.541   8.679   5.885  1.00  0.00    -0.317 OA
BRANCH  13  14
HETATM   14  C   UNL     1      66.796   8.104   6.257  1.00  0.00     0.174 C 
HETATM   15  C   UNL     1      67.609   7.750   5.026  1.00  0.00     0.034 C 
ENDBRANCH  13  14
ENDBRANCH  11  13
ENDBRANCH   4  11
BRANCH   2  16
HETATM   16  S   UNL     1      63.169   6.122   0.923  1.00  0.00    -0.122 SA
BRANCH  16  17
HETATM   17  C   UNL     1      61.692   5.073   1.147  1.00  0.00     0.080 C 
BRANCH  17  18
HETATM   18  C   UNL     1      60.384   5.789   1.494  1.00  0.00     0.006 C 
HETATM   19  C   UNL     1      59.869   5.564   2.907  1.00  0.00     0.006 C 
ENDBRANCH  17  18
ENDBRANCH  16  17
ENDBRANCH   2  16
TORSDOF 6
ENDMDL
MODEL 3
REMARK VINA RESULT:      -5.2      0.999      1.632
REMARK  6 active torsions:
REMARK  status: ('A' for Active; 'I' for Inactive)
REMARK    1  A    between atoms: C_2  and  S_8 
REMARK    2  A    between atoms: C_4  and  C_6 
REMARK    3  A    between atoms: C_6  and  O_12 
REMARK    4  A    between atoms: S_8  and  C_15 
REMARK    5  A    between atoms: O_12  and  C_16 
REMARK    6  A    between atoms: C_15  and  C_17 
ROOT
HETATM    1  C   UNL     1      63.932   9.027   4.710  1.00  0.00     0.041 C 
HETATM    2  C   UNL     1      64.894   8.069   4.977  1.00  0.00     0.056 C 
HETATM    3  C   UNL     1      62.991   8.566   3.705  1.00  0.00    -0.019 C 
HETATM    4  C   UNL     1      63.280   7.280   3.265  1.00  0.00     0.088 C 
HETATM    5  S   UNL     1      64.791   6.761   3.877  1.00  0.00    -0.076 SA
HETATM    6  C   UNL     1      63.779  10.340   5.353  1.00  0.00     0.162 C 
HETATM    7  O   UNL     1      64.586  10.808   6.153  1.00  0.00    -0.292 OA
HETATM    8  C   UNL     1      61.811   9.409   3.302  1.00  0.00     0.042 C 
HETATM    9  C   UNL     1      62.495  11.095   5.043  1.00  0.00     0.084 C 
HETATM   10  C   UNL     1      62.053  10.889   3.599  1.00  0.00     0.012 C 
ENDROOT
BRANCH   4  11
HETATM   11  C   UNL     1      62.529   6.363   2.422  1.00  0.00     0.300 C 
HETATM   12  O   UNL     1      62.641   6.225   1.205  1.00  0.00    -0.259 OA
BRANCH  11  13
HETATM   13  O   UNL     1      61.698   5.607   3.198  1.00  0.00    -0.317 OA
BRANCH  13  14
HETATM   14  C   UNL     1      60.312   5.957   3.199  1.00  0.00     0.174 C 
HETATM   15  C   UNL     1      59.874   6.406   4.580  1.00  0.00     0.034 C 
ENDBRANCH  13  14
ENDBRANCH  11  13
ENDBRANCH   4  11
BRANCH   2  16
HETATM   16  S   UNL     1      66.148   8.027   6.210  1.00  0.00    -0.122 SA
BRANCH  16  17
HETATM   17  C   UNL     1      65.547   6.714   7.326  1.00  0.00     0.080 C 
BRANCH  17  18
HETATM   18  C   UNL     1      66.328   6.501   8.625  1.00  0.00     0.006 C 
HETATM   19  C   UNL     1      67.754   6.000   8.457  1.00  0.00     0.006 C 
ENDBRANCH  17  18
ENDBRANCH  16  17
ENDBRANCH   2  16
TORSDOF 6
ENDMDL
MODEL 4
REMARK VINA RESULT:      -4.8      3.193      6.098
REMARK  6 active torsions:
REMARK  status: ('A' for Active; 'I' for Inactive)
REMARK    1  A    between atoms: C_2  and  S_8 
REMARK    2  A    between atoms: C_4  and  C_6 
REMARK    3  A    between atoms: C_6  and  O_12 
REMARK    4  A    between atoms: S_8  and  C_15 
REMARK    5  A    between atoms: O_12  and  C_16 
REMARK    6  A    between atoms: C_15  and  C_17 
ROOT
HETATM    1  C   UNL     1      61.128   7.736   2.761  1.00  0.00     0.041 C 
HETATM    2  C   UNL     1      60.642   6.467   3.023  1.00  0.00     0.056 C 
HETATM    3  C   UNL     1      61.949   8.224   3.855  1.00  0.00    -0.019 C 
HETATM    4  C   UNL     1      62.052   7.300   4.888  1.00  0.00     0.088 C 
HETATM    5  S   UNL     1      60.978   5.992   4.634  1.00  0.00    -0.076 SA
HETATM    6  C   UNL     1      60.933   8.531   1.540  1.00  0.00     0.162 C 
HETATM    7  O   UNL     1      60.191   8.199   0.619  1.00  0.00    -0.292 OA
HETATM    8  C   UNL     1      62.648   9.554   3.767  1.00  0.00     0.042 C 
HETATM    9  C   UNL     1      61.776   9.792   1.417  1.00  0.00     0.084 C 
HETATM   10  C   UNL     1      61.963  10.481   2.763  1.00  0.00     0.012 C 
ENDROOT
BRANCH   4  11
HETATM   11  C   UNL     1      62.893   7.277   6.074  1.00  0.00     0.300 C 
HETATM   12  O   UNL     1      62.650   7.808   7.157  1.00  0.00    -0.259 OA
BRANCH  11  13
HETATM   13  O   UNL     1      63.997   6.510   5.836  1.00  0.00    -0.317 OA
BRANCH  13  14
HETATM   14  C   UNL     1      65.264   7.064   6.196  1.00  0.00     0.174 C 
HETATM   15  C   UNL     1      65.784   7.971   5.097  1.00  0.00     0.034 C 
ENDBRANCH  13  14
ENDBRANCH  11  13
ENDBRANCH   4  11
BRANCH   2  16
HETATM   16  S   UNL     1      59.759   5.351   1.990  1.00  0.00    -0.122 SA
BRANCH  16  17
HETATM   17  C   UNL     1      58.060   6.012   2.074  1.00  0.00     0.080 C 
BRANCH  17  18
HETATM   18  C   UNL     1      57.403   6.055   3.457  1.00  0.00     0.006 C 
HETATM   19  C   UNL     1      57.417   7.410   4.147  1.00  0.00     0.006 C 
ENDBRANCH  17  18
ENDBRANCH  16  17
ENDBRANCH   2  16
TORSDOF 6
ENDMDL
MODEL 5
REMARK VINA RESULT:      -4.8      1.811      5.695
REMARK  6 active torsions:
REMARK  status: ('A' for Active; 'I' for Inactive)
REMARK    1  A    between atoms: C_2  and  S_8 
REMARK    2  A    between atoms: C_4  and  C_6 
REMARK    3  A    between atoms: C_6  and  O_12 
REMARK    4  A    between atoms: S_8  and  C_15 
REMARK    5  A    between atoms: O_12  and  C_16 
REMARK    6  A    between atoms: C_15  and  C_17 
ROOT
HETATM    1  C   UNL     1      62.588   8.050   4.230  1.00  0.00     0.041 C 
HETATM    2  C   UNL     1      62.712   6.672   4.205  1.00  0.00     0.056 C 
HETATM    3  C   UNL     1      63.678   8.665   4.969  1.00  0.00    -0.019 C 
HETATM    4  C   UNL     1      64.577   7.726   5.459  1.00  0.00     0.088 C 
HETATM    5  S   UNL     1      63.971   6.141   5.238  1.00  0.00    -0.076 SA
HETATM    6  C   UNL     1      61.554   8.864   3.577  1.00  0.00     0.162 C 
HETATM    7  O   UNL     1      60.574   8.394   3.004  1.00  0.00    -0.292 OA
HETATM    8  C   UNL     1      63.797  10.162   5.070  1.00  0.00     0.042 C 
HETATM    9  C   UNL     1      61.791  10.368   3.563  1.00  0.00     0.084 C 
HETATM   10  C   UNL     1      62.449  10.847   4.851  1.00  0.00     0.012 C 
ENDROOT
BRANCH   4  11
HETATM   11  C   UNL     1      65.880   7.881   6.084  1.00  0.00     0.300 C 
HETATM   12  O   UNL     1      66.879   8.395   5.581  1.00  0.00    -0.259 OA
BRANCH  11  13
HETATM   13  O   UNL     1      65.830   7.422   7.368  1.00  0.00    -0.317 OA
BRANCH  13  14
HETATM   14  C   UNL     1      66.920   6.612   7.813  1.00  0.00     0.174 C 
HETATM   15  C   UNL     1      66.956   6.548   9.328  1.00  0.00     0.034 C 
ENDBRANCH  13  14
ENDBRANCH  11  13
ENDBRANCH   4  11
BRANCH   2  16
HETATM   16  S   UNL     1      61.790   5.462   3.321  1.00  0.00    -0.122 SA
BRANCH  16  17
HETATM   17  C   UNL     1      63.015   4.852   2.114  1.00  0.00     0.080 C 
BRANCH  17  18
HETATM   18  C   UNL     1      63.573   5.874   1.119  1.00  0.00     0.006 C 
HETATM   19  C   UNL     1      62.548   6.814   0.501  1.00  0.00     0.006 C 
ENDBRANCH  17  18
ENDBRANCH  16  17
ENDBRANCH   2  16
TORSDOF 6
ENDMDL
MODEL 6
REMARK VINA RESULT:      -4.7      2.094      2.800
REMARK  6 active torsions:
REMARK  status: ('A' for Active; 'I' for Inactive)
REMARK    1  A    between atoms: C_2  and  S_8 
REMARK    2  A    between atoms: C_4  and  C_6 
REMARK    3  A    between atoms: C_6  and  O_12 
REMARK    4  A    between atoms: S_8  and  C_15 
REMARK    5  A    between atoms: O_12  and  C_16 
REMARK    6  A    between atoms: C_15  and  C_17 
ROOT
HETATM    1  C   UNL     1      63.561   8.508   4.131  1.00  0.00     0.041 C 
HETATM    2  C   UNL     1      64.182   7.304   3.848  1.00  0.00     0.056 C 
HETATM    3  C   UNL     1      62.373   8.696   3.316  1.00  0.00    -0.019 C 
HETATM    4  C   UNL     1      62.147   7.623   2.462  1.00  0.00     0.088 C 
HETATM    5  S   UNL     1      63.478   6.548   2.482  1.00  0.00    -0.076 SA
HETATM    6  C   UNL     1      63.954   9.497   5.145  1.00  0.00     0.162 C 
HETATM    7  O   UNL     1      64.986   9.424   5.807  1.00  0.00    -0.292 OA
HETATM    8  C   UNL     1      61.490   9.901   3.498  1.00  0.00     0.042 C 
HETATM    9  C   UNL     1      62.960  10.618   5.413  1.00  0.00     0.084 C 
HETATM   10  C   UNL     1      62.252  11.061   4.138  1.00  0.00     0.012 C 
ENDROOT
BRANCH   4  11
HETATM   11  C   UNL     1      61.012   7.294   1.616  1.00  0.00     0.300 C 
HETATM   12  O   UNL     1      60.727   7.810   0.537  1.00  0.00    -0.259 OA
BRANCH  11  13
HETATM   13  O   UNL     1      60.315   6.258   2.168  1.00  0.00    -0.317 OA
BRANCH  13  14
HETATM   14  C   UNL     1      59.282   6.591   3.098  1.00  0.00     0.174 C 
HETATM   15  C   UNL     1      59.660   6.149   4.500  1.00  0.00     0.034 C 
ENDBRANCH  13  14
ENDBRANCH  11  13
ENDBRANCH   4  11
BRANCH   2  16
HETATM   16  S   UNL     1      65.530   6.503   4.645  1.00  0.00    -0.122 SA
BRANCH  16  17
HETATM   17  C   UNL     1      64.777   5.951   6.213  1.00  0.00     0.080 C 
BRANCH  17  18
HETATM   18  C   UNL     1      63.284   5.615   6.181  1.00  0.00     0.006 C 
HETATM   19  C   UNL     1      62.937   4.151   6.405  1.00  0.00     0.006 C 
ENDBRANCH  17  18
ENDBRANCH  16  17
ENDBRANCH   2  16
TORSDOF 6
ENDMDL
MODEL 7
REMARK VINA RESULT:      -4.7      2.499      5.435
REMARK  6 active torsions:
REMARK  status: ('A' for Active; 'I' for Inactive)
REMARK    1  A    between atoms: C_2  and  S_8 
REMARK    2  A    between atoms: C_4  and  C_6 
REMARK    3  A    between atoms: C_6  and  O_12 
REMARK    4  A    between atoms: S_8  and  C_15 
REMARK    5  A    between atoms: O_12  and  C_16 
REMARK    6  A    between atoms: C_15  and  C_17 
ROOT
HETATM    1  C   UNL     1      61.565   8.034   2.668  1.00  0.00     0.041 C 
HETATM    2  C   UNL     1      61.306   6.674   2.687  1.00  0.00     0.056 C 
HETATM    3  C   UNL     1      62.160   8.476   3.918  1.00  0.00    -0.019 C 
HETATM    4  C   UNL     1      62.330   7.430   4.818  1.00  0.00     0.088 C 
HETATM    5  S   UNL     1      61.559   6.014   4.247  1.00  0.00    -0.076 SA
HETATM    6  C   UNL     1      61.349   8.968   1.555  1.00  0.00     0.162 C 
HETATM    7  O   UNL     1      60.784   8.664   0.507  1.00  0.00    -0.292 OA
HETATM    8  C   UNL     1      62.596   9.904   4.107  1.00  0.00     0.042 C 
HETATM    9  C   UNL     1      61.944  10.359   1.718  1.00  0.00     0.084 C 
HETATM   10  C   UNL     1      61.854  10.846   3.159  1.00  0.00     0.012 C 
ENDROOT
BRANCH   4  11
HETATM   11  C   UNL     1      63.033   7.364   6.089  1.00  0.00     0.300 C 
HETATM   12  O   UNL     1      62.658   7.837   7.160  1.00  0.00    -0.259 OA
BRANCH  11  13
HETATM   13  O   UNL     1      64.174   6.629   5.942  1.00  0.00    -0.317 OA
BRANCH  13  14
HETATM   14  C   UNL     1      65.401   7.247   6.336  1.00  0.00     0.174 C 
HETATM   15  C   UNL     1      65.920   6.635   7.623  1.00  0.00     0.034 C 
ENDBRANCH  13  14
ENDBRANCH  11  13
ENDBRANCH   4  11
BRANCH   2  16
HETATM   16  S   UNL     1      60.765   5.602   1.402  1.00  0.00    -0.122 SA
BRANCH  16  17
HETATM   17  C   UNL     1      62.286   4.671   1.013  1.00  0.00     0.080 C 
BRANCH  17  18
HETATM   18  C   UNL     1      63.596   5.463   1.003  1.00  0.00     0.006 C 
HETATM   19  C   UNL     1      64.600   5.082   2.080  1.00  0.00     0.006 C 
ENDBRANCH  17  18
ENDBRANCH  16  17
ENDBRANCH   2  16
TORSDOF 6
ENDMDL
MODEL 8
REMARK VINA RESULT:      -4.6      3.197      5.539
REMARK  6 active torsions:
REMARK  status: ('A' for Active; 'I' for Inactive)
REMARK    1  A    between atoms: C_2  and  S_8 
REMARK    2  A    between atoms: C_4  and  C_6 
REMARK    3  A    between atoms: C_6  and  O_12 
REMARK    4  A    between atoms: S_8  and  C_15 
REMARK    5  A    between atoms: O_12  and  C_16 
REMARK    6  A    between atoms: C_15  and  C_17 
ROOT
HETATM    1  C   UNL     1      61.210   7.360   3.763  1.00  0.00     0.041 C 
HETATM    2  C   UNL     1      61.194   6.653   4.953  1.00  0.00     0.056 C 
HETATM    3  C   UNL     1      62.331   8.282   3.711  1.00  0.00    -0.019 C 
HETATM    4  C   UNL     1      63.113   8.225   4.859  1.00  0.00     0.088 C 
HETATM    5  S   UNL     1      62.356   7.262   6.054  1.00  0.00    -0.076 SA
HETATM    6  C   UNL     1      60.287   7.216   2.628  1.00  0.00     0.162 C 
HETATM    7  O   UNL     1      59.284   6.507   2.648  1.00  0.00    -0.292 OA
HETATM    8  C   UNL     1      62.599   9.108   2.482  1.00  0.00     0.042 C 
HETATM    9  C   UNL     1      60.677   7.943   1.349  1.00  0.00     0.084 C 
HETATM   10  C   UNL     1      61.336   9.285   1.640  1.00  0.00     0.012 C 
ENDROOT
BRANCH   4  11
HETATM   11  C   UNL     1      64.403   8.817   5.170  1.00  0.00     0.300 C 
HETATM   12  O   UNL     1      64.601   9.905   5.708  1.00  0.00    -0.259 OA
BRANCH  11  13
HETATM   13  O   UNL     1      65.399   7.947   4.831  1.00  0.00    -0.317 OA
BRANCH  13  14
HETATM   14  C   UNL     1      66.489   7.816   5.746  1.00  0.00     0.174 C 
HETATM   15  C   UNL     1      66.063   7.037   6.977  1.00  0.00     0.034 C 
ENDBRANCH  13  14
ENDBRANCH  11  13
ENDBRANCH   4  11
BRANCH   2  16
HETATM   16  S   UNL     1      60.184   5.307   5.464  1.00  0.00    -0.122 SA
BRANCH  16  17
HETATM   17  C   UNL     1      60.388   5.340   7.277  1.00  0.00     0.080 C 
BRANCH  17  18
HETATM   18  C   UNL     1      59.299   6.056   8.082  1.00  0.00     0.006 C 
HETATM   19  C   UNL     1      57.920   6.080   7.441  1.00  0.00     0.006 C 
ENDBRANCH  17  18
ENDBRANCH  16  17
ENDBRANCH   2  16
TORSDOF 6
ENDMDL
MODEL 9
REMARK VINA RESULT:      -4.6      3.099      5.624
REMARK  6 active torsions:
REMARK  status: ('A' for Active; 'I' for Inactive)
REMARK    1  A    between atoms: C_2  and  S_8 
REMARK    2  A    between atoms: C_4  and  C_6 
REMARK    3  A    between atoms: C_6  and  O_12 
REMARK    4  A    between atoms: S_8  and  C_15 
REMARK    5  A    between atoms: O_12  and  C_16 
REMARK    6  A    between atoms: C_15  and  C_17 
ROOT
HETATM    1  C   UNL     1      62.051   7.339   4.562  1.00  0.00     0.041 C 
HETATM    2  C   UNL     1      61.815   5.984   4.717  1.00  0.00     0.056 C 
HETATM    3  C   UNL     1      63.330   7.722   5.136  1.00  0.00    -0.019 C 
HETATM    4  C   UNL     1      64.003   6.639   5.689  1.00  0.00     0.088 C 
HETATM    5  S   UNL     1      62.993   5.259   5.727  1.00  0.00    -0.076 SA
HETATM    6  C   UNL     1      61.200   8.320   3.874  1.00  0.00     0.162 C 
HETATM    7  O   UNL     1      60.080   8.066   3.437  1.00  0.00    -0.292 OA
HETATM    8  C   UNL     1      63.838   9.134   5.025  1.00  0.00     0.042 C 
HETATM    9  C   UNL     1      61.811   9.694   3.640  1.00  0.00     0.084 C 
HETATM   10  C   UNL     1      62.695  10.125   4.804  1.00  0.00     0.012 C 
ENDROOT
BRANCH   4  11
HETATM   11  C   UNL     1      65.359   6.512   6.199  1.00  0.00     0.300 C 
HETATM   12  O   UNL     1      66.328   6.048   5.601  1.00  0.00    -0.259 OA
BRANCH  11  13
HETATM   13  O   UNL     1      65.428   7.052   7.451  1.00  0.00    -0.317 OA
BRANCH  13  14
HETATM   14  C   UNL     1      66.728   7.185   8.030  1.00  0.00     0.174 C 
HETATM   15  C   UNL     1      66.811   6.424   9.340  1.00  0.00     0.034 C 
ENDBRANCH  13  14
ENDBRANCH  11  13
ENDBRANCH   4  11
BRANCH   2  16
HETATM   16  S   UNL     1      60.531   4.972   4.069  1.00  0.00    -0.122 SA
BRANCH  16  17
HETATM   17  C   UNL     1      59.491   4.683   5.541  1.00  0.00     0.080 C 
BRANCH  17  18
HETATM   18  C   UNL     1      59.165   5.903   6.406  1.00  0.00     0.006 C 
HETATM   19  C   UNL     1      59.748   5.885   7.811  1.00  0.00     0.006 C 
ENDBRANCH  17  18
ENDBRANCH  16  17
ENDBRANCH   2  16
TORSDOF 6
ENDMDL
