MODEL 1
REMARK VINA RESULT:      -5.0      0.000      0.000
REMARK  1 active torsions:
REMARK  status: ('A' for Active; 'I' for Inactive)
REMARK    1  A    between atoms: C_3  and  S_13 
ROOT
HETATM    1  C   UNL     1      63.598   8.368   4.147  1.00  0.00     0.042 A 
HETATM    2  C   UNL     1      63.581   6.963   3.750  1.00  0.00    -0.014 A 
HETATM    3  C   UNL     1      62.520   9.071   3.635  1.00  0.00     0.056 A 
HETATM    4  C   UNL     1      62.488   6.668   2.957  1.00  0.00     0.093 A 
HETATM    5  S   UNL     1      61.516   8.041   2.689  1.00  0.00    -0.071 SA
HETATM    6  C   UNL     1      64.648   8.849   5.039  1.00  0.00     0.162 C 
HETATM    7  C   UNL     1      62.169   5.379   2.416  1.00  0.00     0.107 C 
HETATM    8  N   UNL     1      61.935   4.328   1.992  1.00  0.00    -0.191 NA
HETATM    9  C   UNL     1      64.650   5.984   4.204  1.00  0.00     0.050 C 
HETATM   10  C   UNL     1      65.532   6.542   5.359  1.00  0.00    -0.037 C 
HETATM   11  C   UNL     1      65.905   8.005   5.040  1.00  0.00     0.093 C 
HETATM   12  O   UNL     1      64.526   9.792   5.810  1.00  0.00    -0.292 OA
HETATM   13  C   UNL     1      66.829   5.726   5.491  1.00  0.00     0.015 C 
HETATM   14  C   UNL     1      64.779   6.453   6.705  1.00  0.00     0.015 C 
ENDROOT
BRANCH   3  15
HETATM   15  S   UNL     1      62.003  10.747   3.833  1.00  0.00    -0.126 SA
HETATM   16  C   UNL     1      61.831  11.412   2.167  1.00  0.00     0.096 C 
ENDBRANCH   3  15
TORSDOF 1
ENDMDL
MODEL 2
REMARK VINA RESULT:      -4.9      2.430      2.992
REMARK  1 active torsions:
REMARK  status: ('A' for Active; 'I' for Inactive)
REMARK    1  A    between atoms: C_3  and  S_13 
ROOT
HETATM    1  C   UNL     1      64.709   7.256   6.063  1.00  0.00     0.042 A 
HETATM    2  C   UNL     1      64.484   5.866   6.448  1.00  0.00    -0.014 A 
HETATM    3  C   UNL     1      63.555   7.865   5.598  1.00  0.00     0.056 A 
HETATM    4  C   UNL     1      63.169   5.487   6.259  1.00  0.00     0.093 A 
HETATM    5  S   UNL     1      62.232   6.763   5.626  1.00  0.00    -0.071 SA
HETATM    6  C   UNL     1      66.029   7.848   6.253  1.00  0.00     0.162 C 
HETATM    7  C   UNL     1      62.617   4.197   6.554  1.00  0.00     0.107 C 
HETATM    8  N   UNL     1      62.197   3.147   6.801  1.00  0.00    -0.191 NA
HETATM    9  C   UNL     1      65.596   4.994   7.008  1.00  0.00     0.050 C 
HETATM   10  C   UNL     1      66.856   5.810   7.421  1.00  0.00    -0.037 C 
HETATM   11  C   UNL     1      67.163   6.847   6.321  1.00  0.00     0.093 C 
HETATM   12  O   UNL     1      66.234   9.041   6.444  1.00  0.00    -0.292 OA
HETATM   13  C   UNL     1      68.074   4.884   7.570  1.00  0.00     0.015 C 
HETATM   14  C   UNL     1      66.625   6.509   8.779  1.00  0.00     0.015 C 
ENDROOT
BRANCH   3  15
HETATM   15  S   UNL     1      63.224   9.514   5.065  1.00  0.00    -0.126 SA
HETATM   16  C   UNL     1      62.029   9.371   3.724  1.00  0.00     0.096 C 
ENDBRANCH   3  15
TORSDOF 1
ENDMDL
MODEL 3
REMARK VINA RESULT:      -4.9      2.805      4.106
REMARK  1 active torsions:
REMARK  status: ('A' for Active; 'I' for Inactive)
REMARK    1  A    between atoms: C_3  and  S_13 
ROOT
HETATM    1  C   UNL     1      62.500   6.864   4.673  1.00  0.00     0.042 A 
HETATM    2  C   UNL     1      62.857   8.275   4.560  1.00  0.00    -0.014 A 
HETATM    3  C   UNL     1      61.261   6.590   4.117  1.00  0.00     0.056 A 
HETATM    4  C   UNL     1      61.871   9.004   3.923  1.00  0.00     0.093 A 
HETATM    5  S   UNL     1      60.550   8.024   3.480  1.00  0.00    -0.071 SA
HETATM    6  C   UNL     1      63.450   5.929   5.265  1.00  0.00     0.162 C 
HETATM    7  C   UNL     1      61.919  10.409   3.639  1.00  0.00     0.107 C 
HETATM    8  N   UNL     1      61.983  11.544   3.422  1.00  0.00    -0.191 NA
HETATM    9  C   UNL     1      64.179   8.817   5.078  1.00  0.00     0.050 C 
HETATM   10  C   UNL     1      65.201   7.694   5.420  1.00  0.00    -0.037 C 
HETATM   11  C   UNL     1      64.471   6.568   6.182  1.00  0.00     0.093 C 
HETATM   12  O   UNL     1      63.512   4.736   4.992  1.00  0.00    -0.292 OA
HETATM   13  C   UNL     1      66.324   8.239   6.317  1.00  0.00     0.015 C 
HETATM   14  C   UNL     1      65.851   7.145   4.130  1.00  0.00     0.015 C 
ENDROOT
BRANCH   3  15
HETATM   15  S   UNL     1      60.365   5.083   3.915  1.00  0.00    -0.126 SA
HETATM   16  C   UNL     1      59.905   4.554   5.574  1.00  0.00     0.096 C 
ENDBRANCH   3  15
TORSDOF 1
ENDMDL
MODEL 4
REMARK VINA RESULT:      -4.8      2.889      3.758
REMARK  1 active torsions:
REMARK  status: ('A' for Active; 'I' for Inactive)
REMARK    1  A    between atoms: C_3  and  S_13 
ROOT
HETATM    1  C   UNL     1      63.980   7.255   3.610  1.00  0.00     0.042 A 
HETATM    2  C   UNL     1      64.173   8.207   4.700  1.00  0.00    -0.014 A 
HETATM    3  C   UNL     1      62.982   7.652   2.737  1.00  0.00     0.056 A 
HETATM    4  C   UNL     1      63.311   9.283   4.599  1.00  0.00     0.093 A 
HETATM    5  S   UNL     1      62.293   9.148   3.240  1.00  0.00    -0.071 SA
HETATM    6  C   UNL     1      64.847   6.085   3.519  1.00  0.00     0.162 C 
HETATM    7  C   UNL     1      63.255  10.399   5.498  1.00  0.00     0.107 C 
HETATM    8  N   UNL     1      63.230  11.288   6.238  1.00  0.00    -0.191 NA
HETATM    9  C   UNL     1      65.227   8.001   5.775  1.00  0.00     0.050 C 
HETATM   10  C   UNL     1      66.253   6.889   5.411  1.00  0.00    -0.037 C 
HETATM   11  C   UNL     1      65.494   5.679   4.827  1.00  0.00     0.093 C 
HETATM   12  O   UNL     1      65.131   5.511   2.475  1.00  0.00    -0.292 OA
HETATM   13  C   UNL     1      67.015   6.426   6.664  1.00  0.00     0.015 C 
HETATM   14  C   UNL     1      67.291   7.422   4.398  1.00  0.00     0.015 C 
ENDROOT
BRANCH   3  15
HETATM   15  S   UNL     1      62.372   6.942   1.240  1.00  0.00    -0.126 SA
HETATM   16  C   UNL     1      61.342   8.207   0.476  1.00  0.00     0.096 C 
ENDBRANCH   3  15
TORSDOF 1
ENDMDL
MODEL 5
REMARK VINA RESULT:      -4.8      3.355      5.518
REMARK  1 active torsions:
REMARK  status: ('A' for Active; 'I' for Inactive)
REMARK    1  A    between atoms: C_3  and  S_13 
ROOT
HETATM    1  C   UNL     1      63.990   7.114   3.195  1.00  0.00     0.042 A 
HETATM    2  C   UNL     1      63.284   8.323   3.608  1.00  0.00    -0.014 A 
HETATM    3  C   UNL     1      65.078   6.838   4.007  1.00  0.00     0.056 A 
HETATM    4  C   UNL     1      63.870   8.906   4.715  1.00  0.00     0.093 A 
HETATM    5  S   UNL     1      65.235   8.032   5.238  1.00  0.00    -0.071 SA
HETATM    6  C   UNL     1      63.475   6.329   2.078  1.00  0.00     0.162 C 
HETATM    7  C   UNL     1      63.412  10.092   5.379  1.00  0.00     0.107 C 
HETATM    8  N   UNL     1      63.022  11.052   5.895  1.00  0.00    -0.191 NA
HETATM    9  C   UNL     1      62.043   8.820   2.884  1.00  0.00     0.050 C 
HETATM   10  C   UNL     1      61.444   7.762   1.912  1.00  0.00    -0.037 C 
HETATM   11  C   UNL     1      62.593   7.103   1.121  1.00  0.00     0.093 C 
HETATM   12  O   UNL     1      63.638   5.123   1.943  1.00  0.00    -0.292 OA
HETATM   13  C   UNL     1      60.484   8.428   0.913  1.00  0.00     0.015 C 
HETATM   14  C   UNL     1      60.645   6.699   2.698  1.00  0.00     0.015 C 
ENDROOT
BRANCH   3  15
HETATM   15  S   UNL     1      66.233   5.504   4.020  1.00  0.00    -0.126 SA
HETATM   16  C   UNL     1      67.452   5.916   5.280  1.00  0.00     0.096 C 
ENDBRANCH   3  15
TORSDOF 1
ENDMDL
MODEL 6
REMARK VINA RESULT:      -4.6      3.591      5.552
REMARK  1 active torsions:
REMARK  status: ('A' for Active; 'I' for Inactive)
REMARK    1  A    between atoms: C_3  and  S_13 
ROOT
HETATM    1  C   UNL     1      64.544   6.526   3.165  1.00  0.00     0.042 A 
HETATM    2  C   UNL     1      64.737   7.532   4.205  1.00  0.00    -0.014 A 
HETATM    3  C   UNL     1      65.552   5.576   3.160  1.00  0.00     0.056 A 
HETATM    4  C   UNL     1      65.883   7.297   4.940  1.00  0.00     0.093 A 
HETATM    5  S   UNL     1      66.709   5.912   4.391  1.00  0.00    -0.071 SA
HETATM    6  C   UNL     1      63.349   6.578   2.328  1.00  0.00     0.162 C 
HETATM    7  C   UNL     1      66.349   8.088   6.041  1.00  0.00     0.107 C 
HETATM    8  N   UNL     1      66.704   8.744   6.927  1.00  0.00    -0.191 NA
HETATM    9  C   UNL     1      63.750   8.667   4.422  1.00  0.00     0.050 C 
HETATM   10  C   UNL     1      62.403   8.451   3.671  1.00  0.00    -0.037 C 
HETATM   11  C   UNL     1      62.702   7.945   2.245  1.00  0.00     0.093 C 
HETATM   12  O   UNL     1      62.827   5.604   1.801  1.00  0.00    -0.292 OA
HETATM   13  C   UNL     1      61.625   9.772   3.565  1.00  0.00     0.015 C 
HETATM   14  C   UNL     1      61.516   7.440   4.433  1.00  0.00     0.015 C 
ENDROOT
BRANCH   3  15
HETATM   15  S   UNL     1      65.802   4.124   2.189  1.00  0.00    -0.126 SA
HETATM   16  C   UNL     1      67.559   3.744   2.308  1.00  0.00     0.096 C 
ENDBRANCH   3  15
TORSDOF 1
ENDMDL
MODEL 7
REMARK VINA RESULT:      -4.5      2.505      4.553
REMARK  1 active torsions:
REMARK  status: ('A' for Active; 'I' for Inactive)
REMARK    1  A    between atoms: C_3  and  S_13 
ROOT
HETATM    1  C   UNL     1      63.562   7.627   3.557  1.00  0.00     0.042 A 
HETATM    2  C   UNL     1      63.337   6.743   2.417  1.00  0.00    -0.014 A 
HETATM    3  C   UNL     1      64.708   7.293   4.261  1.00  0.00     0.056 A 
HETATM    4  C   UNL     1      64.323   5.781   2.311  1.00  0.00     0.093 A 
HETATM    5  S   UNL     1      65.483   5.930   3.550  1.00  0.00    -0.071 SA
HETATM    6  C   UNL     1      62.652   8.743   3.790  1.00  0.00     0.162 C 
HETATM    7  C   UNL     1      64.405   4.773   1.294  1.00  0.00     0.107 C 
HETATM    8  N   UNL     1      64.447   3.969   0.463  1.00  0.00    -0.191 NA
HETATM    9  C   UNL     1      62.154   6.921   1.480  1.00  0.00     0.050 C 
HETATM   10  C   UNL     1      61.436   8.289   1.664  1.00  0.00    -0.037 C 
HETATM   11  C   UNL     1      61.280   8.573   3.172  1.00  0.00     0.093 C 
HETATM   12  O   UNL     1      62.964   9.788   4.347  1.00  0.00    -0.292 OA
HETATM   13  C   UNL     1      60.037   8.256   1.028  1.00  0.00     0.015 C 
HETATM   14  C   UNL     1      62.239   9.417   0.978  1.00  0.00     0.015 C 
ENDROOT
BRANCH   3  15
HETATM   15  S   UNL     1      65.492   8.034   5.658  1.00  0.00    -0.126 SA
HETATM   16  C   UNL     1      67.262   7.808   5.410  1.00  0.00     0.096 C 
ENDBRANCH   3  15
TORSDOF 1
ENDMDL
MODEL 8
REMARK VINA RESULT:      -4.5      3.330      5.432
REMARK  1 active torsions:
REMARK  status: ('A' for Active; 'I' for Inactive)
REMARK    1  A    between atoms: C_3  and  S_13 
ROOT
HETATM    1  C   UNL     1      62.682   6.889   4.327  1.00  0.00     0.042 A 
HETATM    2  C   UNL     1      61.974   8.116   3.976  1.00  0.00    -0.014 A 
HETATM    3  C   UNL     1      63.913   7.141   4.909  1.00  0.00     0.056 A 
HETATM    4  C   UNL     1      62.703   9.242   4.310  1.00  0.00     0.093 A 
HETATM    5  S   UNL     1      64.199   8.836   5.017  1.00  0.00    -0.071 SA
HETATM    6  C   UNL     1      62.036   5.599   4.104  1.00  0.00     0.162 C 
HETATM    7  C   UNL     1      62.285  10.600   4.114  1.00  0.00     0.107 C 
HETATM    8  N   UNL     1      61.924  11.686   3.944  1.00  0.00    -0.191 NA
HETATM    9  C   UNL     1      60.593   8.098   3.342  1.00  0.00     0.050 C 
HETATM   10  C   UNL     1      59.910   6.702   3.418  1.00  0.00    -0.037 C 
HETATM   11  C   UNL     1      60.946   5.618   3.053  1.00  0.00     0.093 C 
HETATM   12  O   UNL     1      62.260   4.588   4.757  1.00  0.00    -0.292 OA
HETATM   13  C   UNL     1      58.743   6.615   2.421  1.00  0.00     0.015 C 
HETATM   14  C   UNL     1      59.341   6.455   4.834  1.00  0.00     0.015 C 
ENDROOT
BRANCH   3  15
HETATM   15  S   UNL     1      65.146   6.068   5.576  1.00  0.00    -0.126 SA
HETATM   16  C   UNL     1      65.458   6.653   7.251  1.00  0.00     0.096 C 
ENDBRANCH   3  15
TORSDOF 1
ENDMDL
MODEL 9
REMARK VINA RESULT:      -4.4      3.126      4.809
REMARK  1 active torsions:
REMARK  status: ('A' for Active; 'I' for Inactive)
REMARK    1  A    between atoms: C_3  and  S_13 
ROOT
HETATM    1  C   UNL     1      64.461   6.982   5.899  1.00  0.00     0.042 A 
HETATM    2  C   UNL     1      63.239   6.220   5.662  1.00  0.00    -0.014 A 
HETATM    3  C   UNL     1      65.390   6.268   6.638  1.00  0.00     0.056 A 
HETATM    4  C   UNL     1      63.301   4.962   6.232  1.00  0.00     0.093 A 
HETATM    5  S   UNL     1      64.780   4.708   7.037  1.00  0.00    -0.071 SA
HETATM    6  C   UNL     1      64.601   8.313   5.317  1.00  0.00     0.162 C 
HETATM    7  C   UNL     1      62.275   3.962   6.167  1.00  0.00     0.107 C 
HETATM    8  N   UNL     1      61.431   3.173   6.101  1.00  0.00    -0.191 NA
HETATM    9  C   UNL     1      62.080   6.783   4.857  1.00  0.00     0.050 C 
HETATM   10  C   UNL     1      62.460   8.070   4.067  1.00  0.00    -0.037 C 
HETATM   11  C   UNL     1      63.289   8.993   4.984  1.00  0.00     0.093 C 
HETATM   12  O   UNL     1      65.669   8.831   5.017  1.00  0.00    -0.292 OA
HETATM   13  C   UNL     1      61.196   8.828   3.628  1.00  0.00     0.015 C 
HETATM   14  C   UNL     1      63.258   7.707   2.795  1.00  0.00     0.015 C 
ENDROOT
BRANCH   3  15
HETATM   15  S   UNL     1      67.031   6.654   7.159  1.00  0.00    -0.126 SA
HETATM   16  C   UNL     1      67.004   6.600   8.960  1.00  0.00     0.096 C 
ENDBRANCH   3  15
TORSDOF 1
ENDMDL
