MODEL 1
REMARK VINA RESULT:      -4.6      0.000      0.000
REMARK  3 active torsions:
REMARK  status: ('A' for Active; 'I' for Inactive)
REMARK    1  A    between atoms: C_1  and  C_4 
REMARK    2  A    between atoms: S_3  and  C_4 
REMARK    3  A    between atoms: S_3  and  C_6 
ROOT
HETATM    1  S   UNL     1      63.388   7.941   5.254  1.00  0.00    -0.123 SA
ENDROOT
BRANCH   1   2
HETATM    2  C   UNL     1      65.195   8.193   5.113  1.00  0.00     0.148 C 
BRANCH   2   3
HETATM    3  C   UNL     1      65.904   7.740   6.382  1.00  0.00     0.080 C 
HETATM    4  S   UNL     1      65.613   6.246   7.072  1.00  0.00    -0.065 SA
HETATM    5  N   UNL     1      66.867   8.546   6.914  1.00  0.00    -0.393 N 
HETATM    6  H   UNL     1      67.339   8.273   7.734  1.00  0.00     0.156 HD
HETATM    7  H   UNL     1      67.090   9.400   6.480  1.00  0.00     0.156 HD
ENDBRANCH   2   3
ENDBRANCH   1   2
BRANCH   1   8
HETATM    8  C   UNL     1      62.725   9.074   4.039  1.00  0.00     0.000 A 
HETATM    9  C   UNL     1      62.367  10.397   4.315  1.00  0.00     0.018 A 
HETATM   10  C   UNL     1      61.933  11.247   3.290  1.00  0.00     0.001 A 
HETATM   11  C   UNL     1      61.857  10.782   1.979  1.00  0.00     0.000 A 
HETATM   12  C   UNL     1      62.208   9.467   1.692  1.00  0.00     0.001 A 
HETATM   13  C   UNL     1      62.641   8.619   2.716  1.00  0.00     0.018 A 
ENDBRANCH   1   8
TORSDOF 3
ENDMDL
MODEL 2
REMARK VINA RESULT:      -4.6      0.195      1.459
REMARK  3 active torsions:
REMARK  status: ('A' for Active; 'I' for Inactive)
REMARK    1  A    between atoms: C_1  and  C_4 
REMARK    2  A    between atoms: S_3  and  C_4 
REMARK    3  A    between atoms: S_3  and  C_6 
ROOT
HETATM    1  S   UNL     1      63.445   7.927   5.245  1.00  0.00    -0.123 SA
ENDROOT
BRANCH   1   2
HETATM    2  C   UNL     1      65.261   8.126   5.149  1.00  0.00     0.148 C 
BRANCH   2   3
HETATM    3  C   UNL     1      65.919   7.704   6.456  1.00  0.00     0.080 C 
HETATM    4  S   UNL     1      65.581   6.239   7.184  1.00  0.00    -0.065 SA
HETATM    5  N   UNL     1      66.877   8.513   6.994  1.00  0.00    -0.393 N 
HETATM    6  H   UNL     1      67.316   8.261   7.838  1.00  0.00     0.156 HD
HETATM    7  H   UNL     1      67.128   9.349   6.540  1.00  0.00     0.156 HD
ENDBRANCH   2   3
ENDBRANCH   1   2
BRANCH   1   8
HETATM    8  C   UNL     1      62.846   9.083   4.017  1.00  0.00     0.000 A 
HETATM    9  C   UNL     1      62.612   8.753   2.679  1.00  0.00     0.018 A 
HETATM   10  C   UNL     1      62.063   9.694   1.799  1.00  0.00     0.001 A 
HETATM   11  C   UNL     1      61.741  10.972   2.250  1.00  0.00     0.000 A 
HETATM   12  C   UNL     1      61.973  11.313   3.578  1.00  0.00     0.001 A 
HETATM   13  C   UNL     1      62.520  10.373   4.457  1.00  0.00     0.018 A 
ENDBRANCH   1   8
TORSDOF 3
ENDMDL
MODEL 3
REMARK VINA RESULT:      -4.3      1.233      1.983
REMARK  3 active torsions:
REMARK  status: ('A' for Active; 'I' for Inactive)
REMARK    1  A    between atoms: C_1  and  C_4 
REMARK    2  A    between atoms: S_3  and  C_4 
REMARK    3  A    between atoms: S_3  and  C_6 
ROOT
HETATM    1  S   UNL     1      64.612   6.950   4.478  1.00  0.00    -0.123 SA
ENDROOT
BRANCH   1   2
HETATM    2  C   UNL     1      64.936   7.070   6.274  1.00  0.00     0.148 C 
BRANCH   2   3
HETATM    3  C   UNL     1      66.418   7.295   6.540  1.00  0.00     0.080 C 
HETATM    4  S   UNL     1      67.569   6.140   6.175  1.00  0.00    -0.065 SA
HETATM    5  N   UNL     1      66.819   8.513   7.009  1.00  0.00    -0.393 N 
HETATM    6  H   UNL     1      67.772   8.681   7.188  1.00  0.00     0.156 HD
HETATM    7  H   UNL     1      66.156   9.221   7.168  1.00  0.00     0.156 HD
ENDBRANCH   2   3
ENDBRANCH   1   2
BRANCH   1   8
HETATM    8  C   UNL     1      63.633   8.410   4.146  1.00  0.00     0.000 A 
HETATM    9  C   UNL     1      62.853   8.587   2.999  1.00  0.00     0.018 A 
HETATM   10  C   UNL     1      62.048   9.724   2.852  1.00  0.00     0.001 A 
HETATM   11  C   UNL     1      62.014  10.693   3.852  1.00  0.00     0.000 A 
HETATM   12  C   UNL     1      62.788  10.530   4.997  1.00  0.00     0.001 A 
HETATM   13  C   UNL     1      63.591   9.395   5.143  1.00  0.00     0.018 A 
ENDBRANCH   1   8
TORSDOF 3
ENDMDL
MODEL 4
REMARK VINA RESULT:      -4.0      1.656      2.175
REMARK  3 active torsions:
REMARK  status: ('A' for Active; 'I' for Inactive)
REMARK    1  A    between atoms: C_1  and  C_4 
REMARK    2  A    between atoms: S_3  and  C_4 
REMARK    3  A    between atoms: S_3  and  C_6 
ROOT
HETATM    1  S   UNL     1      63.370   6.976   3.514  1.00  0.00    -0.123 SA
ENDROOT
BRANCH   1   2
HETATM    2  C   UNL     1      63.247   6.871   5.336  1.00  0.00     0.148 C 
BRANCH   2   3
HETATM    3  C   UNL     1      64.630   6.765   5.965  1.00  0.00     0.080 C 
HETATM    4  S   UNL     1      65.836   7.875   5.640  1.00  0.00    -0.065 SA
HETATM    5  N   UNL     1      64.854   5.784   6.886  1.00  0.00    -0.393 N 
HETATM    6  H   UNL     1      65.741   5.698   7.305  1.00  0.00     0.156 HD
HETATM    7  H   UNL     1      64.131   5.164   7.130  1.00  0.00     0.156 HD
ENDBRANCH   2   3
ENDBRANCH   1   2
BRANCH   1   8
HETATM    8  C   UNL     1      62.802   8.636   3.165  1.00  0.00     0.000 A 
HETATM    9  C   UNL     1      62.400   9.077   1.900  1.00  0.00     0.018 A 
HETATM   10  C   UNL     1      61.889  10.369   1.726  1.00  0.00     0.001 A 
HETATM   11  C   UNL     1      61.772  11.230   2.814  1.00  0.00     0.000 A 
HETATM   12  C   UNL     1      62.171  10.804   4.077  1.00  0.00     0.001 A 
HETATM   13  C   UNL     1      62.681   9.514   4.251  1.00  0.00     0.018 A 
ENDBRANCH   1   8
TORSDOF 3
ENDMDL
MODEL 5
REMARK VINA RESULT:      -3.9      2.767      3.724
REMARK  3 active torsions:
REMARK  status: ('A' for Active; 'I' for Inactive)
REMARK    1  A    between atoms: C_1  and  C_4 
REMARK    2  A    between atoms: S_3  and  C_4 
REMARK    3  A    between atoms: S_3  and  C_6 
ROOT
HETATM    1  S   UNL     1      63.061   8.074   5.277  1.00  0.00    -0.123 SA
ENDROOT
BRANCH   1   2
HETATM    2  C   UNL     1      62.299   6.484   4.790  1.00  0.00     0.148 C 
BRANCH   2   3
HETATM    3  C   UNL     1      60.870   6.390   5.309  1.00  0.00     0.080 C 
HETATM    4  S   UNL     1      59.550   6.601   4.308  1.00  0.00    -0.065 SA
HETATM    5  N   UNL     1      60.671   6.036   6.612  1.00  0.00    -0.393 N 
HETATM    6  H   UNL     1      59.756   5.969   6.968  1.00  0.00     0.156 HD
HETATM    7  H   UNL     1      61.441   5.849   7.194  1.00  0.00     0.156 HD
ENDBRANCH   2   3
ENDBRANCH   1   2
BRANCH   1   8
HETATM    8  C   UNL     1      62.626   9.162   3.925  1.00  0.00     0.000 A 
HETATM    9  C   UNL     1      62.515   8.750   2.593  1.00  0.00     0.018 A 
HETATM   10  C   UNL     1      62.088   9.645   1.604  1.00  0.00     0.001 A 
HETATM   11  C   UNL     1      61.766  10.959   1.939  1.00  0.00     0.000 A 
HETATM   12  C   UNL     1      61.876  11.381   3.259  1.00  0.00     0.001 A 
HETATM   13  C   UNL     1      62.302  10.487   4.246  1.00  0.00     0.018 A 
ENDBRANCH   1   8
TORSDOF 3
ENDMDL
MODEL 6
REMARK VINA RESULT:      -3.8      3.607      4.426
REMARK  3 active torsions:
REMARK  status: ('A' for Active; 'I' for Inactive)
REMARK    1  A    between atoms: C_1  and  C_4 
REMARK    2  A    between atoms: S_3  and  C_4 
REMARK    3  A    between atoms: S_3  and  C_6 
ROOT
HETATM    1  S   UNL     1      62.903   7.002   2.403  1.00  0.00    -0.123 SA
ENDROOT
BRANCH   1   2
HETATM    2  C   UNL     1      61.878   6.194   3.684  1.00  0.00     0.148 C 
BRANCH   2   3
HETATM    3  C   UNL     1      60.402   6.259   3.314  1.00  0.00     0.080 C 
HETATM    4  S   UNL     1      59.211   6.477   4.465  1.00  0.00    -0.065 SA
HETATM    5  N   UNL     1      60.058   6.226   1.995  1.00  0.00    -0.393 N 
HETATM    6  H   UNL     1      59.110   6.267   1.733  1.00  0.00     0.156 HD
HETATM    7  H   UNL     1      60.757   6.160   1.305  1.00  0.00     0.156 HD
ENDBRANCH   2   3
ENDBRANCH   1   2
BRANCH   1   8
HETATM    8  C   UNL     1      62.551   8.740   2.641  1.00  0.00     0.000 A 
HETATM    9  C   UNL     1      62.140   9.604   1.621  1.00  0.00     0.018 A 
HETATM   10  C   UNL     1      61.803  10.933   1.905  1.00  0.00     0.001 A 
HETATM   11  C   UNL     1      61.871  11.410   3.212  1.00  0.00     0.000 A 
HETATM   12  C   UNL     1      62.281  10.561   4.235  1.00  0.00     0.001 A 
HETATM   13  C   UNL     1      62.617   9.234   3.951  1.00  0.00     0.018 A 
ENDBRANCH   1   8
TORSDOF 3
ENDMDL
MODEL 7
REMARK VINA RESULT:      -3.7      1.633      1.912
REMARK  3 active torsions:
REMARK  status: ('A' for Active; 'I' for Inactive)
REMARK    1  A    between atoms: C_1  and  C_4 
REMARK    2  A    between atoms: S_3  and  C_4 
REMARK    3  A    between atoms: S_3  and  C_6 
ROOT
HETATM    1  S   UNL     1      64.641   6.879   3.700  1.00  0.00    -0.123 SA
ENDROOT
BRANCH   1   2
HETATM    2  C   UNL     1      64.850   6.207   5.389  1.00  0.00     0.148 C 
BRANCH   2   3
HETATM    3  C   UNL     1      66.267   6.446   5.893  1.00  0.00     0.080 C 
HETATM    4  S   UNL     1      66.573   7.024   7.431  1.00  0.00    -0.065 SA
HETATM    5  N   UNL     1      67.313   6.092   5.092  1.00  0.00    -0.393 N 
HETATM    6  H   UNL     1      68.237   6.236   5.398  1.00  0.00     0.156 HD
HETATM    7  H   UNL     1      67.143   5.692   4.209  1.00  0.00     0.156 HD
ENDBRANCH   2   3
ENDBRANCH   1   2
BRANCH   1   8
HETATM    8  C   UNL     1      63.634   8.333   3.965  1.00  0.00     0.000 A 
HETATM    9  C   UNL     1      63.736   9.164   5.085  1.00  0.00     0.018 A 
HETATM   10  C   UNL     1      62.968  10.331   5.178  1.00  0.00     0.001 A 
HETATM   11  C   UNL     1      62.094  10.680   4.151  1.00  0.00     0.000 A 
HETATM   12  C   UNL     1      61.982   9.861   3.033  1.00  0.00     0.001 A 
HETATM   13  C   UNL     1      62.749   8.695   2.940  1.00  0.00     0.018 A 
ENDBRANCH   1   8
TORSDOF 3
ENDMDL
MODEL 8
REMARK VINA RESULT:      -3.7      3.027      5.322
REMARK  3 active torsions:
REMARK  status: ('A' for Active; 'I' for Inactive)
REMARK    1  A    between atoms: C_1  and  C_4 
REMARK    2  A    between atoms: S_3  and  C_4 
REMARK    3  A    between atoms: S_3  and  C_6 
ROOT
HETATM    1  S   UNL     1      62.775   7.585   3.657  1.00  0.00    -0.123 SA
ENDROOT
BRANCH   1   2
HETATM    2  C   UNL     1      62.465   9.371   3.903  1.00  0.00     0.148 C 
BRANCH   2   3
HETATM    3  C   UNL     1      62.031  10.027   2.600  1.00  0.00     0.080 C 
HETATM    4  S   UNL     1      61.962   9.179   1.162  1.00  0.00    -0.065 SA
HETATM    5  N   UNL     1      61.605  11.323   2.632  1.00  0.00    -0.393 N 
HETATM    6  H   UNL     1      61.319  11.768   1.802  1.00  0.00     0.156 HD
HETATM    7  H   UNL     1      61.583  11.813   3.485  1.00  0.00     0.156 HD
ENDBRANCH   2   3
ENDBRANCH   1   2
BRANCH   1   8
HETATM    8  C   UNL     1      64.506   7.413   4.079  1.00  0.00     0.000 A 
HETATM    9  C   UNL     1      65.163   8.202   5.028  1.00  0.00     0.018 A 
HETATM   10  C   UNL     1      66.499   7.949   5.362  1.00  0.00     0.001 A 
HETATM   11  C   UNL     1      67.189   6.904   4.752  1.00  0.00     0.000 A 
HETATM   12  C   UNL     1      66.547   6.113   3.805  1.00  0.00     0.001 A 
HETATM   13  C   UNL     1      65.213   6.366   3.472  1.00  0.00     0.018 A 
ENDBRANCH   1   8
TORSDOF 3
ENDMDL
MODEL 9
REMARK VINA RESULT:      -3.7      2.360      2.624
REMARK  3 active torsions:
REMARK  status: ('A' for Active; 'I' for Inactive)
REMARK    1  A    between atoms: C_1  and  C_4 
REMARK    2  A    between atoms: S_3  and  C_4 
REMARK    3  A    between atoms: S_3  and  C_6 
ROOT
HETATM    1  S   UNL     1      64.390   7.112   4.330  1.00  0.00    -0.123 SA
ENDROOT
BRANCH   1   2
HETATM    2  C   UNL     1      64.070   6.756   6.096  1.00  0.00     0.148 C 
BRANCH   2   3
HETATM    3  C   UNL     1      62.947   5.738   6.246  1.00  0.00     0.080 C 
HETATM    4  S   UNL     1      61.346   6.198   6.366  1.00  0.00    -0.065 SA
HETATM    5  N   UNL     1      63.259   4.410   6.190  1.00  0.00    -0.393 N 
HETATM    6  H   UNL     1      62.549   3.735   6.284  1.00  0.00     0.156 HD
HETATM    7  H   UNL     1      64.192   4.129   6.057  1.00  0.00     0.156 HD
ENDBRANCH   2   3
ENDBRANCH   1   2
BRANCH   1   8
HETATM    8  C   UNL     1      63.358   8.538   4.012  1.00  0.00     0.000 A 
HETATM    9  C   UNL     1      63.198   9.604   4.902  1.00  0.00     0.018 A 
HETATM   10  C   UNL     1      62.438  10.724   4.543  1.00  0.00     0.001 A 
HETATM   11  C   UNL     1      61.834  10.789   3.290  1.00  0.00     0.000 A 
HETATM   12  C   UNL     1      61.983   9.734   2.396  1.00  0.00     0.001 A 
HETATM   13  C   UNL     1      62.742   8.616   2.755  1.00  0.00     0.018 A 
ENDBRANCH   1   8
TORSDOF 3
ENDMDL
