MODEL 1
REMARK VINA RESULT:      -3.8      0.000      0.000
REMARK  1 active torsions:
REMARK  status: ('A' for Active; 'I' for Inactive)
REMARK    1  A    between atoms: C_1  and  C_2 
ROOT
HETATM    1  C   UNL     1      61.914   9.706   2.972  1.00  0.00     0.347 C 
HETATM    2  N   UNL     1      60.661   9.086   3.448  1.00  0.00    -0.051 N 
HETATM    3  S   UNL     1      62.041   9.293   1.220  1.00  0.00    -0.124 SA
HETATM    4  C   UNL     1      60.555   7.762   2.824  1.00  0.00     0.244 C 
HETATM    5  C   UNL     1      61.213   7.708   1.444  1.00  0.00     0.104 C 
HETATM    6  H   UNL     1      59.864   9.662   3.178  1.00  0.00     0.279 HD
HETATM    7  H   UNL     1      60.667   9.003   4.465  1.00  0.00     0.279 HD
ENDROOT
BRANCH   1   8
HETATM    8  C   UNL     1      61.899  11.230   3.166  1.00  0.00     0.215 C 
HETATM    9  O   UNL     1      61.885  11.823   4.242  1.00  0.00    -0.646 OA
HETATM   10  O   UNL     1      61.965  11.933   2.010  1.00  0.00    -0.646 OA
ENDBRANCH   1   8
TORSDOF 1
ENDMDL
MODEL 2
REMARK VINA RESULT:      -3.7      1.850      2.054
REMARK  1 active torsions:
REMARK  status: ('A' for Active; 'I' for Inactive)
REMARK    1  A    between atoms: C_1  and  C_2 
ROOT
HETATM    1  C   UNL     1      61.879   9.857   3.814  1.00  0.00     0.347 C 
HETATM    2  N   UNL     1      61.631  10.442   2.481  1.00  0.00    -0.051 N 
HETATM    3  S   UNL     1      63.083   8.536   3.561  1.00  0.00    -0.124 SA
HETATM    4  C   UNL     1      61.570   9.339   1.514  1.00  0.00     0.244 C 
HETATM    5  C   UNL     1      62.453   8.156   1.917  1.00  0.00     0.104 C 
HETATM    6  H   UNL     1      62.389  11.080   2.234  1.00  0.00     0.279 HD
HETATM    7  H   UNL     1      60.757  10.969   2.478  1.00  0.00     0.279 HD
ENDROOT
BRANCH   1   8
HETATM    8  C   UNL     1      62.426  10.903   4.797  1.00  0.00     0.215 C 
HETATM    9  O   UNL     1      63.259  10.704   5.677  1.00  0.00    -0.646 OA
HETATM   10  O   UNL     1      61.950  12.154   4.591  1.00  0.00    -0.646 OA
ENDBRANCH   1   8
TORSDOF 1
ENDMDL
MODEL 3
REMARK VINA RESULT:      -3.5      2.708      3.119
REMARK  1 active torsions:
REMARK  status: ('A' for Active; 'I' for Inactive)
REMARK    1  A    between atoms: C_1  and  C_2 
ROOT
HETATM    1  C   UNL     1      63.169   9.469   4.992  1.00  0.00     0.347 C 
HETATM    2  N   UNL     1      63.031   8.603   6.180  1.00  0.00    -0.051 N 
HETATM    3  S   UNL     1      62.016   8.819   3.765  1.00  0.00    -0.124 SA
HETATM    4  C   UNL     1      62.901   7.219   5.709  1.00  0.00     0.244 C 
HETATM    5  C   UNL     1      62.219   7.125   4.343  1.00  0.00     0.104 C 
HETATM    6  H   UNL     1      62.201   8.869   6.711  1.00  0.00     0.279 HD
HETATM    7  H   UNL     1      63.844   8.699   6.789  1.00  0.00     0.279 HD
ENDROOT
BRANCH   1   8
HETATM    8  C   UNL     1      62.839  10.933   5.319  1.00  0.00     0.215 C 
HETATM    9  O   UNL     1      62.127  11.681   4.654  1.00  0.00    -0.646 OA
HETATM   10  O   UNL     1      63.363  11.368   6.490  1.00  0.00    -0.646 OA
ENDBRANCH   1   8
TORSDOF 1
ENDMDL
MODEL 4
REMARK VINA RESULT:      -3.5      2.650      2.926
REMARK  1 active torsions:
REMARK  status: ('A' for Active; 'I' for Inactive)
REMARK    1  A    between atoms: C_1  and  C_2 
ROOT
HETATM    1  C   UNL     1      62.804   9.448   4.892  1.00  0.00     0.347 C 
HETATM    2  N   UNL     1      62.481   9.383   3.452  1.00  0.00    -0.051 N 
HETATM    3  S   UNL     1      64.430   8.686   5.072  1.00  0.00    -0.124 SA
HETATM    4  C   UNL     1      62.924   8.075   2.955  1.00  0.00     0.244 C 
HETATM    5  C   UNL     1      64.142   7.540   3.712  1.00  0.00     0.104 C 
HETATM    6  H   UNL     1      62.967  10.128   2.952  1.00  0.00     0.279 HD
HETATM    7  H   UNL     1      61.478   9.501   3.305  1.00  0.00     0.279 HD
ENDROOT
BRANCH   1   8
HETATM    8  C   UNL     1      62.829  10.898   5.400  1.00  0.00     0.215 C 
HETATM    9  O   UNL     1      63.452  11.314   6.373  1.00  0.00    -0.646 OA
HETATM   10  O   UNL     1      62.125  11.763   4.631  1.00  0.00    -0.646 OA
ENDBRANCH   1   8
TORSDOF 1
ENDMDL
MODEL 5
REMARK VINA RESULT:      -3.3      5.284      5.705
REMARK  1 active torsions:
REMARK  status: ('A' for Active; 'I' for Inactive)
REMARK    1  A    between atoms: C_1  and  C_2 
ROOT
HETATM    1  C   UNL     1      65.201   7.953   5.529  1.00  0.00     0.347 C 
HETATM    2  N   UNL     1      66.146   8.451   6.549  1.00  0.00    -0.051 N 
HETATM    3  S   UNL     1      64.282   6.612   6.312  1.00  0.00    -0.124 SA
HETATM    4  C   UNL     1      66.683   7.286   7.263  1.00  0.00     0.244 C 
HETATM    5  C   UNL     1      65.686   6.128   7.332  1.00  0.00     0.104 C 
HETATM    6  H   UNL     1      65.660   9.066   7.202  1.00  0.00     0.279 HD
HETATM    7  H   UNL     1      66.899   8.980   6.111  1.00  0.00     0.279 HD
ENDROOT
BRANCH   1   8
HETATM    8  C   UNL     1      64.244   9.059   5.058  1.00  0.00     0.215 C 
HETATM    9  O   UNL     1      63.417   8.965   4.155  1.00  0.00    -0.646 OA
HETATM   10  O   UNL     1      64.327  10.202   5.779  1.00  0.00    -0.646 OA
ENDBRANCH   1   8
TORSDOF 1
ENDMDL
MODEL 6
REMARK VINA RESULT:      -3.3      7.086      7.323
REMARK  1 active torsions:
REMARK  status: ('A' for Active; 'I' for Inactive)
REMARK    1  A    between atoms: C_1  and  C_2 
ROOT
HETATM    1  C   UNL     1      66.797   7.419   7.113  1.00  0.00     0.347 C 
HETATM    2  N   UNL     1      65.662   6.875   7.886  1.00  0.00    -0.051 N 
HETATM    3  S   UNL     1      67.704   5.989   6.488  1.00  0.00    -0.124 SA
HETATM    4  C   UNL     1      66.153   5.717   8.643  1.00  0.00     0.244 C 
HETATM    5  C   UNL     1      67.291   4.987   7.927  1.00  0.00     0.104 C 
HETATM    6  H   UNL     1      64.916   6.586   7.253  1.00  0.00     0.279 HD
HETATM    7  H   UNL     1      65.288   7.583   8.518  1.00  0.00     0.279 HD
ENDROOT
BRANCH   1   8
HETATM    8  C   UNL     1      66.317   8.302   5.951  1.00  0.00     0.215 C 
HETATM    9  O   UNL     1      65.329   9.032   5.957  1.00  0.00    -0.646 OA
HETATM   10  O   UNL     1      67.129   8.276   4.868  1.00  0.00    -0.646 OA
ENDBRANCH   1   8
TORSDOF 1
ENDMDL
MODEL 7
REMARK VINA RESULT:      -3.2      8.005      8.520
REMARK  1 active torsions:
REMARK  status: ('A' for Active; 'I' for Inactive)
REMARK    1  A    between atoms: C_1  and  C_2 
ROOT
HETATM    1  C   UNL     1      66.286   6.622   8.130  1.00  0.00     0.347 C 
HETATM    2  N   UNL     1      67.288   7.511   7.508  1.00  0.00    -0.051 N 
HETATM    3  S   UNL     1      65.242   6.029   6.783  1.00  0.00    -0.124 SA
HETATM    4  C   UNL     1      66.601   8.306   6.483  1.00  0.00     0.244 C 
HETATM    5  C   UNL     1      65.426   7.559   5.849  1.00  0.00     0.104 C 
HETATM    6  H   UNL     1      68.028   6.955   7.080  1.00  0.00     0.279 HD
HETATM    7  H   UNL     1      67.710   8.120   8.210  1.00  0.00     0.279 HD
ENDROOT
BRANCH   1   8
HETATM    8  C   UNL     1      66.951   5.442   8.856  1.00  0.00     0.215 C 
HETATM    9  O   UNL     1      66.583   4.270   8.821  1.00  0.00    -0.646 OA
HETATM   10  O   UNL     1      68.075   5.775   9.534  1.00  0.00    -0.646 OA
ENDBRANCH   1   8
TORSDOF 1
ENDMDL
MODEL 8
REMARK VINA RESULT:      -3.1      3.743      4.365
REMARK  1 active torsions:
REMARK  status: ('A' for Active; 'I' for Inactive)
REMARK    1  A    between atoms: C_1  and  C_2 
ROOT
HETATM    1  C   UNL     1      62.761   8.636   5.368  1.00  0.00     0.347 C 
HETATM    2  N   UNL     1      63.249   9.992   5.692  1.00  0.00    -0.051 N 
HETATM    3  S   UNL     1      62.550   8.598   3.576  1.00  0.00    -0.124 SA
HETATM    4  C   UNL     1      62.512  10.943   4.850  1.00  0.00     0.244 C 
HETATM    5  C   UNL     1      62.107  10.343   3.502  1.00  0.00     0.104 C 
HETATM    6  H   UNL     1      64.249  10.058   5.498  1.00  0.00     0.279 HD
HETATM    7  H   UNL     1      63.100  10.199   6.679  1.00  0.00     0.279 HD
ENDROOT
BRANCH   1   8
HETATM    8  C   UNL     1      63.758   7.556   5.816  1.00  0.00     0.215 C 
HETATM    9  O   UNL     1      64.050   7.277   6.976  1.00  0.00    -0.646 OA
HETATM   10  O   UNL     1      64.290   6.840   4.797  1.00  0.00    -0.646 OA
ENDBRANCH   1   8
TORSDOF 1
ENDMDL
MODEL 9
REMARK VINA RESULT:      -3.1      6.817      7.294
REMARK  1 active torsions:
REMARK  status: ('A' for Active; 'I' for Inactive)
REMARK    1  A    between atoms: C_1  and  C_2 
ROOT
HETATM    1  C   UNL     1      65.816   6.507   6.896  1.00  0.00     0.347 C 
HETATM    2  N   UNL     1      64.410   6.955   6.969  1.00  0.00    -0.051 N 
HETATM    3  S   UNL     1      66.725   7.848   6.101  1.00  0.00    -0.124 SA
HETATM    4  C   UNL     1      64.094   7.634   5.708  1.00  0.00     0.244 C 
HETATM    5  C   UNL     1      65.311   8.325   5.090  1.00  0.00     0.104 C 
HETATM    6  H   UNL     1      64.291   7.599   7.751  1.00  0.00     0.279 HD
HETATM    7  H   UNL     1      63.789   6.159   7.113  1.00  0.00     0.279 HD
ENDROOT
BRANCH   1   8
HETATM    8  C   UNL     1      66.391   6.220   8.292  1.00  0.00     0.215 C 
HETATM    9  O   UNL     1      67.011   7.013   8.996  1.00  0.00    -0.646 OA
HETATM   10  O   UNL     1      66.108   4.982   8.760  1.00  0.00    -0.646 OA
ENDBRANCH   1   8
TORSDOF 1
ENDMDL
