MODEL 1
REMARK VINA RESULT:      -5.1      0.000      0.000
REMARK  0 active torsions:
REMARK  status: ('A' for Active; 'I' for Inactive)
ROOT
HETATM    1  C   UNL     1      62.828   9.553   4.289  1.00  0.00     0.086 A 
HETATM    2  C   UNL     1      62.357  10.914   4.062  1.00  0.00     0.085 A 
HETATM    3  C   UNL     1      62.799   8.565   3.291  1.00  0.00     0.057 A 
HETATM    4  O   UNL     1      63.066  10.721   6.105  1.00  0.00    -0.156 OA
HETATM    5  N   UNL     1      63.257   9.465   5.554  1.00  0.00    -0.239 N 
ATOM      6  HN  UNL     1      63.646   8.643   6.016  1.00  0.00     0.197 HD
HETATM    7  N   UNL     1      62.515  11.608   5.194  1.00  0.00    -0.240 N 
ATOM      8  HN  UNL     1      62.278  12.587   5.355  1.00  0.00     0.197 HD
HETATM    9  C   UNL     1      61.839  11.334   2.823  1.00  0.00     0.035 A 
HETATM   10  C   UNL     1      62.276   9.007   2.063  1.00  0.00     0.036 A 
HETATM   11  C   UNL     1      61.816  10.332   1.834  1.00  0.00     0.026 A 
HETATM   12 CL   UNL     1      62.189   7.876   0.759  1.00  0.00    -0.084 Cl
ENDROOT
TORSDOF 0
ENDMDL
MODEL 2
REMARK VINA RESULT:      -4.9      1.446      2.377
REMARK  0 active torsions:
REMARK  status: ('A' for Active; 'I' for Inactive)
ROOT
HETATM    1  C   UNL     1      61.988  10.375   2.467  1.00  0.00     0.086 A 
HETATM    2  C   UNL     1      62.464   9.891   3.758  1.00  0.00     0.085 A 
HETATM    3  C   UNL     1      61.940   9.560   1.323  1.00  0.00     0.057 A 
HETATM    4  O   UNL     1      61.880  11.975   3.932  1.00  0.00    -0.156 OA
HETATM    5  N   UNL     1      61.636  11.659   2.606  1.00  0.00    -0.239 N 
ATOM      6  HN  UNL     1      61.266  12.277   1.885  1.00  0.00     0.197 HD
HETATM    7  N   UNL     1      62.387  10.895   4.638  1.00  0.00    -0.240 N 
ATOM      8  HN  UNL     1      62.647  10.872   5.623  1.00  0.00     0.197 HD
HETATM    9  C   UNL     1      62.910   8.571   3.948  1.00  0.00     0.035 A 
HETATM   10  C   UNL     1      62.393   8.246   1.538  1.00  0.00     0.036 A 
HETATM   11  C   UNL     1      62.857   7.767   2.793  1.00  0.00     0.026 A 
HETATM   12 CL   UNL     1      62.382   7.152   0.200  1.00  0.00    -0.084 Cl
ENDROOT
TORSDOF 0
ENDMDL
MODEL 3
REMARK VINA RESULT:      -4.9      1.747      2.159
REMARK  0 active torsions:
REMARK  status: ('A' for Active; 'I' for Inactive)
ROOT
HETATM    1  C   UNL     1      62.473   9.875   3.685  1.00  0.00     0.086 A 
HETATM    2  C   UNL     1      61.977  10.336   2.394  1.00  0.00     0.085 A 
HETATM    3  C   UNL     1      62.935   8.565   3.896  1.00  0.00     0.057 A 
HETATM    4  O   UNL     1      61.872  11.957   3.833  1.00  0.00    -0.156 OA
HETATM    5  N   UNL     1      62.396  10.894   4.550  1.00  0.00    -0.239 N 
ATOM      6  HN  UNL     1      62.667  10.889   5.533  1.00  0.00     0.197 HD
HETATM    7  N   UNL     1      61.615  11.618   2.515  1.00  0.00    -0.240 N 
ATOM      8  HN  UNL     1      61.230  12.220   1.788  1.00  0.00     0.197 HD
HETATM    9  C   UNL     1      61.927   9.498   1.265  1.00  0.00     0.035 A 
HETATM   10  C   UNL     1      62.873   7.746   2.755  1.00  0.00     0.036 A 
HETATM   11  C   UNL     1      62.392   8.188   1.492  1.00  0.00     0.026 A 
HETATM   12 CL   UNL     1      63.414   6.111   2.895  1.00  0.00    -0.084 Cl
ENDROOT
TORSDOF 0
ENDMDL
MODEL 4
REMARK VINA RESULT:      -4.6      1.847      2.656
REMARK  0 active torsions:
REMARK  status: ('A' for Active; 'I' for Inactive)
ROOT
HETATM    1  C   UNL     1      62.575   9.744   4.779  1.00  0.00     0.086 A 
HETATM    2  C   UNL     1      62.688   8.463   4.092  1.00  0.00     0.085 A 
HETATM    3  C   UNL     1      62.218  10.930   4.115  1.00  0.00     0.057 A 
HETATM    4  O   UNL     1      63.147   8.202   6.198  1.00  0.00    -0.156 OA
HETATM    5  N   UNL     1      62.863   9.552   6.071  1.00  0.00    -0.239 N 
ATOM      6  HN  UNL     1      62.873  10.254   6.811  1.00  0.00     0.197 HD
HETATM    7  N   UNL     1      63.041   7.535   4.988  1.00  0.00    -0.240 N 
ATOM      8  HN  UNL     1      63.199   6.542   4.817  1.00  0.00     0.197 HD
HETATM    9  C   UNL     1      62.445   8.324   2.713  1.00  0.00     0.035 A 
HETATM   10  C   UNL     1      61.983  10.767   2.738  1.00  0.00     0.036 A 
HETATM   11  C   UNL     1      62.089   9.521   2.063  1.00  0.00     0.026 A 
HETATM   12 CL   UNL     1      61.537  12.160   1.817  1.00  0.00    -0.084 Cl
ENDROOT
TORSDOF 0
ENDMDL
MODEL 5
REMARK VINA RESULT:      -4.4      5.960      6.906
REMARK  0 active torsions:
REMARK  status: ('A' for Active; 'I' for Inactive)
ROOT
HETATM    1  C   UNL     1      66.661   7.253   7.313  1.00  0.00     0.086 A 
HETATM    2  C   UNL     1      65.392   6.928   6.672  1.00  0.00     0.085 A 
HETATM    3  C   UNL     1      67.411   6.306   8.031  1.00  0.00     0.057 A 
HETATM    4  O   UNL     1      65.868   9.019   6.327  1.00  0.00    -0.156 OA
HETATM    5  N   UNL     1      66.926   8.545   7.084  1.00  0.00    -0.239 N 
ATOM      6  HN  UNL     1      67.740   9.072   7.401  1.00  0.00     0.197 HD
HETATM    7  N   UNL     1      64.929   8.032   6.074  1.00  0.00    -0.240 N 
ATOM      8  HN  UNL     1      64.063   8.127   5.543  1.00  0.00     0.197 HD
HETATM    9  C   UNL     1      64.829   5.640   6.726  1.00  0.00     0.035 A 
HETATM   10  C   UNL     1      66.828   5.027   8.073  1.00  0.00     0.036 A 
HETATM   11  C   UNL     1      65.593   4.703   7.449  1.00  0.00     0.026 A 
HETATM   12 CL   UNL     1      67.661   3.780   8.931  1.00  0.00    -0.084 Cl
ENDROOT
TORSDOF 0
ENDMDL
MODEL 6
REMARK VINA RESULT:      -4.1      3.418      3.765
REMARK  0 active torsions:
REMARK  status: ('A' for Active; 'I' for Inactive)
ROOT
HETATM    1  C   UNL     1      62.631   8.734   2.735  1.00  0.00     0.086 A 
HETATM    2  C   UNL     1      62.099   9.497   1.612  1.00  0.00     0.085 A 
HETATM    3  C   UNL     1      62.794   9.287   4.016  1.00  0.00     0.057 A 
HETATM    4  O   UNL     1      62.560   7.476   0.966  1.00  0.00    -0.156 OA
HETATM    5  N   UNL     1      62.905   7.496   2.307  1.00  0.00    -0.239 N 
ATOM      6  HN  UNL     1      63.289   6.726   2.855  1.00  0.00     0.197 HD
HETATM    7  N   UNL     1      62.067   8.699   0.539  1.00  0.00    -0.240 N 
ATOM      8  HN  UNL     1      61.747   8.940  -0.399  1.00  0.00     0.197 HD
HETATM    9  C   UNL     1      61.710  10.843   1.733  1.00  0.00     0.035 A 
HETATM   10  C   UNL     1      62.401  10.634   4.113  1.00  0.00     0.036 A 
HETATM   11  C   UNL     1      61.881  11.383   3.023  1.00  0.00     0.026 A 
HETATM   12 CL   UNL     1      62.558  11.421   5.643  1.00  0.00    -0.084 Cl
ENDROOT
TORSDOF 0
ENDMDL
MODEL 7
REMARK VINA RESULT:      -4.1      5.365      6.413
REMARK  0 active torsions:
REMARK  status: ('A' for Active; 'I' for Inactive)
ROOT
HETATM    1  C   UNL     1      65.239   7.053   6.489  1.00  0.00     0.086 A 
HETATM    2  C   UNL     1      66.489   7.217   7.222  1.00  0.00     0.085 A 
HETATM    3  C   UNL     1      64.556   5.827   6.422  1.00  0.00     0.057 A 
HETATM    4  O   UNL     1      65.922   9.107   6.316  1.00  0.00    -0.156 OA
HETATM    5  N   UNL     1      64.916   8.231   5.944  1.00  0.00    -0.239 N 
ATOM      6  HN  UNL     1      64.099   8.441   5.371  1.00  0.00     0.197 HD
HETATM    7  N   UNL     1      66.885   8.489   7.097  1.00  0.00    -0.240 N 
ATOM      8  HN  UNL     1      67.722   8.915   7.495  1.00  0.00     0.197 HD
HETATM    9  C   UNL     1      67.100   6.157   7.915  1.00  0.00     0.035 A 
HETATM   10  C   UNL     1      65.187   4.782   7.120  1.00  0.00     0.036 A 
HETATM   11  C   UNL     1      66.404   4.935   7.837  1.00  0.00     0.026 A 
HETATM   12 CL   UNL     1      64.438   3.224   7.106  1.00  0.00    -0.084 Cl
ENDROOT
TORSDOF 0
ENDMDL
MODEL 8
REMARK VINA RESULT:      -4.1      3.417      4.196
REMARK  0 active torsions:
REMARK  status: ('A' for Active; 'I' for Inactive)
ROOT
HETATM    1  C   UNL     1      61.953   9.807   2.767  1.00  0.00     0.086 A 
HETATM    2  C   UNL     1      62.686   8.547   2.762  1.00  0.00     0.085 A 
HETATM    3  C   UNL     1      62.034  10.726   3.827  1.00  0.00     0.057 A 
HETATM    4  O   UNL     1      61.524   8.720   0.936  1.00  0.00    -0.156 OA
HETATM    5  N   UNL     1      61.248   9.885   1.632  1.00  0.00    -0.239 N 
ATOM      6  HN  UNL     1      60.634  10.645   1.340  1.00  0.00     0.197 HD
HETATM    7  N   UNL     1      62.402   7.900   1.626  1.00  0.00    -0.240 N 
ATOM      8  HN  UNL     1      62.759   6.992   1.329  1.00  0.00     0.197 HD
HETATM    9  C   UNL     1      63.528   8.161   3.821  1.00  0.00     0.035 A 
HETATM   10  C   UNL     1      62.879  10.319   4.874  1.00  0.00     0.036 A 
HETATM   11  C   UNL     1      63.597   9.092   4.876  1.00  0.00     0.026 A 
HETATM   12 CL   UNL     1      63.056  11.370   6.234  1.00  0.00    -0.084 Cl
ENDROOT
TORSDOF 0
ENDMDL
MODEL 9
REMARK VINA RESULT:      -4.1      3.101      3.501
REMARK  0 active torsions:
REMARK  status: ('A' for Active; 'I' for Inactive)
ROOT
HETATM    1  C   UNL     1      62.623   8.861   2.764  1.00  0.00     0.086 A 
HETATM    2  C   UNL     1      62.082  10.138   3.214  1.00  0.00     0.085 A 
HETATM    3  C   UNL     1      63.471   8.074   3.562  1.00  0.00     0.057 A 
HETATM    4  O   UNL     1      61.371   9.712   1.207  1.00  0.00    -0.156 OA
HETATM    5  N   UNL     1      62.168   8.626   1.528  1.00  0.00    -0.239 N 
ATOM      6  HN  UNL     1      62.368   7.816   0.942  1.00  0.00     0.197 HD
HETATM    7  N   UNL     1      61.318  10.638   2.237  1.00  0.00    -0.240 N 
ATOM      8  HN  UNL     1      60.803  11.518   2.247  1.00  0.00     0.197 HD
HETATM    9  C   UNL     1      62.372  10.674   4.482  1.00  0.00     0.035 A 
HETATM   10  C   UNL     1      63.748   8.631   4.824  1.00  0.00     0.036 A 
HETATM   11  C   UNL     1      63.224   9.874   5.269  1.00  0.00     0.026 A 
HETATM   12 CL   UNL     1      64.783   7.752   5.892  1.00  0.00    -0.084 Cl
ENDROOT
TORSDOF 0
ENDMDL
