MODEL 1
REMARK VINA RESULT:      -5.4      0.000      0.000
REMARK  0 active torsions:
REMARK  status: ('A' for Active; 'I' for Inactive)
ROOT
HETATM    1  O   UNL     1      65.680   5.778   6.817  1.00  0.00    -0.336 OA
HETATM    2  C   UNL     1      64.975   6.797   6.245  1.00  0.00     0.080 A 
HETATM    3  C   UNL     1      65.559   7.820   5.494  1.00  0.00    -0.002 A 
HETATM    4  C   UNL     1      66.997   7.840   5.287  1.00  0.00     0.013 A 
HETATM    5  N   UNL     1      61.886  10.642   4.074  1.00  0.00    -0.191 NA
HETATM    6  C   UNL     1      67.120   5.784   6.717  1.00  0.00     0.078 A 
HETATM    7  C   UNL     1      67.720   6.876   5.862  1.00  0.00     0.011 A 
HETATM    8  C   UNL     1      62.545   9.812   4.550  1.00  0.00     0.099 C 
HETATM    9  C   UNL     1      64.750   8.817   4.937  1.00  0.00     0.037 A 
HETATM   10  C   UNL     1      63.593   6.769   6.439  1.00  0.00     0.039 A 
HETATM   11  C   UNL     1      63.365   8.790   5.129  1.00  0.00     0.045 A 
HETATM   12  C   UNL     1      62.786   7.764   5.883  1.00  0.00     0.025 A 
HETATM   13  C   UNL     1      67.656   5.927   8.146  1.00  0.00     0.051 C 
HETATM   14  C   UNL     1      67.513   4.422   6.133  1.00  0.00     0.051 C 
ENDROOT
TORSDOF 0
ENDMDL
MODEL 2
REMARK VINA RESULT:      -5.1      2.092      2.817
REMARK  0 active torsions:
REMARK  status: ('A' for Active; 'I' for Inactive)
ROOT
HETATM    1  O   UNL     1      65.050   8.376   5.969  1.00  0.00    -0.336 OA
HETATM    2  C   UNL     1      64.194   8.396   4.906  1.00  0.00     0.080 A 
HETATM    3  C   UNL     1      64.138   7.394   3.933  1.00  0.00    -0.002 A 
HETATM    4  C   UNL     1      65.026   6.248   4.019  1.00  0.00     0.013 A 
HETATM    5  N   UNL     1      60.648   8.763   0.865  1.00  0.00    -0.191 NA
HETATM    6  C   UNL     1      66.014   7.305   6.067  1.00  0.00     0.078 A 
HETATM    7  C   UNL     1      65.901   6.214   5.027  1.00  0.00     0.011 A 
HETATM    8  C   UNL     1      61.412   8.695   1.738  1.00  0.00     0.099 C 
HETATM    9  C   UNL     1      63.217   7.500   2.885  1.00  0.00     0.037 A 
HETATM   10  C   UNL     1      63.337   9.495   4.832  1.00  0.00     0.039 A 
HETATM   11  C   UNL     1      62.356   8.599   2.811  1.00  0.00     0.045 A 
HETATM   12  C   UNL     1      62.418   9.600   3.786  1.00  0.00     0.025 A 
HETATM   13  C   UNL     1      67.399   7.953   5.951  1.00  0.00     0.051 C 
HETATM   14  C   UNL     1      65.827   6.689   7.458  1.00  0.00     0.051 C 
ENDROOT
TORSDOF 0
ENDMDL
MODEL 3
REMARK VINA RESULT:      -5.0      3.178      5.721
REMARK  0 active torsions:
REMARK  status: ('A' for Active; 'I' for Inactive)
ROOT
HETATM    1  O   UNL     1      62.702   7.466   2.218  1.00  0.00    -0.336 OA
HETATM    2  C   UNL     1      63.542   7.551   3.291  1.00  0.00     0.080 A 
HETATM    3  C   UNL     1      63.543   8.617   4.194  1.00  0.00    -0.002 A 
HETATM    4  C   UNL     1      62.615   9.720   4.018  1.00  0.00     0.013 A 
HETATM    5  N   UNL     1      66.957   7.542   7.459  1.00  0.00    -0.191 NA
HETATM    6  C   UNL     1      61.812   8.568   1.940  1.00  0.00     0.078 A 
HETATM    7  C   UNL     1      61.803   9.686   2.958  1.00  0.00     0.011 A 
HETATM    8  C   UNL     1      66.227   7.538   6.555  1.00  0.00     0.099 C 
HETATM    9  C   UNL     1      64.436   8.609   5.272  1.00  0.00     0.037 A 
HETATM   10  C   UNL     1      64.426   6.485   3.462  1.00  0.00     0.039 A 
HETATM   11  C   UNL     1      65.321   7.540   5.446  1.00  0.00     0.045 A 
HETATM   12  C   UNL     1      65.317   6.477   4.537  1.00  0.00     0.025 A 
HETATM   13  C   UNL     1      62.238   9.141   0.584  1.00  0.00     0.051 C 
HETATM   14  C   UNL     1      60.405   7.968   1.849  1.00  0.00     0.051 C 
ENDROOT
TORSDOF 0
ENDMDL
MODEL 4
REMARK VINA RESULT:      -5.0      1.626      1.993
REMARK  0 active torsions:
REMARK  status: ('A' for Active; 'I' for Inactive)
ROOT
HETATM    1  O   UNL     1      65.077   5.727   4.224  1.00  0.00    -0.336 OA
HETATM    2  C   UNL     1      64.441   6.934   4.254  1.00  0.00     0.080 A 
HETATM    3  C   UNL     1      64.747   7.952   5.161  1.00  0.00    -0.002 A 
HETATM    4  C   UNL     1      65.795   7.755   6.148  1.00  0.00     0.013 A 
HETATM    5  N   UNL     1      61.767  11.608   4.057  1.00  0.00    -0.191 NA
HETATM    6  C   UNL     1      66.071   5.438   5.230  1.00  0.00     0.078 A 
HETATM    7  C   UNL     1      66.413   6.572   6.169  1.00  0.00     0.011 A 
HETATM    8  C   UNL     1      62.335  10.595   4.095  1.00  0.00     0.099 C 
HETATM    9  C   UNL     1      64.045   9.161   5.106  1.00  0.00     0.037 A 
HETATM   10  C   UNL     1      63.441   7.122   3.298  1.00  0.00     0.039 A 
HETATM   11  C   UNL     1      63.044   9.352   4.147  1.00  0.00     0.045 A 
HETATM   12  C   UNL     1      62.741   8.329   3.243  1.00  0.00     0.025 A 
HETATM   13  C   UNL     1      65.531   4.263   6.053  1.00  0.00     0.051 C 
HETATM   14  C   UNL     1      67.337   5.021   4.472  1.00  0.00     0.051 C 
ENDROOT
TORSDOF 0
ENDMDL
MODEL 5
REMARK VINA RESULT:      -4.7      4.078      6.553
REMARK  0 active torsions:
REMARK  status: ('A' for Active; 'I' for Inactive)
ROOT
HETATM    1  O   UNL     1      59.904   6.665   2.677  1.00  0.00    -0.336 OA
HETATM    2  C   UNL     1      61.023   7.215   3.235  1.00  0.00     0.080 A 
HETATM    3  C   UNL     1      61.775   8.226   2.631  1.00  0.00    -0.002 A 
HETATM    4  C   UNL     1      61.380   8.751   1.336  1.00  0.00     0.013 A 
HETATM    5  N   UNL     1      65.359   9.203   5.741  1.00  0.00    -0.191 NA
HETATM    6  C   UNL     1      59.506   7.085   1.355  1.00  0.00     0.078 A 
HETATM    7  C   UNL     1      60.311   8.211   0.746  1.00  0.00     0.011 A 
HETATM    8  C   UNL     1      64.425   8.765   5.206  1.00  0.00     0.099 C 
HETATM    9  C   UNL     1      62.902   8.734   3.287  1.00  0.00     0.037 A 
HETATM   10  C   UNL     1      61.393   6.714   4.484  1.00  0.00     0.039 A 
HETATM   11  C   UNL     1      63.274   8.234   4.540  1.00  0.00     0.045 A 
HETATM   12  C   UNL     1      62.518   7.221   5.138  1.00  0.00     0.025 A 
HETATM   13  C   UNL     1      59.623   5.852   0.452  1.00  0.00     0.051 C 
HETATM   14  C   UNL     1      58.042   7.526   1.470  1.00  0.00     0.051 C 
ENDROOT
TORSDOF 0
ENDMDL
MODEL 6
REMARK VINA RESULT:      -4.7      3.681      6.025
REMARK  0 active torsions:
REMARK  status: ('A' for Active; 'I' for Inactive)
ROOT
HETATM    1  O   UNL     1      60.844   8.696   2.757  1.00  0.00    -0.336 OA
HETATM    2  C   UNL     1      62.004   8.591   3.471  1.00  0.00     0.080 A 
HETATM    3  C   UNL     1      62.866   7.495   3.395  1.00  0.00    -0.002 A 
HETATM    4  C   UNL     1      62.549   6.380   2.520  1.00  0.00     0.013 A 
HETATM    5  N   UNL     1      66.535   8.528   6.386  1.00  0.00    -0.191 NA
HETATM    6  C   UNL     1      60.431   7.586   1.932  1.00  0.00     0.078 A 
HETATM    7  C   UNL     1      61.405   6.434   1.835  1.00  0.00     0.011 A 
HETATM    8  C   UNL     1      65.553   8.548   5.765  1.00  0.00     0.099 C 
HETATM    9  C   UNL     1      64.039   7.485   4.158  1.00  0.00     0.037 A 
HETATM   10  C   UNL     1      62.309   9.669   4.303  1.00  0.00     0.039 A 
HETATM   11  C   UNL     1      64.348   8.565   4.992  1.00  0.00     0.045 A 
HETATM   12  C   UNL     1      63.479   9.659   5.065  1.00  0.00     0.025 A 
HETATM   13  C   UNL     1      59.115   7.068   2.524  1.00  0.00     0.051 C 
HETATM   14  C   UNL     1      60.197   8.160   0.530  1.00  0.00     0.051 C 
ENDROOT
TORSDOF 0
ENDMDL
MODEL 7
REMARK VINA RESULT:      -4.5      3.808      6.404
REMARK  0 active torsions:
REMARK  status: ('A' for Active; 'I' for Inactive)
ROOT
HETATM    1  O   UNL     1      59.655   7.766   3.157  1.00  0.00    -0.336 OA
HETATM    2  C   UNL     1      60.877   7.933   3.741  1.00  0.00     0.080 A 
HETATM    3  C   UNL     1      61.357   7.133   4.782  1.00  0.00    -0.002 A 
HETATM    4  C   UNL     1      60.539   6.051   5.303  1.00  0.00     0.013 A 
HETATM    5  N   UNL     1      65.782   8.831   5.783  1.00  0.00    -0.191 NA
HETATM    6  C   UNL     1      58.761   6.762   3.683  1.00  0.00     0.078 A 
HETATM    7  C   UNL     1      59.323   5.883   4.777  1.00  0.00     0.011 A 
HETATM    8  C   UNL     1      64.724   8.647   5.340  1.00  0.00     0.099 C 
HETATM    9  C   UNL     1      62.630   7.376   5.309  1.00  0.00     0.037 A 
HETATM   10  C   UNL     1      61.663   8.968   3.231  1.00  0.00     0.039 A 
HETATM   11  C   UNL     1      63.420   8.411   4.798  1.00  0.00     0.045 A 
HETATM   12  C   UNL     1      62.933   9.209   3.758  1.00  0.00     0.025 A 
HETATM   13  C   UNL     1      57.539   7.508   4.231  1.00  0.00     0.051 C 
HETATM   14  C   UNL     1      58.361   5.881   2.494  1.00  0.00     0.051 C 
ENDROOT
TORSDOF 0
ENDMDL
MODEL 8
REMARK VINA RESULT:      -4.5      3.031      3.825
REMARK  0 active torsions:
REMARK  status: ('A' for Active; 'I' for Inactive)
ROOT
HETATM    1  O   UNL     1      63.655   5.686   2.114  1.00  0.00    -0.336 OA
HETATM    2  C   UNL     1      63.319   6.930   2.566  1.00  0.00     0.080 A 
HETATM    3  C   UNL     1      63.801   7.480   3.757  1.00  0.00    -0.002 A 
HETATM    4  C   UNL     1      64.712   6.718   4.593  1.00  0.00     0.013 A 
HETATM    5  N   UNL     1      61.834  11.899   4.029  1.00  0.00    -0.191 NA
HETATM    6  C   UNL     1      64.492   4.847   2.938  1.00  0.00     0.078 A 
HETATM    7  C   UNL     1      65.033   5.484   4.198  1.00  0.00     0.011 A 
HETATM    8  C   UNL     1      62.145  10.826   3.708  1.00  0.00     0.099 C 
HETATM    9  C   UNL     1      63.407   8.769   4.132  1.00  0.00     0.037 A 
HETATM   10  C   UNL     1      62.451   7.662   1.755  1.00  0.00     0.039 A 
HETATM   11  C   UNL     1      62.538   9.505   3.319  1.00  0.00     0.045 A 
HETATM   12  C   UNL     1      62.058   8.948   2.129  1.00  0.00     0.025 A 
HETATM   13  C   UNL     1      63.642   3.632   3.328  1.00  0.00     0.051 C 
HETATM   14  C   UNL     1      65.668   4.416   2.054  1.00  0.00     0.051 C 
ENDROOT
TORSDOF 0
ENDMDL
MODEL 9
REMARK VINA RESULT:      -4.3      4.578      6.228
REMARK  0 active torsions:
REMARK  status: ('A' for Active; 'I' for Inactive)
ROOT
HETATM    1  O   UNL     1      60.633   8.390   2.583  1.00  0.00    -0.336 OA
HETATM    2  C   UNL     1      60.544   7.606   3.698  1.00  0.00     0.080 A 
HETATM    3  C   UNL     1      61.630   7.303   4.523  1.00  0.00    -0.002 A 
HETATM    4  C   UNL     1      62.948   7.828   4.212  1.00  0.00     0.013 A 
HETATM    5  N   UNL     1      59.830   4.526   8.061  1.00  0.00    -0.191 NA
HETATM    6  C   UNL     1      61.929   8.876   2.174  1.00  0.00     0.078 A 
HETATM    7  C   UNL     1      63.077   8.569   3.109  1.00  0.00     0.011 A 
HETATM    8  C   UNL     1      59.975   5.186   7.115  1.00  0.00     0.099 C 
HETATM    9  C   UNL     1      61.437   6.499   5.651  1.00  0.00     0.037 A 
HETATM   10  C   UNL     1      59.274   7.111   3.997  1.00  0.00     0.039 A 
HETATM   11  C   UNL     1      60.164   6.003   5.954  1.00  0.00     0.045 A 
HETATM   12  C   UNL     1      59.082   6.309   5.124  1.00  0.00     0.025 A 
HETATM   13  C   UNL     1      62.223   8.241   0.810  1.00  0.00     0.051 C 
HETATM   14  C   UNL     1      61.792  10.396   2.037  1.00  0.00     0.051 C 
ENDROOT
TORSDOF 0
ENDMDL
