MODEL 1
REMARK VINA RESULT:      -3.7      0.000      0.000
REMARK  2 active torsions:
REMARK  status: ('A' for Active; 'I' for Inactive)
REMARK    1  A    between atoms: C_2  and  C_8 
REMARK    2  A    between atoms: C_8  and  O_10 
ROOT
HETATM    1  N   UNL     1      62.561   8.591   3.349  1.00  0.00    -0.065 N 
HETATM    2  C   UNL     1      62.404   9.632   2.300  1.00  0.00     0.237 C 
HETATM    3  N   UNL     1      60.193   8.642   1.627  1.00  0.00    -0.071 N 
HETATM    4  C   UNL     1      61.540   9.028   1.153  1.00  0.00     0.269 C 
HETATM    5  C   UNL     1      61.258   8.151   3.865  1.00  0.00     0.262 C 
HETATM    6  C   UNL     1      60.325   7.665   2.729  1.00  0.00     0.262 C 
HETATM    7  C   UNL     1      63.513   8.914   4.398  1.00  0.00     0.270 C 
HETATM    8  C   UNL     1      59.391   8.092   0.538  1.00  0.00     0.269 C 
HETATM    9  H   UNL     1      62.992   7.796   2.879  1.00  0.00     0.280 HD
HETATM   10  H   UNL     1      59.709   9.472   1.970  1.00  0.00     0.279 HD
ENDROOT
BRANCH   2  11
HETATM   11  C   UNL     1      61.778  10.991   2.718  1.00  0.00     0.199 C 
BRANCH  11  12
HETATM   12  O   UNL     1      62.100  12.054   1.825  1.00  0.00    -0.399 OA
HETATM   13  H   UNL     1      61.914  12.904   2.253  1.00  0.00     0.209 HD
ENDBRANCH  11  12
ENDBRANCH   2  11
TORSDOF 2
ENDMDL
MODEL 2
REMARK VINA RESULT:      -3.6      3.110      4.277
REMARK  2 active torsions:
REMARK  status: ('A' for Active; 'I' for Inactive)
REMARK    1  A    between atoms: C_2  and  C_8 
REMARK    2  A    between atoms: C_8  and  O_10 
ROOT
HETATM    1  N   UNL     1      64.646   7.218   3.979  1.00  0.00    -0.065 N 
HETATM    2  C   UNL     1      64.380   7.835   5.305  1.00  0.00     0.237 C 
HETATM    3  N   UNL     1      62.588   9.279   4.291  1.00  0.00    -0.071 N 
HETATM    4  C   UNL     1      63.850   9.280   5.061  1.00  0.00     0.269 C 
HETATM    5  C   UNL     1      63.434   7.187   3.151  1.00  0.00     0.262 C 
HETATM    6  C   UNL     1      62.807   8.596   2.997  1.00  0.00     0.262 C 
HETATM    7  C   UNL     1      65.343   5.944   4.023  1.00  0.00     0.270 C 
HETATM    8  C   UNL     1      62.098  10.637   4.084  1.00  0.00     0.269 C 
HETATM    9  H   UNL     1      65.317   7.835   3.522  1.00  0.00     0.280 HD
HETATM   10  H   UNL     1      61.875   8.775   4.820  1.00  0.00     0.279 HD
ENDROOT
BRANCH   2  11
HETATM   11  C   UNL     1      63.391   7.107   6.256  1.00  0.00     0.199 C 
BRANCH  11  12
HETATM   12  O   UNL     1      62.620   8.002   7.052  1.00  0.00    -0.399 OA
HETATM   13  H   UNL     1      63.107   8.216   7.863  1.00  0.00     0.209 HD
ENDBRANCH  11  12
ENDBRANCH   2  11
TORSDOF 2
ENDMDL
MODEL 3
REMARK VINA RESULT:      -3.6      4.523      5.701
REMARK  2 active torsions:
REMARK  status: ('A' for Active; 'I' for Inactive)
REMARK    1  A    between atoms: C_2  and  C_8 
REMARK    2  A    between atoms: C_8  and  O_10 
ROOT
HETATM    1  N   UNL     1      65.073   5.860   5.720  1.00  0.00    -0.065 N 
HETATM    2  C   UNL     1      65.996   7.023   5.652  1.00  0.00     0.237 C 
HETATM    3  N   UNL     1      64.042   8.601   5.773  1.00  0.00    -0.071 N 
HETATM    4  C   UNL     1      65.229   8.203   4.984  1.00  0.00     0.269 C 
HETATM    5  C   UNL     1      63.862   6.183   6.485  1.00  0.00     0.262 C 
HETATM    6  C   UNL     1      63.144   7.436   5.923  1.00  0.00     0.262 C 
HETATM    7  C   UNL     1      65.689   4.608   6.124  1.00  0.00     0.270 C 
HETATM    8  C   UNL     1      63.344   9.717   5.143  1.00  0.00     0.269 C 
HETATM    9  H   UNL     1      64.791   5.681   4.756  1.00  0.00     0.280 HD
HETATM   10  H   UNL     1      64.345   8.914   6.696  1.00  0.00     0.279 HD
ENDROOT
BRANCH   2  11
HETATM   11  C   UNL     1      66.615   7.533   6.982  1.00  0.00     0.199 C 
BRANCH  11  12
HETATM   12  O   UNL     1      66.816   8.943   7.001  1.00  0.00    -0.399 OA
HETATM   13  H   UNL     1      67.551   9.173   6.410  1.00  0.00     0.209 HD
ENDBRANCH  11  12
ENDBRANCH   2  11
TORSDOF 2
ENDMDL
MODEL 4
REMARK VINA RESULT:      -3.5      5.998      7.950
REMARK  2 active torsions:
REMARK  status: ('A' for Active; 'I' for Inactive)
REMARK    1  A    between atoms: C_2  and  C_8 
REMARK    2  A    between atoms: C_8  and  O_10 
ROOT
HETATM    1  N   UNL     1      65.895   5.668   5.526  1.00  0.00    -0.065 N 
HETATM    2  C   UNL     1      65.628   6.802   6.448  1.00  0.00     0.237 C 
HETATM    3  N   UNL     1      67.603   6.140   7.857  1.00  0.00    -0.071 N 
HETATM    4  C   UNL     1      66.147   6.400   7.862  1.00  0.00     0.269 C 
HETATM    5  C   UNL     1      67.327   5.346   5.474  1.00  0.00     0.262 C 
HETATM    6  C   UNL     1      67.903   5.068   6.885  1.00  0.00     0.262 C 
HETATM    7  C   UNL     1      65.287   5.789   4.211  1.00  0.00     0.270 C 
HETATM    8  C   UNL     1      68.075   5.780   9.190  1.00  0.00     0.269 C 
HETATM    9  H   UNL     1      65.412   4.868   5.933  1.00  0.00     0.280 HD
HETATM   10  H   UNL     1      68.093   6.992   7.581  1.00  0.00     0.279 HD
ENDROOT
BRANCH   2  11
HETATM   11  C   UNL     1      66.229   8.188   6.084  1.00  0.00     0.199 C 
BRANCH  11  12
HETATM   12  O   UNL     1      66.946   8.786   7.160  1.00  0.00    -0.399 OA
HETATM   13  H   UNL     1      67.873   8.500   7.130  1.00  0.00     0.209 HD
ENDBRANCH  11  12
ENDBRANCH   2  11
TORSDOF 2
ENDMDL
MODEL 5
REMARK VINA RESULT:      -3.3     13.825     14.679
REMARK  2 active torsions:
REMARK  status: ('A' for Active; 'I' for Inactive)
REMARK    1  A    between atoms: C_2  and  C_8 
REMARK    2  A    between atoms: C_8  and  O_10 
ROOT
HETATM    1  N   UNL     1      56.721   0.027  13.218  1.00  0.00    -0.065 N 
HETATM    2  C   UNL     1      57.478   1.294  13.046  1.00  0.00     0.237 C 
HETATM    3  N   UNL     1      55.602   2.579  14.119  1.00  0.00    -0.071 N 
HETATM    4  C   UNL     1      56.445   2.452  12.910  1.00  0.00     0.269 C 
HETATM    5  C   UNL     1      55.852   0.080  14.401  1.00  0.00     0.262 C 
HETATM    6  C   UNL     1      54.899   1.300  14.358  1.00  0.00     0.262 C 
HETATM    7  C   UNL     1      57.523  -1.183  13.151  1.00  0.00     0.270 C 
HETATM    8  C   UNL     1      54.651   3.677  13.982  1.00  0.00     0.269 C 
HETATM    9  H   UNL     1      56.121  -0.045  12.397  1.00  0.00     0.280 HD
HETATM   10  H   UNL     1      56.198   2.790  14.920  1.00  0.00     0.279 HD
ENDROOT
BRANCH   2  11
HETATM   11  C   UNL     1      58.503   1.679  14.147  1.00  0.00     0.199 C 
BRANCH  11  12
HETATM   12  O   UNL     1      59.755   2.111  13.620  1.00  0.00    -0.399 OA
HETATM   13  H   UNL     1      60.344   2.360  14.349  1.00  0.00     0.209 HD
ENDBRANCH  11  12
ENDBRANCH   2  11
TORSDOF 2
ENDMDL
MODEL 6
REMARK VINA RESULT:      -3.2      1.565      3.731
REMARK  2 active torsions:
REMARK  status: ('A' for Active; 'I' for Inactive)
REMARK    1  A    between atoms: C_2  and  C_8 
REMARK    2  A    between atoms: C_8  and  O_10 
ROOT
HETATM    1  N   UNL     1      61.497   7.905   3.006  1.00  0.00    -0.065 N 
HETATM    2  C   UNL     1      61.555   9.092   3.898  1.00  0.00     0.237 C 
HETATM    3  N   UNL     1      63.984   8.638   4.367  1.00  0.00    -0.071 N 
HETATM    4  C   UNL     1      62.649   8.825   4.976  1.00  0.00     0.269 C 
HETATM    5  C   UNL     1      62.795   7.651   2.367  1.00  0.00     0.262 C 
HETATM    6  C   UNL     1      63.930   7.511   3.412  1.00  0.00     0.262 C 
HETATM    7  C   UNL     1      60.386   7.894   2.069  1.00  0.00     0.270 C 
HETATM    8  C   UNL     1      64.998   8.405   5.390  1.00  0.00     0.269 C 
HETATM    9  H   UNL     1      61.293   7.115   3.617  1.00  0.00     0.280 HD
HETATM   10  H   UNL     1      64.245   9.489   3.869  1.00  0.00     0.279 HD
ENDROOT
BRANCH   2  11
HETATM   11  C   UNL     1      61.838  10.473   3.247  1.00  0.00     0.199 C 
BRANCH  11  12
HETATM   12  O   UNL     1      62.098  11.499   4.202  1.00  0.00    -0.399 OA
HETATM   13  H   UNL     1      63.056  11.609   4.304  1.00  0.00     0.209 HD
ENDBRANCH  11  12
ENDBRANCH   2  11
TORSDOF 2
ENDMDL
MODEL 7
REMARK VINA RESULT:      -3.2      2.692      4.601
REMARK  2 active torsions:
REMARK  status: ('A' for Active; 'I' for Inactive)
REMARK    1  A    between atoms: C_2  and  C_8 
REMARK    2  A    between atoms: C_8  and  O_10 
ROOT
HETATM    1  N   UNL     1      62.200   7.714   3.998  1.00  0.00    -0.065 N 
HETATM    2  C   UNL     1      62.752   8.327   5.234  1.00  0.00     0.237 C 
HETATM    3  N   UNL     1      65.011   7.341   4.733  1.00  0.00    -0.071 N 
HETATM    4  C   UNL     1      63.923   7.427   5.732  1.00  0.00     0.269 C 
HETATM    5  C   UNL     1      63.229   7.589   2.958  1.00  0.00     0.262 C 
HETATM    6  C   UNL     1      64.467   6.808   3.466  1.00  0.00     0.262 C 
HETATM    7  C   UNL     1      60.966   8.310   3.515  1.00  0.00     0.270 C 
HETATM    8  C   UNL     1      66.105   6.508   5.221  1.00  0.00     0.269 C 
HETATM    9  H   UNL     1      61.915   6.773   4.266  1.00  0.00     0.280 HD
HETATM   10  H   UNL     1      65.389   8.275   4.571  1.00  0.00     0.279 HD
ENDROOT
BRANCH   2  11
HETATM   11  C   UNL     1      63.264   9.792   5.149  1.00  0.00     0.199 C 
BRANCH  11  12
HETATM   12  O   UNL     1      64.509   9.988   5.815  1.00  0.00    -0.399 OA
HETATM   13  H   UNL     1      64.346  10.240   6.737  1.00  0.00     0.209 HD
ENDBRANCH  11  12
ENDBRANCH   2  11
TORSDOF 2
ENDMDL
MODEL 8
REMARK VINA RESULT:      -3.2      3.886      5.292
REMARK  2 active torsions:
REMARK  status: ('A' for Active; 'I' for Inactive)
REMARK    1  A    between atoms: C_2  and  C_8 
REMARK    2  A    between atoms: C_8  and  O_10 
ROOT
HETATM    1  N   UNL     1      66.363   6.302   4.688  1.00  0.00    -0.065 N 
HETATM    2  C   UNL     1      65.773   7.279   5.639  1.00  0.00     0.237 C 
HETATM    3  N   UNL     1      63.791   7.582   4.121  1.00  0.00    -0.071 N 
HETATM    4  C   UNL     1      64.897   8.273   4.819  1.00  0.00     0.269 C 
HETATM    5  C   UNL     1      65.321   5.577   3.949  1.00  0.00     0.262 C 
HETATM    6  C   UNL     1      64.352   6.546   3.226  1.00  0.00     0.262 C 
HETATM    7  C   UNL     1      67.376   5.428   5.255  1.00  0.00     0.270 C 
HETATM    8  C   UNL     1      62.972   8.527   3.370  1.00  0.00     0.269 C 
HETATM    9  H   UNL     1      66.888   6.860   4.015  1.00  0.00     0.280 HD
HETATM   10  H   UNL     1      63.186   7.137   4.812  1.00  0.00     0.279 HD
ENDROOT
BRANCH   2  11
HETATM   11  C   UNL     1      64.915   6.723   6.808  1.00  0.00     0.199 C 
BRANCH  11  12
HETATM   12  O   UNL     1      63.655   7.375   6.937  1.00  0.00    -0.399 OA
HETATM   13  H   UNL     1      63.678   7.975   7.698  1.00  0.00     0.209 HD
ENDBRANCH  11  12
ENDBRANCH   2  11
TORSDOF 2
ENDMDL
MODEL 9
REMARK VINA RESULT:      -3.2      4.977      6.142
REMARK  2 active torsions:
REMARK  status: ('A' for Active; 'I' for Inactive)
REMARK    1  A    between atoms: C_2  and  C_8 
REMARK    2  A    between atoms: C_8  and  O_10 
ROOT
HETATM    1  N   UNL     1      64.089   5.243   4.935  1.00  0.00    -0.065 N 
HETATM    2  C   UNL     1      63.659   5.886   6.205  1.00  0.00     0.237 C 
HETATM    3  N   UNL     1      65.468   7.616   5.959  1.00  0.00    -0.071 N 
HETATM    4  C   UNL     1      64.908   6.568   6.840  1.00  0.00     0.269 C 
HETATM    5  C   UNL     1      64.665   6.224   4.007  1.00  0.00     0.262 C 
HETATM    6  C   UNL     1      65.829   7.014   4.657  1.00  0.00     0.262 C 
HETATM    7  C   UNL     1      63.096   4.382   4.315  1.00  0.00     0.270 C 
HETATM    8  C   UNL     1      66.626   8.255   6.575  1.00  0.00     0.269 C 
HETATM    9  H   UNL     1      64.830   4.593   5.197  1.00  0.00     0.280 HD
HETATM   10  H   UNL     1      64.764   8.339   5.811  1.00  0.00     0.279 HD
ENDROOT
BRANCH   2  11
HETATM   11  C   UNL     1      62.514   6.932   6.134  1.00  0.00     0.199 C 
BRANCH  11  12
HETATM   12  O   UNL     1      62.635   7.962   7.111  1.00  0.00    -0.399 OA
HETATM   13  H   UNL     1      62.092   7.740   7.883  1.00  0.00     0.209 HD
ENDBRANCH  11  12
ENDBRANCH   2  11
TORSDOF 2
ENDMDL
