MODEL 1
REMARK VINA RESULT:      -5.9      0.000      0.000
REMARK  3 active torsions:
REMARK  status: ('A' for Active; 'I' for Inactive)
REMARK    1  A    between atoms: C_1  and  C_4 
REMARK    2  A    between atoms: C_2  and  C_9 
REMARK    3  A    between atoms: C_3  and  C_11 
ROOT
HETATM    1  C   UNL     1      62.185   9.691   3.901  1.00  0.00     0.057 A 
HETATM    2  N   UNL     1      61.215   7.473   3.826  1.00  0.00    -0.373 N 
ATOM      3  HN  UNL     1      60.487   6.835   3.505  1.00  0.00     0.164 HD
HETATM    4  C   UNL     1      63.220   9.228   4.720  1.00  0.00     0.041 A 
HETATM    5  C   UNL     1      63.246   7.882   5.083  1.00  0.00     0.034 A 
HETATM    6  C   UNL     1      61.218   8.785   3.482  1.00  0.00     0.106 A 
HETATM    7  C   UNL     1      62.230   7.055   4.620  1.00  0.00     0.108 A 
ENDROOT
BRANCH   5   8
HETATM    8  C   UNL     1      64.292   7.352   5.900  1.00  0.00    -0.060 C 
HETATM    9  C   UNL     1      65.158   6.851   6.562  1.00  0.00    -0.061 C 
BRANCH   9  10
HETATM   10  C   UNL     1      66.165   6.188   7.333  1.00  0.00     0.018 A 
HETATM   11  C   UNL     1      66.555   4.889   6.996  1.00  0.00     0.020 A 
HETATM   12  C   UNL     1      67.507   4.221   7.767  1.00  0.00     0.001 A 
HETATM   13  C   UNL     1      68.075   4.853   8.873  1.00  0.00     0.000 A 
HETATM   14  C   UNL     1      67.697   6.154   9.205  1.00  0.00     0.001 A 
HETATM   15  C   UNL     1      66.742   6.823   8.435  1.00  0.00     0.020 A 
ENDBRANCH   9  10
ENDBRANCH   5   8
BRANCH   1  16
HETATM   16  C   UNL     1      62.071  11.091   3.454  1.00  0.00     0.210 C 
HETATM   17  O   UNL     1      62.025  11.467   2.298  1.00  0.00    -0.644 OA
HETATM   18  O   UNL     1      62.022  11.960   4.478  1.00  0.00    -0.644 OA
ENDBRANCH   1  16
TORSDOF 3
ENDMDL
MODEL 2
REMARK VINA RESULT:      -5.7      4.287      7.646
REMARK  3 active torsions:
REMARK  status: ('A' for Active; 'I' for Inactive)
REMARK    1  A    between atoms: C_1  and  C_4 
REMARK    2  A    between atoms: C_2  and  C_9 
REMARK    3  A    between atoms: C_3  and  C_11 
ROOT
HETATM    1  C   UNL     1      66.585   4.792   7.470  1.00  0.00     0.057 A 
HETATM    2  N   UNL     1      67.511   6.899   8.223  1.00  0.00    -0.373 N 
ATOM      3  HN  UNL     1      68.181   7.420   8.789  1.00  0.00     0.164 HD
HETATM    4  C   UNL     1      65.660   5.467   6.667  1.00  0.00     0.041 A 
HETATM    5  C   UNL     1      65.672   6.861   6.646  1.00  0.00     0.034 A 
HETATM    6  C   UNL     1      67.482   5.543   8.219  1.00  0.00     0.106 A 
HETATM    7  C   UNL     1      66.604   7.524   7.436  1.00  0.00     0.108 A 
ENDROOT
BRANCH   5   8
HETATM    8  C   UNL     1      64.764   7.600   5.826  1.00  0.00    -0.060 C 
HETATM    9  C   UNL     1      64.044   8.268   5.137  1.00  0.00    -0.061 C 
BRANCH   9  10
HETATM   10  C   UNL     1      63.227   9.120   4.327  1.00  0.00     0.018 A 
HETATM   11  C   UNL     1      62.837   8.699   3.053  1.00  0.00     0.020 A 
HETATM   12  C   UNL     1      62.075   9.540   2.241  1.00  0.00     0.001 A 
HETATM   13  C   UNL     1      61.697  10.800   2.703  1.00  0.00     0.000 A 
HETATM   14  C   UNL     1      62.075  11.218   3.980  1.00  0.00     0.001 A 
HETATM   15  C   UNL     1      62.840  10.377   4.793  1.00  0.00     0.020 A 
ENDBRANCH   9  10
ENDBRANCH   5   8
BRANCH   1  16
HETATM   16  C   UNL     1      66.661   3.322   7.556  1.00  0.00     0.210 C 
HETATM   17  O   UNL     1      66.473   2.545   6.640  1.00  0.00    -0.644 OA
HETATM   18  O   UNL     1      66.967   2.891   8.792  1.00  0.00    -0.644 OA
ENDBRANCH   1  16
TORSDOF 3
ENDMDL
MODEL 3
REMARK VINA RESULT:      -5.5      3.717      7.335
REMARK  3 active torsions:
REMARK  status: ('A' for Active; 'I' for Inactive)
REMARK    1  A    between atoms: C_1  and  C_4 
REMARK    2  A    between atoms: C_2  and  C_9 
REMARK    3  A    between atoms: C_3  and  C_11 
ROOT
HETATM    1  C   UNL     1      65.693   5.228   7.492  1.00  0.00     0.057 A 
HETATM    2  N   UNL     1      64.334   3.800   6.087  1.00  0.00    -0.373 N 
ATOM      3  HN  UNL     1      64.000   2.872   5.827  1.00  0.00     0.164 HD
HETATM    4  C   UNL     1      65.255   6.358   6.794  1.00  0.00     0.041 A 
HETATM    5  C   UNL     1      64.351   6.199   5.746  1.00  0.00     0.034 A 
HETATM    6  C   UNL     1      65.207   3.984   7.107  1.00  0.00     0.106 A 
HETATM    7  C   UNL     1      63.928   4.913   5.430  1.00  0.00     0.108 A 
ENDROOT
BRANCH   5   8
HETATM    8  C   UNL     1      63.854   7.321   5.014  1.00  0.00    -0.060 C 
HETATM    9  C   UNL     1      63.380   8.236   4.398  1.00  0.00    -0.061 C 
BRANCH   9  10
HETATM   10  C   UNL     1      62.758   9.286   3.651  1.00  0.00     0.018 A 
HETATM   11  C   UNL     1      62.497   9.108   2.290  1.00  0.00     0.020 A 
HETATM   12  C   UNL     1      61.927  10.142   1.545  1.00  0.00     0.001 A 
HETATM   13  C   UNL     1      61.614  11.353   2.161  1.00  0.00     0.000 A 
HETATM   14  C   UNL     1      61.864  11.530   3.523  1.00  0.00     0.001 A 
HETATM   15  C   UNL     1      62.436  10.496   4.269  1.00  0.00     0.020 A 
ENDBRANCH   9  10
ENDBRANCH   5   8
BRANCH   1  16
HETATM   16  C   UNL     1      66.640   5.290   8.620  1.00  0.00     0.210 C 
HETATM   17  O   UNL     1      67.134   4.334   9.187  1.00  0.00    -0.644 OA
HETATM   18  O   UNL     1      66.925   6.551   8.989  1.00  0.00    -0.644 OA
ENDBRANCH   1  16
TORSDOF 3
ENDMDL
MODEL 4
REMARK VINA RESULT:      -5.4      4.231      7.706
REMARK  3 active torsions:
REMARK  status: ('A' for Active; 'I' for Inactive)
REMARK    1  A    between atoms: C_1  and  C_4 
REMARK    2  A    between atoms: C_2  and  C_9 
REMARK    3  A    between atoms: C_3  and  C_11 
ROOT
HETATM    1  C   UNL     1      66.339   5.470   7.508  1.00  0.00     0.057 A 
HETATM    2  N   UNL     1      67.255   7.711   7.562  1.00  0.00    -0.373 N 
ATOM      3  HN  UNL     1      67.894   8.396   7.963  1.00  0.00     0.164 HD
HETATM    4  C   UNL     1      65.487   5.827   6.457  1.00  0.00     0.041 A 
HETATM    5  C   UNL     1      65.530   7.129   5.963  1.00  0.00     0.034 A 
HETATM    6  C   UNL     1      67.197   6.435   8.019  1.00  0.00     0.106 A 
HETATM    7  C   UNL     1      66.418   8.026   6.545  1.00  0.00     0.108 A 
ENDROOT
BRANCH   5   8
HETATM    8  C   UNL     1      64.698   7.540   4.876  1.00  0.00    -0.060 C 
HETATM    9  C   UNL     1      63.969   7.830   3.967  1.00  0.00    -0.061 C 
BRANCH   9  10
HETATM   10  C   UNL     1      63.080   8.108   2.882  1.00  0.00     0.018 A 
HETATM   11  C   UNL     1      62.409   9.332   2.831  1.00  0.00     0.020 A 
HETATM   12  C   UNL     1      61.509   9.596   1.797  1.00  0.00     0.001 A 
HETATM   13  C   UNL     1      61.282   8.637   0.810  1.00  0.00     0.000 A 
HETATM   14  C   UNL     1      61.960   7.418   0.852  1.00  0.00     0.001 A 
HETATM   15  C   UNL     1      62.859   7.153   1.888  1.00  0.00     0.020 A 
ENDBRANCH   9  10
ENDBRANCH   5   8
BRANCH   1  16
HETATM   16  C   UNL     1      66.377   4.119   8.096  1.00  0.00     0.210 C 
HETATM   17  O   UNL     1      67.214   3.706   8.875  1.00  0.00    -0.644 OA
HETATM   18  O   UNL     1      65.361   3.343   7.678  1.00  0.00    -0.644 OA
ENDBRANCH   1  16
TORSDOF 3
ENDMDL
MODEL 5
REMARK VINA RESULT:      -4.7      7.711      8.300
REMARK  3 active torsions:
REMARK  status: ('A' for Active; 'I' for Inactive)
REMARK    1  A    between atoms: C_1  and  C_4 
REMARK    2  A    between atoms: C_2  and  C_9 
REMARK    3  A    between atoms: C_3  and  C_11 
ROOT
HETATM    1  C   UNL     1      59.849   5.748   6.770  1.00  0.00     0.057 A 
HETATM    2  N   UNL     1      57.452   5.612   6.451  1.00  0.00    -0.373 N 
ATOM      3  HN  UNL     1      56.618   5.826   5.905  1.00  0.00     0.164 HD
HETATM    4  C   UNL     1      59.747   5.024   7.962  1.00  0.00     0.041 A 
HETATM    5  C   UNL     1      58.492   4.593   8.388  1.00  0.00     0.034 A 
HETATM    6  C   UNL     1      58.686   6.012   6.056  1.00  0.00     0.106 A 
HETATM    7  C   UNL     1      57.387   4.912   7.609  1.00  0.00     0.108 A 
ENDROOT
BRANCH   5   8
HETATM    8  C   UNL     1      58.335   3.831   9.587  1.00  0.00    -0.060 C 
HETATM    9  C   UNL     1      58.254   3.218  10.615  1.00  0.00    -0.061 C 
BRANCH   9  10
HETATM   10  C   UNL     1      58.224   2.508  11.858  1.00  0.00     0.018 A 
HETATM   11  C   UNL     1      57.022   2.389  12.559  1.00  0.00     0.020 A 
HETATM   12  C   UNL     1      56.991   1.734  13.791  1.00  0.00     0.001 A 
HETATM   13  C   UNL     1      58.162   1.192  14.321  1.00  0.00     0.000 A 
HETATM   14  C   UNL     1      59.362   1.299  13.616  1.00  0.00     0.001 A 
HETATM   15  C   UNL     1      59.394   1.957  12.384  1.00  0.00     0.020 A 
ENDBRANCH   9  10
ENDBRANCH   5   8
BRANCH   1  16
HETATM   16  C   UNL     1      61.129   6.242   6.229  1.00  0.00     0.210 C 
HETATM   17  O   UNL     1      61.948   6.906   6.834  1.00  0.00    -0.644 OA
HETATM   18  O   UNL     1      61.323   5.881   4.949  1.00  0.00    -0.644 OA
ENDBRANCH   1  16
TORSDOF 3
ENDMDL
MODEL 6
REMARK VINA RESULT:      -4.7      4.100      4.979
REMARK  3 active torsions:
REMARK  status: ('A' for Active; 'I' for Inactive)
REMARK    1  A    between atoms: C_1  and  C_4 
REMARK    2  A    between atoms: C_2  and  C_9 
REMARK    3  A    between atoms: C_3  and  C_11 
ROOT
HETATM    1  C   UNL     1      58.933   5.792   7.180  1.00  0.00     0.057 A 
HETATM    2  N   UNL     1      58.958   6.293   4.811  1.00  0.00    -0.373 N 
ATOM      3  HN  UNL     1      58.463   6.438   3.931  1.00  0.00     0.164 HD
HETATM    4  C   UNL     1      60.327   5.891   7.232  1.00  0.00     0.041 A 
HETATM    5  C   UNL     1      61.028   6.197   6.068  1.00  0.00     0.034 A 
HETATM    6  C   UNL     1      58.300   6.002   5.961  1.00  0.00     0.106 A 
HETATM    7  C   UNL     1      60.307   6.383   4.894  1.00  0.00     0.108 A 
ENDROOT
BRANCH   5   8
HETATM    8  C   UNL     1      62.451   6.332   6.069  1.00  0.00    -0.060 C 
HETATM    9  C   UNL     1      63.640   6.487   6.025  1.00  0.00    -0.061 C 
BRANCH   9  10
HETATM   10  C   UNL     1      65.049   6.709   5.911  1.00  0.00     0.018 A 
HETATM   11  C   UNL     1      65.594   7.088   4.682  1.00  0.00     0.020 A 
HETATM   12  C   UNL     1      66.972   7.267   4.552  1.00  0.00     0.001 A 
HETATM   13  C   UNL     1      67.806   7.072   5.652  1.00  0.00     0.000 A 
HETATM   14  C   UNL     1      67.263   6.705   6.884  1.00  0.00     0.001 A 
HETATM   15  C   UNL     1      65.884   6.524   7.015  1.00  0.00     0.020 A 
ENDBRANCH   9  10
ENDBRANCH   5   8
BRANCH   1  16
HETATM   16  C   UNL     1      58.098   5.481   8.356  1.00  0.00     0.210 C 
HETATM   17  O   UNL     1      56.898   5.286   8.344  1.00  0.00    -0.644 OA
HETATM   18  O   UNL     1      58.808   5.432   9.496  1.00  0.00    -0.644 OA
ENDBRANCH   1  16
TORSDOF 3
ENDMDL
MODEL 7
REMARK VINA RESULT:      -4.6      8.058      8.609
REMARK  3 active torsions:
REMARK  status: ('A' for Active; 'I' for Inactive)
REMARK    1  A    between atoms: C_1  and  C_4 
REMARK    2  A    between atoms: C_2  and  C_9 
REMARK    3  A    between atoms: C_3  and  C_11 
ROOT
HETATM    1  C   UNL     1      58.041   6.022   6.785  1.00  0.00     0.057 A 
HETATM    2  N   UNL     1      60.316   5.190   6.776  1.00  0.00    -0.373 N 
ATOM      3  HN  UNL     1      61.246   5.159   6.359  1.00  0.00     0.164 HD
HETATM    4  C   UNL     1      57.753   5.269   7.927  1.00  0.00     0.041 A 
HETATM    5  C   UNL     1      58.756   4.481   8.490  1.00  0.00     0.034 A 
HETATM    6  C   UNL     1      59.324   5.953   6.254  1.00  0.00     0.106 A 
HETATM    7  C   UNL     1      60.006   4.472   7.882  1.00  0.00     0.108 A 
ENDROOT
BRANCH   5   8
HETATM    8  C   UNL     1      58.522   3.709   9.670  1.00  0.00    -0.060 C 
HETATM    9  C   UNL     1      58.328   3.114  10.693  1.00  0.00    -0.061 C 
BRANCH   9  10
HETATM   10  C   UNL     1      58.112   2.464  11.950  1.00  0.00     0.018 A 
HETATM   11  C   UNL     1      59.201   1.968  12.670  1.00  0.00     0.020 A 
HETATM   12  C   UNL     1      58.997   1.297  13.876  1.00  0.00     0.001 A 
HETATM   13  C   UNL     1      57.703   1.125  14.367  1.00  0.00     0.000 A 
HETATM   14  C   UNL     1      56.614   1.630  13.656  1.00  0.00     0.001 A 
HETATM   15  C   UNL     1      56.817   2.300  12.446  1.00  0.00     0.020 A 
ENDBRANCH   9  10
ENDBRANCH   5   8
BRANCH   1  16
HETATM   16  C   UNL     1      57.055   6.892   6.118  1.00  0.00     0.210 C 
HETATM   17  O   UNL     1      57.228   7.494   5.076  1.00  0.00    -0.644 OA
HETATM   18  O   UNL     1      55.894   6.969   6.791  1.00  0.00    -0.644 OA
ENDBRANCH   1  16
TORSDOF 3
ENDMDL
MODEL 8
REMARK VINA RESULT:      -4.6      4.485      5.732
REMARK  3 active torsions:
REMARK  status: ('A' for Active; 'I' for Inactive)
REMARK    1  A    between atoms: C_1  and  C_4 
REMARK    2  A    between atoms: C_2  and  C_9 
REMARK    3  A    between atoms: C_3  and  C_11 
ROOT
HETATM    1  C   UNL     1      63.257   8.300   5.077  1.00  0.00     0.057 A 
HETATM    2  N   UNL     1      61.359   7.942   3.617  1.00  0.00    -0.373 N 
ATOM      3  HN  UNL     1      60.849   8.154   2.759  1.00  0.00     0.164 HD
HETATM    4  C   UNL     1      62.758   7.359   5.983  1.00  0.00     0.041 A 
HETATM    5  C   UNL     1      61.559   6.711   5.694  1.00  0.00     0.034 A 
HETATM    6  C   UNL     1      62.532   8.553   3.919  1.00  0.00     0.106 A 
HETATM    7  C   UNL     1      60.902   7.036   4.513  1.00  0.00     0.108 A 
ENDROOT
BRANCH   5   8
HETATM    8  C   UNL     1      61.015   5.725   6.574  1.00  0.00    -0.060 C 
HETATM    9  C   UNL     1      60.502   4.911   7.291  1.00  0.00    -0.061 C 
BRANCH   9  10
HETATM   10  C   UNL     1      59.826   3.969   8.130  1.00  0.00     0.018 A 
HETATM   11  C   UNL     1      58.945   4.423   9.114  1.00  0.00     0.020 A 
HETATM   12  C   UNL     1      58.313   3.514   9.963  1.00  0.00     0.001 A 
HETATM   13  C   UNL     1      58.557   2.148   9.826  1.00  0.00     0.000 A 
HETATM   14  C   UNL     1      59.427   1.690   8.835  1.00  0.00     0.001 A 
HETATM   15  C   UNL     1      60.062   2.600   7.987  1.00  0.00     0.020 A 
ENDBRANCH   9  10
ENDBRANCH   5   8
BRANCH   1  16
HETATM   16  C   UNL     1      64.519   9.034   5.285  1.00  0.00     0.210 C 
HETATM   17  O   UNL     1      65.635   8.608   5.060  1.00  0.00    -0.644 OA
HETATM   18  O   UNL     1      64.324  10.273   5.769  1.00  0.00    -0.644 OA
ENDBRANCH   1  16
TORSDOF 3
ENDMDL
MODEL 9
REMARK VINA RESULT:      -4.6      4.340      8.057
REMARK  3 active torsions:
REMARK  status: ('A' for Active; 'I' for Inactive)
REMARK    1  A    between atoms: C_1  and  C_4 
REMARK    2  A    between atoms: C_2  and  C_9 
REMARK    3  A    between atoms: C_3  and  C_11 
ROOT
HETATM    1  C   UNL     1      63.082   7.938   4.729  1.00  0.00     0.057 A 
HETATM    2  N   UNL     1      62.780   8.243   2.347  1.00  0.00    -0.373 N 
ATOM      3  HN  UNL     1      63.161   8.460   1.426  1.00  0.00     0.164 HD
HETATM    4  C   UNL     1      61.722   7.649   4.881  1.00  0.00     0.041 A 
HETATM    5  C   UNL     1      60.899   7.656   3.757  1.00  0.00     0.034 A 
HETATM    6  C   UNL     1      63.560   8.222   3.456  1.00  0.00     0.106 A 
HETATM    7  C   UNL     1      61.467   7.959   2.526  1.00  0.00     0.108 A 
ENDROOT
BRANCH   5   8
HETATM    8  C   UNL     1      59.507   7.347   3.852  1.00  0.00    -0.060 C 
HETATM    9  C   UNL     1      58.348   7.065   3.990  1.00  0.00    -0.061 C 
BRANCH   9  10
HETATM   10  C   UNL     1      56.985   6.693   4.213  1.00  0.00     0.018 A 
HETATM   11  C   UNL     1      56.511   6.543   5.519  1.00  0.00     0.020 A 
HETATM   12  C   UNL     1      55.194   6.142   5.745  1.00  0.00     0.001 A 
HETATM   13  C   UNL     1      54.346   5.895   4.665  1.00  0.00     0.000 A 
HETATM   14  C   UNL     1      54.813   6.055   3.360  1.00  0.00     0.001 A 
HETATM   15  C   UNL     1      56.133   6.455   3.133  1.00  0.00     0.020 A 
ENDBRANCH   9  10
ENDBRANCH   5   8
BRANCH   1  16
HETATM   16  C   UNL     1      64.038   7.949   5.852  1.00  0.00     0.210 C 
HETATM   17  O   UNL     1      63.947   7.289   6.870  1.00  0.00    -0.644 OA
HETATM   18  O   UNL     1      65.066   8.790   5.649  1.00  0.00    -0.644 OA
ENDBRANCH   1  16
TORSDOF 3
ENDMDL
