MODEL 1
REMARK VINA RESULT:      -4.4      0.000      0.000
REMARK  6 active torsions:
REMARK  status: ('A' for Active; 'I' for Inactive)
REMARK    1  A    between atoms: N_1  and  C_4 
REMARK    2  A    between atoms: C_4  and  C_10 
REMARK    3  A    between atoms: C_5  and  C_12 
REMARK    4  A    between atoms: C_10  and  C_13 
REMARK    5  A    between atoms: N_11  and  C_13 
REMARK    6  A    between atoms: N_11  and  C_12 
ROOT
HETATM    1  N   UNL     1      63.641   9.724   5.770  1.00  0.00    -0.069 N 
HETATM    2  H   UNL     1      63.091   9.214   6.461  1.00  0.00     0.277 HD
HETATM    3  H   UNL     1      64.393  10.237   6.230  1.00  0.00     0.277 HD
ENDROOT
BRANCH   1   4
HETATM    4  C   UNL     1      62.770  10.680   5.067  1.00  0.00     0.245 C 
BRANCH   4   5
HETATM    5  C   UNL     1      62.059  10.050   3.858  1.00  0.00     0.131 C 
BRANCH   5   6
HETATM    6  C   UNL     1      61.850  11.105   2.783  1.00  0.00    -0.076 C 
BRANCH   6   7
HETATM    7  N   UNL     1      61.678  11.979   1.892  1.00  0.00    -0.370 N 
ATOM      8  HN2 UNL     1      61.804  11.242   2.585  1.00  0.00     0.165 HD
ATOM      9  HN1 UNL     1      61.538  12.687   1.170  1.00  0.00     0.165 HD
ENDBRANCH   6   7
ENDBRANCH   5   6
ENDBRANCH   4   5
ENDBRANCH   1   4
BRANCH   1  10
HETATM   10  C   UNL     1      64.229   8.768   4.816  1.00  0.00     0.296 C 
BRANCH  10  11
HETATM   11  C   UNL     1      65.456   8.120   5.360  1.00  0.00     0.078 A 
HETATM   12  O   UNL     1      65.480   7.889   6.709  1.00  0.00    -0.325 OA
HETATM   13  C   UNL     1      66.701   7.371   7.005  1.00  0.00     0.142 A 
HETATM   14  C   UNL     1      67.463   7.254   5.868  1.00  0.00     0.027 A 
HETATM   15  C   UNL     1      66.657   7.727   4.802  1.00  0.00     0.036 A 
ENDBRANCH  10  11
ENDBRANCH   1  10
TORSDOF 6
ENDMDL
MODEL 2
REMARK VINA RESULT:      -4.3      1.585      2.185
REMARK  6 active torsions:
REMARK  status: ('A' for Active; 'I' for Inactive)
REMARK    1  A    between atoms: N_1  and  C_4 
REMARK    2  A    between atoms: C_4  and  C_10 
REMARK    3  A    between atoms: C_5  and  C_12 
REMARK    4  A    between atoms: C_10  and  C_13 
REMARK    5  A    between atoms: N_11  and  C_13 
REMARK    6  A    between atoms: N_11  and  C_12 
ROOT
HETATM    1  N   UNL     1      62.074   9.975   4.058  1.00  0.00    -0.069 N 
HETATM    2  H   UNL     1      62.434   9.385   3.308  1.00  0.00     0.277 HD
HETATM    3  H   UNL     1      61.172   9.622   4.380  1.00  0.00     0.277 HD
ENDROOT
BRANCH   1   4
HETATM    4  C   UNL     1      61.899  11.348   3.556  1.00  0.00     0.245 C 
BRANCH   4   5
HETATM    5  C   UNL     1      61.840  11.409   2.021  1.00  0.00     0.131 C 
BRANCH   5   6
HETATM    6  C   UNL     1      62.024  10.014   1.448  1.00  0.00    -0.076 C 
BRANCH   6   7
HETATM    7  N   UNL     1      62.176   8.857   0.971  1.00  0.00    -0.370 N 
ATOM      8  HN2 UNL     1      62.094   9.792   1.368  1.00  0.00     0.165 HD
ATOM      9  HN1 UNL     1      62.299   7.920   0.585  1.00  0.00     0.165 HD
ENDBRANCH   6   7
ENDBRANCH   5   6
ENDBRANCH   4   5
ENDBRANCH   1   4
BRANCH   1  10
HETATM   10  C   UNL     1      63.021   9.958   5.186  1.00  0.00     0.296 C 
BRANCH  10  11
HETATM   11  C   UNL     1      64.061   8.901   5.026  1.00  0.00     0.078 A 
HETATM   12  O   UNL     1      65.238   9.092   5.697  1.00  0.00    -0.325 OA
HETATM   13  C   UNL     1      66.063   8.068   5.358  1.00  0.00     0.142 A 
HETATM   14  C   UNL     1      65.436   7.212   4.485  1.00  0.00     0.027 A 
HETATM   15  C   UNL     1      64.137   7.742   4.278  1.00  0.00     0.036 A 
ENDBRANCH  10  11
ENDBRANCH   1  10
TORSDOF 6
ENDMDL
MODEL 3
REMARK VINA RESULT:      -4.3      2.561      5.635
REMARK  6 active torsions:
REMARK  status: ('A' for Active; 'I' for Inactive)
REMARK    1  A    between atoms: N_1  and  C_4 
REMARK    2  A    between atoms: C_4  and  C_10 
REMARK    3  A    between atoms: C_5  and  C_12 
REMARK    4  A    between atoms: C_10  and  C_13 
REMARK    5  A    between atoms: N_11  and  C_13 
REMARK    6  A    between atoms: N_11  and  C_12 
ROOT
HETATM    1  N   UNL     1      64.065   9.160   5.359  1.00  0.00    -0.069 N 
HETATM    2  H   UNL     1      64.535   9.229   4.457  1.00  0.00     0.277 HD
HETATM    3  H   UNL     1      64.649   9.568   6.090  1.00  0.00     0.277 HD
ENDROOT
BRANCH   1   4
HETATM    4  C   UNL     1      63.826   7.742   5.675  1.00  0.00     0.245 C 
BRANCH   4   5
HETATM    5  C   UNL     1      65.131   6.953   5.867  1.00  0.00     0.131 C 
BRANCH   5   6
HETATM    6  C   UNL     1      66.162   7.834   6.554  1.00  0.00    -0.076 C 
BRANCH   6   7
HETATM    7  N   UNL     1      67.017   8.566   7.122  1.00  0.00    -0.370 N 
ATOM      8  HN2 UNL     1      66.336   7.942   6.689  1.00  0.00     0.165 HD
ATOM      9  HN1 UNL     1      67.709   9.158   7.582  1.00  0.00     0.165 HD
ENDBRANCH   6   7
ENDBRANCH   5   6
ENDBRANCH   4   5
ENDBRANCH   1   4
BRANCH   1  10
HETATM   10  C   UNL     1      62.790   9.895   5.300  1.00  0.00     0.296 C 
BRANCH  10  11
HETATM   11  C   UNL     1      62.421  10.261   3.903  1.00  0.00     0.078 A 
HETATM   12  O   UNL     1      62.092  11.571   3.679  1.00  0.00    -0.325 OA
HETATM   13  C   UNL     1      61.718  11.673   2.377  1.00  0.00     0.142 A 
HETATM   14  C   UNL     1      61.810  10.453   1.752  1.00  0.00     0.027 A 
HETATM   15  C   UNL     1      62.275   9.541   2.733  1.00  0.00     0.036 A 
ENDBRANCH  10  11
ENDBRANCH   1  10
TORSDOF 6
ENDMDL
MODEL 4
REMARK VINA RESULT:      -4.2      1.856      2.455
REMARK  6 active torsions:
REMARK  status: ('A' for Active; 'I' for Inactive)
REMARK    1  A    between atoms: N_1  and  C_4 
REMARK    2  A    between atoms: C_4  and  C_10 
REMARK    3  A    between atoms: C_5  and  C_12 
REMARK    4  A    between atoms: C_10  and  C_13 
REMARK    5  A    between atoms: N_11  and  C_13 
REMARK    6  A    between atoms: N_11  and  C_12 
ROOT
HETATM    1  N   UNL     1      64.409   8.400   5.746  1.00  0.00    -0.069 N 
HETATM    2  H   UNL     1      63.967   7.685   6.323  1.00  0.00     0.277 HD
HETATM    3  H   UNL     1      64.401   9.297   6.233  1.00  0.00     0.277 HD
ENDROOT
BRANCH   1   4
HETATM    4  C   UNL     1      63.663   8.535   4.484  1.00  0.00     0.245 C 
BRANCH   4   5
HETATM    5  C   UNL     1      62.670   9.709   4.510  1.00  0.00     0.131 C 
BRANCH   5   6
HETATM    6  C   UNL     1      63.139  10.750   5.513  1.00  0.00    -0.076 C 
BRANCH   6   7
HETATM    7  N   UNL     1      63.528  11.615   6.344  1.00  0.00    -0.370 N 
ATOM      8  HN2 UNL     1      63.195  10.947   5.649  1.00  0.00     0.165 HD
ATOM      9  HN1 UNL     1      63.843  12.313   7.018  1.00  0.00     0.165 HD
ENDBRANCH   6   7
ENDBRANCH   5   6
ENDBRANCH   4   5
ENDBRANCH   1   4
BRANCH   1  10
HETATM   10  C   UNL     1      65.805   8.015   5.479  1.00  0.00     0.296 C 
BRANCH  10  11
HETATM   11  C   UNL     1      66.367   7.165   6.567  1.00  0.00     0.078 A 
HETATM   12  O   UNL     1      65.614   7.047   7.704  1.00  0.00    -0.325 OA
HETATM   13  C   UNL     1      66.333   6.305   8.585  1.00  0.00     0.142 A 
HETATM   14  C   UNL     1      67.536   5.933   8.034  1.00  0.00     0.027 A 
HETATM   15  C   UNL     1      67.556   6.478   6.726  1.00  0.00     0.036 A 
ENDBRANCH  10  11
ENDBRANCH   1  10
TORSDOF 6
ENDMDL
MODEL 5
REMARK VINA RESULT:      -4.0      2.537      5.658
REMARK  6 active torsions:
REMARK  status: ('A' for Active; 'I' for Inactive)
REMARK    1  A    between atoms: N_1  and  C_4 
REMARK    2  A    between atoms: C_4  and  C_10 
REMARK    3  A    between atoms: C_5  and  C_12 
REMARK    4  A    between atoms: C_10  and  C_13 
REMARK    5  A    between atoms: N_11  and  C_13 
REMARK    6  A    between atoms: N_11  and  C_12 
ROOT
HETATM    1  N   UNL     1      65.208   7.870   6.373  1.00  0.00    -0.069 N 
HETATM    2  H   UNL     1      64.732   8.574   6.937  1.00  0.00     0.277 HD
HETATM    3  H   UNL     1      65.000   6.937   6.729  1.00  0.00     0.277 HD
ENDROOT
BRANCH   1   4
HETATM    4  C   UNL     1      66.661   8.095   6.439  1.00  0.00     0.245 C 
BRANCH   4   5
HETATM    5  C   UNL     1      67.427   7.316   5.357  1.00  0.00     0.131 C 
BRANCH   5   6
HETATM    6  C   UNL     1      67.647   5.885   5.820  1.00  0.00    -0.076 C 
BRANCH   6   7
HETATM    7  N   UNL     1      67.829   4.697   6.202  1.00  0.00    -0.370 N 
ATOM      8  HN2 UNL     1      67.640   5.653   5.901  1.00  0.00     0.165 HD
ATOM      9  HN1 UNL     1      67.978   3.736   6.511  1.00  0.00     0.165 HD
ENDBRANCH   6   7
ENDBRANCH   5   6
ENDBRANCH   4   5
ENDBRANCH   1   4
BRANCH   1  10
HETATM   10  C   UNL     1      64.737   7.964   4.981  1.00  0.00     0.296 C 
BRANCH  10  11
HETATM   11  C   UNL     1      63.786   9.096   4.789  1.00  0.00     0.078 A 
HETATM   12  O   UNL     1      63.839  10.105   5.713  1.00  0.00    -0.325 OA
HETATM   13  C   UNL     1      62.852  10.985   5.402  1.00  0.00     0.142 A 
HETATM   14  C   UNL     1      62.167  10.567   4.287  1.00  0.00     0.027 A 
HETATM   15  C   UNL     1      62.776   9.352   3.882  1.00  0.00     0.036 A 
ENDBRANCH  10  11
ENDBRANCH   1  10
TORSDOF 6
ENDMDL
MODEL 6
REMARK VINA RESULT:      -3.9      2.630      5.567
REMARK  6 active torsions:
REMARK  status: ('A' for Active; 'I' for Inactive)
REMARK    1  A    between atoms: N_1  and  C_4 
REMARK    2  A    between atoms: C_4  and  C_10 
REMARK    3  A    between atoms: C_5  and  C_12 
REMARK    4  A    between atoms: C_10  and  C_13 
REMARK    5  A    between atoms: N_11  and  C_13 
REMARK    6  A    between atoms: N_11  and  C_12 
ROOT
HETATM    1  N   UNL     1      63.827   9.077   5.594  1.00  0.00    -0.069 N 
HETATM    2  H   UNL     1      63.878  10.094   5.549  1.00  0.00     0.277 HD
HETATM    3  H   UNL     1      63.653   8.777   6.554  1.00  0.00     0.277 HD
ENDROOT
BRANCH   1   4
HETATM    4  C   UNL     1      65.106   8.506   5.139  1.00  0.00     0.245 C 
BRANCH   4   5
HETATM    5  C   UNL     1      64.918   7.207   4.339  1.00  0.00     0.131 C 
BRANCH   5   6
HETATM    6  C   UNL     1      66.275   6.593   4.038  1.00  0.00    -0.076 C 
BRANCH   6   7
HETATM    7  N   UNL     1      67.401   6.083   3.788  1.00  0.00    -0.370 N 
ATOM      8  HN2 UNL     1      66.510   6.526   4.013  1.00  0.00     0.165 HD
ATOM      9  HN1 UNL     1      68.311   5.670   3.585  1.00  0.00     0.165 HD
ENDBRANCH   6   7
ENDBRANCH   5   6
ENDBRANCH   4   5
ENDBRANCH   1   4
BRANCH   1  10
HETATM   10  C   UNL     1      62.723   8.608   4.740  1.00  0.00     0.296 C 
BRANCH  10  11
HETATM   11  C   UNL     1      62.316   9.636   3.739  1.00  0.00     0.078 A 
HETATM   12  O   UNL     1      62.272   9.235   2.432  1.00  0.00    -0.325 OA
HETATM   13  C   UNL     1      61.960  10.328   1.688  1.00  0.00     0.142 A 
HETATM   14  C   UNL     1      61.791  11.428   2.494  1.00  0.00     0.027 A 
HETATM   15  C   UNL     1      62.010  10.981   3.821  1.00  0.00     0.036 A 
ENDBRANCH  10  11
ENDBRANCH   1  10
TORSDOF 6
ENDMDL
MODEL 7
REMARK VINA RESULT:      -3.7      3.040      5.058
REMARK  6 active torsions:
REMARK  status: ('A' for Active; 'I' for Inactive)
REMARK    1  A    between atoms: N_1  and  C_4 
REMARK    2  A    between atoms: C_4  and  C_10 
REMARK    3  A    between atoms: C_5  and  C_12 
REMARK    4  A    between atoms: C_10  and  C_13 
REMARK    5  A    between atoms: N_11  and  C_13 
REMARK    6  A    between atoms: N_11  and  C_12 
ROOT
HETATM    1  N   UNL     1      63.712   7.340   6.574  1.00  0.00    -0.069 N 
HETATM    2  H   UNL     1      64.417   7.170   7.290  1.00  0.00     0.277 HD
HETATM    3  H   UNL     1      62.970   7.933   6.946  1.00  0.00     0.277 HD
ENDROOT
BRANCH   1   4
HETATM    4  C   UNL     1      63.129   6.056   6.150  1.00  0.00     0.245 C 
BRANCH   4   5
HETATM    5  C   UNL     1      61.677   6.199   5.668  1.00  0.00     0.131 C 
BRANCH   5   6
HETATM    6  C   UNL     1      60.729   5.975   6.835  1.00  0.00    -0.076 C 
BRANCH   6   7
HETATM    7  N   UNL     1      59.943   5.790   7.804  1.00  0.00    -0.370 N 
ATOM      8  HN2 UNL     1      60.581   5.897   7.016  1.00  0.00     0.165 HD
ATOM      9  HN1 UNL     1      59.308   5.641   8.588  1.00  0.00     0.165 HD
ENDBRANCH   6   7
ENDBRANCH   5   6
ENDBRANCH   4   5
ENDBRANCH   1   4
BRANCH   1  10
HETATM   10  C   UNL     1      64.338   8.022   5.429  1.00  0.00     0.296 C 
BRANCH  10  11
HETATM   11  C   UNL     1      63.517   9.169   4.945  1.00  0.00     0.078 A 
HETATM   12  O   UNL     1      63.498  10.286   5.735  1.00  0.00    -0.325 OA
HETATM   13  C   UNL     1      62.641  11.169   5.160  1.00  0.00     0.142 A 
HETATM   14  C   UNL     1      62.113  10.645   4.005  1.00  0.00     0.027 A 
HETATM   15  C   UNL     1      62.686   9.357   3.857  1.00  0.00     0.036 A 
ENDBRANCH  10  11
ENDBRANCH   1  10
TORSDOF 6
ENDMDL
MODEL 8
REMARK VINA RESULT:      -3.5      1.815      2.366
REMARK  6 active torsions:
REMARK  status: ('A' for Active; 'I' for Inactive)
REMARK    1  A    between atoms: N_1  and  C_4 
REMARK    2  A    between atoms: C_4  and  C_10 
REMARK    3  A    between atoms: C_5  and  C_12 
REMARK    4  A    between atoms: C_10  and  C_13 
REMARK    5  A    between atoms: N_11  and  C_13 
REMARK    6  A    between atoms: N_11  and  C_12 
ROOT
HETATM    1  N   UNL     1      63.498   7.868   6.266  1.00  0.00    -0.069 N 
HETATM    2  H   UNL     1      63.078   7.229   6.941  1.00  0.00     0.277 HD
HETATM    3  H   UNL     1      63.611   8.792   6.682  1.00  0.00     0.277 HD
ENDROOT
BRANCH   1   4
HETATM    4  C   UNL     1      62.621   7.976   5.089  1.00  0.00     0.245 C 
BRANCH   4   5
HETATM    5  C   UNL     1      63.119   9.023   4.078  1.00  0.00     0.131 C 
BRANCH   5   6
HETATM    6  C   UNL     1      62.012   9.341   3.087  1.00  0.00    -0.076 C 
BRANCH   6   7
HETATM    7  N   UNL     1      61.093   9.604   2.264  1.00  0.00    -0.370 N 
ATOM      8  HN2 UNL     1      61.816   9.416   2.959  1.00  0.00     0.165 HD
ATOM      9  HN1 UNL     1      60.351   9.817   1.597  1.00  0.00     0.165 HD
ENDBRANCH   6   7
ENDBRANCH   5   6
ENDBRANCH   4   5
ENDBRANCH   1   4
BRANCH   1  10
HETATM   10  C   UNL     1      64.823   7.357   5.873  1.00  0.00     0.296 C 
BRANCH  10  11
HETATM   11  C   UNL     1      65.526   6.696   7.010  1.00  0.00     0.078 A 
HETATM   12  O   UNL     1      66.362   7.483   7.754  1.00  0.00    -0.325 OA
HETATM   13  C   UNL     1      66.953   6.680   8.676  1.00  0.00     0.142 A 
HETATM   14  C   UNL     1      66.504   5.388   8.548  1.00  0.00     0.027 A 
HETATM   15  C   UNL     1      65.573   5.398   7.480  1.00  0.00     0.036 A 
ENDBRANCH  10  11
ENDBRANCH   1  10
TORSDOF 6
ENDMDL
MODEL 9
REMARK VINA RESULT:      -3.4      2.029      2.799
REMARK  6 active torsions:
REMARK  status: ('A' for Active; 'I' for Inactive)
REMARK    1  A    between atoms: N_1  and  C_4 
REMARK    2  A    between atoms: C_4  and  C_10 
REMARK    3  A    between atoms: C_5  and  C_12 
REMARK    4  A    between atoms: C_10  and  C_13 
REMARK    5  A    between atoms: N_11  and  C_13 
REMARK    6  A    between atoms: N_11  and  C_12 
ROOT
HETATM    1  N   UNL     1      63.049   5.773   5.644  1.00  0.00    -0.069 N 
HETATM    2  H   UNL     1      63.356   5.777   4.672  1.00  0.00     0.277 HD
HETATM    3  H   UNL     1      62.403   5.000   5.805  1.00  0.00     0.277 HD
ENDROOT
BRANCH   1   4
HETATM    4  C   UNL     1      62.360   7.040   5.940  1.00  0.00     0.245 C 
BRANCH   4   5
HETATM    5  C   UNL     1      62.448   8.044   4.779  1.00  0.00     0.131 C 
BRANCH   5   6
HETATM    6  C   UNL     1      63.058   9.344   5.275  1.00  0.00    -0.076 C 
BRANCH   6   7
HETATM    7  N   UNL     1      63.566  10.423   5.685  1.00  0.00    -0.370 N 
ATOM      8  HN2 UNL     1      63.174   9.557   5.315  1.00  0.00     0.165 HD
ATOM      9  HN1 UNL     1      63.975  11.296   6.019  1.00  0.00     0.165 HD
ENDBRANCH   6   7
ENDBRANCH   5   6
ENDBRANCH   4   5
ENDBRANCH   1   4
BRANCH   1  10
HETATM   10  C   UNL     1      64.220   5.608   6.522  1.00  0.00     0.296 C 
BRANCH  10  11
HETATM   11  C   UNL     1      65.337   6.517   6.139  1.00  0.00     0.078 A 
HETATM   12  O   UNL     1      65.686   7.478   7.049  1.00  0.00    -0.325 OA
HETATM   13  C   UNL     1      66.658   8.237   6.480  1.00  0.00     0.142 A 
HETATM   14  C   UNL     1      66.951   7.777   5.218  1.00  0.00     0.027 A 
HETATM   15  C   UNL     1      66.107   6.658   5.000  1.00  0.00     0.036 A 
ENDBRANCH  10  11
ENDBRANCH   1  10
TORSDOF 6
ENDMDL
