MODEL 1
REMARK VINA RESULT:      -4.6      0.000      0.000
REMARK  3 active torsions:
REMARK  status: ('A' for Active; 'I' for Inactive)
REMARK    1  A    between atoms: C_3  and  C_8 
REMARK    2  A    between atoms: O_5  and  C_7 
REMARK    3  A    between atoms: C_7  and  C_8 
ROOT
HETATM    1  N   UNL     1      61.450  10.817   2.106  1.00  0.00    -0.375 N 
ATOM      2  HN  UNL     1      60.960  11.628   1.729  1.00  0.00     0.164 HD
HETATM    3  C   UNL     1      62.644   9.740   3.921  1.00  0.00    -0.041 A 
HETATM    4  C   UNL     1      61.959  10.814   3.358  1.00  0.00     0.094 A 
HETATM    5  C   UNL     1      61.623   9.693   1.379  1.00  0.00     0.087 A 
HETATM    6  C   UNL     1      62.808   8.598   3.137  1.00  0.00     0.010 A 
HETATM    7  C   UNL     1      62.287   8.570   1.844  1.00  0.00     0.018 A 
ENDROOT
BRANCH   3   8
HETATM    8  C   UNL     1      63.202   9.834   5.317  1.00  0.00     0.066 C 
BRANCH   8   9
HETATM    9  C   UNL     1      63.159  11.254   5.882  1.00  0.00     0.168 C 
BRANCH   9  10
HETATM   10  O   UNL     1      64.367  11.584   6.558  1.00  0.00    -0.401 OA
HETATM   11  H   UNL     1      65.109  11.119   6.139  1.00  0.00     0.209 HD
ENDBRANCH   9  10
ENDBRANCH   8   9
ENDBRANCH   3   8
TORSDOF 3
ENDMDL
MODEL 2
REMARK VINA RESULT:      -4.5      0.962      1.612
REMARK  3 active torsions:
REMARK  status: ('A' for Active; 'I' for Inactive)
REMARK    1  A    between atoms: C_3  and  C_8 
REMARK    2  A    between atoms: O_5  and  C_7 
REMARK    3  A    between atoms: C_7  and  C_8 
ROOT
HETATM    1  N   UNL     1      62.497   8.502   1.835  1.00  0.00    -0.375 N 
ATOM      2  HN  UNL     1      62.654   7.632   1.326  1.00  0.00     0.164 HD
HETATM    3  C   UNL     1      62.602   9.782   3.891  1.00  0.00    -0.041 A 
HETATM    4  C   UNL     1      62.803   8.623   3.146  1.00  0.00     0.094 A 
HETATM    5  C   UNL     1      61.973   9.590   1.232  1.00  0.00     0.087 A 
HETATM    6  C   UNL     1      62.053  10.884   3.235  1.00  0.00     0.010 A 
HETATM    7  C   UNL     1      61.735  10.790   1.881  1.00  0.00     0.018 A 
ENDROOT
BRANCH   3   8
HETATM    8  C   UNL     1      62.948   9.819   5.358  1.00  0.00     0.066 C 
BRANCH   8   9
HETATM    9  C   UNL     1      63.089  11.241   5.901  1.00  0.00     0.168 C 
BRANCH   9  10
HETATM   10  O   UNL     1      64.391  11.472   6.427  1.00  0.00    -0.401 OA
HETATM   11  H   UNL     1      64.358  12.209   7.058  1.00  0.00     0.209 HD
ENDBRANCH   9  10
ENDBRANCH   8   9
ENDBRANCH   3   8
TORSDOF 3
ENDMDL
MODEL 3
REMARK VINA RESULT:      -4.1      1.314      1.577
REMARK  3 active torsions:
REMARK  status: ('A' for Active; 'I' for Inactive)
REMARK    1  A    between atoms: C_3  and  C_8 
REMARK    2  A    between atoms: O_5  and  C_7 
REMARK    3  A    between atoms: C_7  and  C_8 
ROOT
HETATM    1  N   UNL     1      61.728  11.395   2.956  1.00  0.00    -0.375 N 
ATOM      2  HN  UNL     1      61.412  12.361   3.044  1.00  0.00     0.164 HD
HETATM    3  C   UNL     1      62.624   9.378   3.958  1.00  0.00    -0.041 A 
HETATM    4  C   UNL     1      62.174  10.693   4.022  1.00  0.00     0.094 A 
HETATM    5  C   UNL     1      61.721  10.754   1.768  1.00  0.00     0.087 A 
HETATM    6  C   UNL     1      62.608   8.750   2.712  1.00  0.00     0.010 A 
HETATM    7  C   UNL     1      62.146   9.447   1.597  1.00  0.00     0.018 A 
ENDROOT
BRANCH   3   8
HETATM    8  C   UNL     1      63.129   8.680   5.195  1.00  0.00     0.066 C 
BRANCH   8   9
HETATM    9  C   UNL     1      64.636   8.427   5.162  1.00  0.00     0.168 C 
BRANCH   9  10
HETATM   10  O   UNL     1      65.343   9.378   5.950  1.00  0.00    -0.401 OA
HETATM   11  H   UNL     1      65.037   9.327   6.869  1.00  0.00     0.209 HD
ENDBRANCH   9  10
ENDBRANCH   8   9
ENDBRANCH   3   8
TORSDOF 3
ENDMDL
MODEL 4
REMARK VINA RESULT:      -3.9      2.753      3.623
REMARK  3 active torsions:
REMARK  status: ('A' for Active; 'I' for Inactive)
REMARK    1  A    between atoms: C_3  and  C_8 
REMARK    2  A    between atoms: O_5  and  C_7 
REMARK    3  A    between atoms: C_7  and  C_8 
ROOT
HETATM    1  N   UNL     1      64.479   8.587   5.622  1.00  0.00    -0.375 N 
ATOM      2  HN  UNL     1      64.983   8.710   6.499  1.00  0.00     0.164 HD
HETATM    3  C   UNL     1      62.877   9.392   3.989  1.00  0.00    -0.041 A 
HETATM    4  C   UNL     1      63.599   9.511   5.173  1.00  0.00     0.094 A 
HETATM    5  C   UNL     1      64.656   7.495   4.850  1.00  0.00     0.087 A 
HETATM    6  C   UNL     1      63.082   8.246   3.221  1.00  0.00     0.010 A 
HETATM    7  C   UNL     1      63.989   7.280   3.654  1.00  0.00     0.018 A 
ENDROOT
BRANCH   3   8
HETATM    8  C   UNL     1      61.896  10.460   3.580  1.00  0.00     0.066 C 
BRANCH   8   9
HETATM    9  C   UNL     1      61.920  10.748   2.078  1.00  0.00     0.168 C 
BRANCH   9  10
HETATM   10  O   UNL     1      62.027  12.142   1.816  1.00  0.00    -0.401 OA
HETATM   11  H   UNL     1      61.602  12.640   2.532  1.00  0.00     0.209 HD
ENDBRANCH   9  10
ENDBRANCH   8   9
ENDBRANCH   3   8
TORSDOF 3
ENDMDL
MODEL 5
REMARK VINA RESULT:      -3.8      2.779      4.050
REMARK  3 active torsions:
REMARK  status: ('A' for Active; 'I' for Inactive)
REMARK    1  A    between atoms: C_3  and  C_8 
REMARK    2  A    between atoms: O_5  and  C_7 
REMARK    3  A    between atoms: C_7  and  C_8 
ROOT
HETATM    1  N   UNL     1      62.377  11.432   4.697  1.00  0.00    -0.375 N 
ATOM      2  HN  UNL     1      62.201  12.346   5.113  1.00  0.00     0.164 HD
HETATM    3  C   UNL     1      62.180   9.903   2.825  1.00  0.00    -0.041 A 
HETATM    4  C   UNL     1      61.976  11.135   3.440  1.00  0.00     0.094 A 
HETATM    5  C   UNL     1      63.020  10.457   5.373  1.00  0.00     0.087 A 
HETATM    6  C   UNL     1      62.843   8.918   3.558  1.00  0.00     0.010 A 
HETATM    7  C   UNL     1      63.275   9.199   4.853  1.00  0.00     0.018 A 
ENDROOT
BRANCH   3   8
HETATM    8  C   UNL     1      61.675   9.650   1.428  1.00  0.00     0.066 C 
BRANCH   8   9
HETATM    9  C   UNL     1      60.944   8.315   1.290  1.00  0.00     0.168 C 
BRANCH   9  10
HETATM   10  O   UNL     1      59.578   8.426   1.673  1.00  0.00    -0.401 OA
HETATM   11  H   UNL     1      59.524   8.706   2.601  1.00  0.00     0.209 HD
ENDBRANCH   9  10
ENDBRANCH   8   9
ENDBRANCH   3   8
TORSDOF 3
ENDMDL
MODEL 6
REMARK VINA RESULT:      -3.8      1.869      2.561
REMARK  3 active torsions:
REMARK  status: ('A' for Active; 'I' for Inactive)
REMARK    1  A    between atoms: C_3  and  C_8 
REMARK    2  A    between atoms: O_5  and  C_7 
REMARK    3  A    between atoms: C_7  and  C_8 
ROOT
HETATM    1  N   UNL     1      62.117   9.640   1.657  1.00  0.00    -0.375 N 
ATOM      2  HN  UNL     1      61.988   9.399   0.674  1.00  0.00     0.164 HD
HETATM    3  C   UNL     1      62.841   9.035   3.890  1.00  0.00    -0.041 A 
HETATM    4  C   UNL     1      62.651   8.764   2.538  1.00  0.00     0.094 A 
HETATM    5  C   UNL     1      61.762  10.848   2.143  1.00  0.00     0.087 A 
HETATM    6  C   UNL     1      62.456  10.292   4.357  1.00  0.00     0.010 A 
HETATM    7  C   UNL     1      61.910  11.218   3.469  1.00  0.00     0.018 A 
ENDROOT
BRANCH   3   8
HETATM    8  C   UNL     1      63.420   7.988   4.807  1.00  0.00     0.066 C 
BRANCH   8   9
HETATM    9  C   UNL     1      62.406   7.455   5.819  1.00  0.00     0.168 C 
BRANCH   9  10
HETATM   10  O   UNL     1      62.620   8.007   7.113  1.00  0.00    -0.401 OA
HETATM   11  H   UNL     1      63.401   8.583   7.093  1.00  0.00     0.209 HD
ENDBRANCH   9  10
ENDBRANCH   8   9
ENDBRANCH   3   8
TORSDOF 3
ENDMDL
MODEL 7
REMARK VINA RESULT:      -3.7     11.907     12.786
REMARK  3 active torsions:
REMARK  status: ('A' for Active; 'I' for Inactive)
REMARK    1  A    between atoms: C_3  and  C_8 
REMARK    2  A    between atoms: O_5  and  C_7 
REMARK    3  A    between atoms: C_7  and  C_8 
ROOT
HETATM    1  N   UNL     1      57.173   1.676  14.244  1.00  0.00    -0.375 N 
ATOM      2  HN  UNL     1      56.456   1.542  14.956  1.00  0.00     0.164 HD
HETATM    3  C   UNL     1      57.807   2.340  12.000  1.00  0.00    -0.041 A 
HETATM    4  C   UNL     1      56.872   2.146  13.012  1.00  0.00     0.094 A 
HETATM    5  C   UNL     1      58.470   1.392  14.483  1.00  0.00     0.087 A 
HETATM    6  C   UNL     1      59.138   2.029  12.282  1.00  0.00     0.010 A 
HETATM    7  C   UNL     1      59.478   1.550  13.546  1.00  0.00     0.018 A 
ENDROOT
BRANCH   3   8
HETATM    8  C   UNL     1      57.378   2.844  10.646  1.00  0.00     0.066 C 
BRANCH   8   9
HETATM    9  C   UNL     1      58.522   3.480   9.856  1.00  0.00     0.168 C 
BRANCH   9  10
HETATM   10  O   UNL     1      58.635   4.872  10.130  1.00  0.00    -0.401 OA
HETATM   11  H   UNL     1      59.168   5.001  10.931  1.00  0.00     0.209 HD
ENDBRANCH   9  10
ENDBRANCH   8   9
ENDBRANCH   3   8
TORSDOF 3
ENDMDL
MODEL 8
REMARK VINA RESULT:      -3.5      6.105      7.426
REMARK  3 active torsions:
REMARK  status: ('A' for Active; 'I' for Inactive)
REMARK    1  A    between atoms: C_3  and  C_8 
REMARK    2  A    between atoms: O_5  and  C_7 
REMARK    3  A    between atoms: C_7  and  C_8 
ROOT
HETATM    1  N   UNL     1      66.574   4.067   8.275  1.00  0.00    -0.375 N 
ATOM      2  HN  UNL     1      66.470   3.054   8.311  1.00  0.00     0.164 HD
HETATM    3  C   UNL     1      65.844   6.226   7.447  1.00  0.00    -0.041 A 
HETATM    4  C   UNL     1      65.744   4.841   7.540  1.00  0.00     0.094 A 
HETATM    5  C   UNL     1      67.548   4.704   8.959  1.00  0.00     0.087 A 
HETATM    6  C   UNL     1      66.868   6.848   8.163  1.00  0.00     0.010 A 
HETATM    7  C   UNL     1      67.733   6.077   8.936  1.00  0.00     0.018 A 
ENDROOT
BRANCH   3   8
HETATM    8  C   UNL     1      64.890   7.007   6.580  1.00  0.00     0.066 C 
BRANCH   8   9
HETATM    9  C   UNL     1      65.601   7.971   5.630  1.00  0.00     0.168 C 
BRANCH   9  10
HETATM   10  O   UNL     1      65.231   9.322   5.885  1.00  0.00    -0.401 OA
HETATM   11  H   UNL     1      64.398   9.520   5.428  1.00  0.00     0.209 HD
ENDBRANCH   9  10
ENDBRANCH   8   9
ENDBRANCH   3   8
TORSDOF 3
ENDMDL
MODEL 9
REMARK VINA RESULT:      -3.4     13.423     14.194
REMARK  3 active torsions:
REMARK  status: ('A' for Active; 'I' for Inactive)
REMARK    1  A    between atoms: C_3  and  C_8 
REMARK    2  A    between atoms: O_5  and  C_7 
REMARK    3  A    between atoms: C_7  and  C_8 
ROOT
HETATM    1  N   UNL     1      58.902   2.371  12.491  1.00  0.00    -0.375 N 
ATOM      2  HN  UNL     1      59.475   2.966  11.892  1.00  0.00     0.164 HD
HETATM    3  C   UNL     1      56.721   1.631  13.249  1.00  0.00    -0.041 A 
HETATM    4  C   UNL     1      57.551   2.413  12.450  1.00  0.00     0.094 A 
HETATM    5  C   UNL     1      59.455   1.502  13.363  1.00  0.00     0.087 A 
HETATM    6  C   UNL     1      57.329   0.750  14.143  1.00  0.00     0.010 A 
HETATM    7  C   UNL     1      58.720   0.680  14.201  1.00  0.00     0.018 A 
ENDROOT
BRANCH   3   8
HETATM    8  C   UNL     1      55.223   1.763  13.155  1.00  0.00     0.066 C 
BRANCH   8   9
HETATM    9  C   UNL     1      54.714   3.127  13.623  1.00  0.00     0.168 C 
BRANCH   9  10
HETATM   10  O   UNL     1      55.100   3.395  14.966  1.00  0.00    -0.401 OA
HETATM   11  H   UNL     1      55.787   2.765  15.237  1.00  0.00     0.209 HD
ENDBRANCH   9  10
ENDBRANCH   8   9
ENDBRANCH   3   8
TORSDOF 3
ENDMDL
