MODEL 1
REMARK VINA RESULT:      -4.0      0.000      0.000
REMARK  3 active torsions:
REMARK  status: ('A' for Active; 'I' for Inactive)
REMARK    1  A    between atoms: C_1  and  C_2 
REMARK    2  A    between atoms: C_1  and  O_11 
REMARK    3  A    between atoms: C_2  and  N_4 
ROOT
HETATM    1  C   UNL     1      67.057   6.864   6.498  1.00  0.00     0.156 C 
HETATM    2  N   UNL     1      65.649   5.344   7.960  1.00  0.00    -0.067 N 
HETATM    3  C   UNL     1      65.629   6.448   6.959  1.00  0.00     0.287 C 
HETATM    4  C   UNL     1      68.075   5.953   7.240  1.00  0.00     0.038 C 
HETATM    5  C   UNL     1      67.759   4.472   6.946  1.00  0.00     0.036 C 
HETATM    6  C   UNL     1      67.882   6.140   8.758  1.00  0.00     0.036 C 
HETATM    7  C   UNL     1      66.309   4.165   7.355  1.00  0.00     0.235 C 
HETATM    8  C   UNL     1      66.435   5.782   9.136  1.00  0.00     0.235 C 
HETATM    9  H   UNL     1      64.698   5.107   8.244  1.00  0.00     0.280 HD
ENDROOT
BRANCH   1  10
HETATM   10  C   UNL     1      67.203   6.676   4.997  1.00  0.00    -0.037 C 
BRANCH  10  11
HETATM   11  N   UNL     1      67.325   6.521   3.752  1.00  0.00    -0.367 N 
ATOM     12  HN2 UNL     1      67.252   6.668   4.759  1.00  0.00     0.165 HD
ATOM     13  HN1 UNL     1      67.424   6.395   2.744  1.00  0.00     0.165 HD
ENDBRANCH  10  11
ENDBRANCH   1  10
BRANCH   1  14
HETATM   14  O   UNL     1      67.322   8.230   6.852  1.00  0.00    -0.374 OA
HETATM   15  H   UNL     1      68.259   8.330   7.075  1.00  0.00     0.212 HD
ENDBRANCH   1  14
TORSDOF 3
ENDMDL
MODEL 2
REMARK VINA RESULT:      -4.0      2.113      2.923
REMARK  3 active torsions:
REMARK  status: ('A' for Active; 'I' for Inactive)
REMARK    1  A    between atoms: C_1  and  C_2 
REMARK    2  A    between atoms: C_1  and  O_11 
REMARK    3  A    between atoms: C_2  and  N_4 
ROOT
HETATM    1  C   UNL     1      65.679   8.034   5.712  1.00  0.00     0.156 C 
HETATM    2  N   UNL     1      66.103   5.591   6.243  1.00  0.00    -0.067 N 
HETATM    3  C   UNL     1      65.291   6.797   6.574  1.00  0.00     0.287 C 
HETATM    4  C   UNL     1      66.811   7.595   4.741  1.00  0.00     0.038 C 
HETATM    5  C   UNL     1      66.334   6.400   3.891  1.00  0.00     0.036 C 
HETATM    6  C   UNL     1      68.000   7.080   5.577  1.00  0.00     0.036 C 
HETATM    7  C   UNL     1      65.894   5.254   4.818  1.00  0.00     0.235 C 
HETATM    8  C   UNL     1      67.534   5.908   6.457  1.00  0.00     0.235 C 
HETATM    9  H   UNL     1      65.827   4.807   6.834  1.00  0.00     0.280 HD
ENDROOT
BRANCH   1  10
HETATM   10  C   UNL     1      64.480   8.518   4.913  1.00  0.00    -0.037 C 
BRANCH  10  11
HETATM   11  N   UNL     1      63.486   8.920   4.249  1.00  0.00    -0.367 N 
ATOM     12  HN2 UNL     1      64.271   8.572   4.801  1.00  0.00     0.165 HD
ATOM     13  HN1 UNL     1      62.682   9.245   3.712  1.00  0.00     0.165 HD
ENDBRANCH  10  11
ENDBRANCH   1  10
BRANCH   1  14
HETATM   14  O   UNL     1      66.175   9.092   6.546  1.00  0.00    -0.374 OA
HETATM   15  H   UNL     1      67.128   8.977   6.681  1.00  0.00     0.212 HD
ENDBRANCH   1  14
TORSDOF 3
ENDMDL
MODEL 3
REMARK VINA RESULT:      -3.9      4.679      5.704
REMARK  3 active torsions:
REMARK  status: ('A' for Active; 'I' for Inactive)
REMARK    1  A    between atoms: C_1  and  C_2 
REMARK    2  A    between atoms: C_1  and  O_11 
REMARK    3  A    between atoms: C_2  and  N_4 
ROOT
HETATM    1  C   UNL     1      63.629   8.976   5.125  1.00  0.00     0.156 C 
HETATM    2  N   UNL     1      62.205   6.881   5.247  1.00  0.00    -0.067 N 
HETATM    3  C   UNL     1      62.801   8.008   6.020  1.00  0.00     0.287 C 
HETATM    4  C   UNL     1      63.551   8.449   3.664  1.00  0.00     0.038 C 
HETATM    5  C   UNL     1      62.075   8.345   3.227  1.00  0.00     0.036 C 
HETATM    6  C   UNL     1      64.110   7.013   3.631  1.00  0.00     0.036 C 
HETATM    7  C   UNL     1      61.311   7.438   4.207  1.00  0.00     0.235 C 
HETATM    8  C   UNL     1      63.296   6.127   4.588  1.00  0.00     0.235 C 
HETATM    9  H   UNL     1      61.680   6.266   5.869  1.00  0.00     0.280 HD
ENDROOT
BRANCH   1  10
HETATM   10  C   UNL     1      63.054  10.381   5.192  1.00  0.00    -0.037 C 
BRANCH  10  11
HETATM   11  N   UNL     1      62.577  11.547   5.248  1.00  0.00    -0.367 N 
ATOM     12  HN2 UNL     1      62.973  10.609   5.171  1.00  0.00     0.165 HD
ATOM     13  HN1 UNL     1      62.191  12.490   5.293  1.00  0.00     0.165 HD
ENDBRANCH  10  11
ENDBRANCH   1  10
BRANCH   1  14
HETATM   14  O   UNL     1      65.005   8.986   5.534  1.00  0.00    -0.374 OA
HETATM   15  H   UNL     1      65.532   8.468   4.907  1.00  0.00     0.212 HD
ENDBRANCH   1  14
TORSDOF 3
ENDMDL
MODEL 4
REMARK VINA RESULT:      -3.9      2.052      2.711
REMARK  3 active torsions:
REMARK  status: ('A' for Active; 'I' for Inactive)
REMARK    1  A    between atoms: C_1  and  C_2 
REMARK    2  A    between atoms: C_1  and  O_11 
REMARK    3  A    between atoms: C_2  and  N_4 
ROOT
HETATM    1  C   UNL     1      66.410   7.821   5.659  1.00  0.00     0.156 C 
HETATM    2  N   UNL     1      67.173   6.862   7.879  1.00  0.00    -0.067 N 
HETATM    3  C   UNL     1      66.999   8.103   7.071  1.00  0.00     0.287 C 
HETATM    4  C   UNL     1      66.167   6.289   5.547  1.00  0.00     0.038 C 
HETATM    5  C   UNL     1      65.238   5.825   6.688  1.00  0.00     0.036 C 
HETATM    6  C   UNL     1      67.510   5.565   5.766  1.00  0.00     0.036 C 
HETATM    7  C   UNL     1      65.854   6.213   8.043  1.00  0.00     0.235 C 
HETATM    8  C   UNL     1      68.073   5.941   7.147  1.00  0.00     0.235 C 
HETATM    9  H   UNL     1      67.570   7.087   8.791  1.00  0.00     0.280 HD
ENDROOT
BRANCH   1  10
HETATM   10  C   UNL     1      65.094   8.560   5.478  1.00  0.00    -0.037 C 
BRANCH  10  11
HETATM   11  N   UNL     1      64.003   9.174   5.328  1.00  0.00    -0.367 N 
ATOM     12  HN2 UNL     1      64.884   8.667   5.417  1.00  0.00     0.165 HD
ATOM     13  HN1 UNL     1      63.120   9.670   5.208  1.00  0.00     0.165 HD
ENDBRANCH  10  11
ENDBRANCH   1  10
BRANCH   1  14
HETATM   14  O   UNL     1      67.340   8.212   4.638  1.00  0.00    -0.374 OA
HETATM   15  H   UNL     1      67.240   7.630   3.869  1.00  0.00     0.212 HD
ENDBRANCH   1  14
TORSDOF 3
ENDMDL
MODEL 5
REMARK VINA RESULT:      -3.8      6.298      7.534
REMARK  3 active torsions:
REMARK  status: ('A' for Active; 'I' for Inactive)
REMARK    1  A    between atoms: C_1  and  C_2 
REMARK    2  A    between atoms: C_1  and  O_11 
REMARK    3  A    between atoms: C_2  and  N_4 
ROOT
HETATM    1  C   UNL     1      61.415   9.184   2.117  1.00  0.00     0.156 C 
HETATM    2  N   UNL     1      63.175   7.440   2.656  1.00  0.00    -0.067 N 
HETATM    3  C   UNL     1      62.611   8.331   1.602  1.00  0.00     0.287 C 
HETATM    4  C   UNL     1      61.199   8.834   3.617  1.00  0.00     0.038 C 
HETATM    5  C   UNL     1      62.500   9.091   4.404  1.00  0.00     0.036 C 
HETATM    6  C   UNL     1      60.919   7.323   3.731  1.00  0.00     0.036 C 
HETATM    7  C   UNL     1      63.646   8.275   3.783  1.00  0.00     0.235 C 
HETATM    8  C   UNL     1      62.104   6.540   3.141  1.00  0.00     0.235 C 
HETATM    9  H   UNL     1      63.948   6.891   2.278  1.00  0.00     0.280 HD
ENDROOT
BRANCH   1  10
HETATM   10  C   UNL     1      61.724  10.665   1.978  1.00  0.00    -0.037 C 
BRANCH  10  11
HETATM   11  N   UNL     1      61.980  11.894   1.863  1.00  0.00    -0.367 N 
ATOM     12  HN2 UNL     1      61.764  10.899   1.923  1.00  0.00     0.165 HD
ATOM     13  HN1 UNL     1      62.187  12.889   1.769  1.00  0.00     0.165 HD
ENDBRANCH  10  11
ENDBRANCH   1  10
BRANCH   1  14
HETATM   14  O   UNL     1      60.218   8.860   1.395  1.00  0.00    -0.374 OA
HETATM   15  H   UNL     1      59.633   8.331   1.958  1.00  0.00     0.212 HD
ENDBRANCH   1  14
TORSDOF 3
ENDMDL
MODEL 6
REMARK VINA RESULT:      -3.8      6.970      7.813
REMARK  3 active torsions:
REMARK  status: ('A' for Active; 'I' for Inactive)
REMARK    1  A    between atoms: C_1  and  C_2 
REMARK    2  A    between atoms: C_1  and  O_11 
REMARK    3  A    between atoms: C_2  and  N_4 
ROOT
HETATM    1  C   UNL     1      62.160   9.151   2.852  1.00  0.00     0.156 C 
HETATM    2  N   UNL     1      60.441   7.295   2.684  1.00  0.00    -0.067 N 
HETATM    3  C   UNL     1      60.899   8.478   3.467  1.00  0.00     0.287 C 
HETATM    4  C   UNL     1      62.539   8.359   1.569  1.00  0.00     0.038 C 
HETATM    5  C   UNL     1      61.339   8.336   0.599  1.00  0.00     0.036 C 
HETATM    6  C   UNL     1      62.801   6.891   1.961  1.00  0.00     0.036 C 
HETATM    7  C   UNL     1      60.116   7.732   1.308  1.00  0.00     0.235 C 
HETATM    8  C   UNL     1      61.544   6.308   2.626  1.00  0.00     0.235 C 
HETATM    9  H   UNL     1      59.620   6.877   3.123  1.00  0.00     0.280 HD
ENDROOT
BRANCH   1  10
HETATM   10  C   UNL     1      61.865  10.597   2.490  1.00  0.00    -0.037 C 
BRANCH  10  11
HETATM   11  N   UNL     1      61.620  11.797   2.191  1.00  0.00    -0.367 N 
ATOM     12  HN2 UNL     1      61.851  10.833   2.431  1.00  0.00     0.165 HD
ATOM     13  HN1 UNL     1      61.421  12.768   1.948  1.00  0.00     0.165 HD
ENDBRANCH  10  11
ENDBRANCH   1  10
BRANCH   1  14
HETATM   14  O   UNL     1      63.262   9.088   3.770  1.00  0.00    -0.374 OA
HETATM   15  H   UNL     1      62.983   8.633   4.580  1.00  0.00     0.212 HD
ENDBRANCH   1  14
TORSDOF 3
ENDMDL
MODEL 7
REMARK VINA RESULT:      -3.8      2.124      3.367
REMARK  3 active torsions:
REMARK  status: ('A' for Active; 'I' for Inactive)
REMARK    1  A    between atoms: C_1  and  C_2 
REMARK    2  A    between atoms: C_1  and  O_11 
REMARK    3  A    between atoms: C_2  and  N_4 
ROOT
HETATM    1  C   UNL     1      64.961   6.188   6.894  1.00  0.00     0.156 C 
HETATM    2  N   UNL     1      67.254   7.172   7.347  1.00  0.00    -0.067 N 
HETATM    3  C   UNL     1      65.989   6.673   7.958  1.00  0.00     0.287 C 
HETATM    4  C   UNL     1      65.612   6.369   5.494  1.00  0.00     0.038 C 
HETATM    5  C   UNL     1      66.945   5.594   5.435  1.00  0.00     0.036 C 
HETATM    6  C   UNL     1      65.972   7.857   5.310  1.00  0.00     0.036 C 
HETATM    7  C   UNL     1      67.869   6.076   6.566  1.00  0.00     0.235 C 
HETATM    8  C   UNL     1      66.931   8.291   6.432  1.00  0.00     0.235 C 
HETATM    9  H   UNL     1      67.896   7.489   8.074  1.00  0.00     0.280 HD
ENDROOT
BRANCH   1  10
HETATM   10  C   UNL     1      64.624   4.723   7.115  1.00  0.00    -0.037 C 
BRANCH  10  11
HETATM   11  N   UNL     1      64.343   3.508   7.298  1.00  0.00    -0.367 N 
ATOM     12  HN2 UNL     1      64.603   4.484   7.152  1.00  0.00     0.165 HD
ATOM     13  HN1 UNL     1      64.116   2.524   7.446  1.00  0.00     0.165 HD
ENDBRANCH  10  11
ENDBRANCH   1  10
BRANCH   1  14
HETATM   14  O   UNL     1      63.767   6.983   6.949  1.00  0.00    -0.374 OA
HETATM   15  H   UNL     1      63.689   7.389   7.826  1.00  0.00     0.212 HD
ENDBRANCH   1  14
TORSDOF 3
ENDMDL
MODEL 8
REMARK VINA RESULT:      -3.7      5.447      6.167
REMARK  3 active torsions:
REMARK  status: ('A' for Active; 'I' for Inactive)
REMARK    1  A    between atoms: C_1  and  C_2 
REMARK    2  A    between atoms: C_1  and  O_11 
REMARK    3  A    between atoms: C_2  and  N_4 
ROOT
HETATM    1  C   UNL     1      61.842   8.892   3.283  1.00  0.00     0.156 C 
HETATM    2  N   UNL     1      61.766   6.705   4.565  1.00  0.00    -0.067 N 
HETATM    3  C   UNL     1      61.008   7.641   3.686  1.00  0.00     0.287 C 
HETATM    4  C   UNL     1      63.247   8.750   3.932  1.00  0.00     0.038 C 
HETATM    5  C   UNL     1      63.898   7.426   3.480  1.00  0.00     0.036 C 
HETATM    6  C   UNL     1      63.072   8.643   5.460  1.00  0.00     0.036 C 
HETATM    7  C   UNL     1      62.976   6.250   3.843  1.00  0.00     0.235 C 
HETATM    8  C   UNL     1      62.182   7.432   5.787  1.00  0.00     0.235 C 
HETATM    9  H   UNL     1      61.184   5.905   4.815  1.00  0.00     0.280 HD
ENDROOT
BRANCH   1  10
HETATM   10  C   UNL     1      61.983   8.968   1.772  1.00  0.00    -0.037 C 
BRANCH  10  11
HETATM   11  N   UNL     1      62.101   9.031   0.518  1.00  0.00    -0.367 N 
ATOM     12  HN2 UNL     1      62.037   8.968   1.534  1.00  0.00     0.165 HD
ATOM     13  HN1 UNL     1      62.196   9.082  -0.497  1.00  0.00     0.165 HD
ENDBRANCH  10  11
ENDBRANCH   1  10
BRANCH   1  14
HETATM   14  O   UNL     1      61.226  10.089   3.782  1.00  0.00    -0.374 OA
HETATM   15  H   UNL     1      61.473  10.216   4.710  1.00  0.00     0.212 HD
ENDBRANCH   1  14
TORSDOF 3
ENDMDL
MODEL 9
REMARK VINA RESULT:      -3.7      5.292      6.617
REMARK  3 active torsions:
REMARK  status: ('A' for Active; 'I' for Inactive)
REMARK    1  A    between atoms: C_1  and  C_2 
REMARK    2  A    between atoms: C_1  and  O_11 
REMARK    3  A    between atoms: C_2  and  N_4 
ROOT
HETATM    1  C   UNL     1      62.009   9.233   4.062  1.00  0.00     0.156 C 
HETATM    2  N   UNL     1      63.148   7.594   2.497  1.00  0.00    -0.067 N 
HETATM    3  C   UNL     1      62.780   9.021   2.726  1.00  0.00     0.287 C 
HETATM    4  C   UNL     1      61.884   7.849   4.758  1.00  0.00     0.038 C 
HETATM    5  C   UNL     1      63.287   7.241   4.966  1.00  0.00     0.036 C 
HETATM    6  C   UNL     1      61.138   6.890   3.809  1.00  0.00     0.036 C 
HETATM    7  C   UNL     1      64.009   7.141   3.612  1.00  0.00     0.235 C 
HETATM    8  C   UNL     1      61.911   6.780   2.484  1.00  0.00     0.235 C 
HETATM    9  H   UNL     1      63.641   7.495   1.610  1.00  0.00     0.280 HD
ENDROOT
BRANCH   1  10
HETATM   10  C   UNL     1      62.770  10.191   4.964  1.00  0.00    -0.037 C 
BRANCH  10  11
HETATM   11  N   UNL     1      63.400  10.986   5.712  1.00  0.00    -0.367 N 
ATOM     12  HN2 UNL     1      62.918  10.323   5.105  1.00  0.00     0.165 HD
ATOM     13  HN1 UNL     1      63.911  11.630   6.318  1.00  0.00     0.165 HD
ENDBRANCH  10  11
ENDBRANCH   1  10
BRANCH   1  14
HETATM   14  O   UNL     1      60.690   9.739   3.807  1.00  0.00    -0.374 OA
HETATM   15  H   UNL     1      60.377   9.406   2.952  1.00  0.00     0.212 HD
ENDBRANCH   1  14
TORSDOF 3
ENDMDL
