MODEL 1
REMARK VINA RESULT:      -4.5      0.000      0.000
REMARK  6 active torsions:
REMARK  status: ('A' for Active; 'I' for Inactive)
REMARK    1  A    between atoms: N_1  and  C_4 
REMARK    2  A    between atoms: C_4  and  C_6 
REMARK    3  A    between atoms: C_6  and  C_9 
REMARK    4  A    between atoms: N_7  and  C_9 
REMARK    5  A    between atoms: N_7  and  C_11 
REMARK    6  A    between atoms: C_8  and  C_11 
ROOT
HETATM    1  N   UNL     1      62.982   8.706   5.998  1.00  0.00    -0.072 N 
HETATM    2  H   UNL     1      63.214   8.967   6.957  1.00  0.00     0.277 HD
HETATM    3  H   UNL     1      62.020   8.378   5.921  1.00  0.00     0.277 HD
ENDROOT
BRANCH   1   4
HETATM    4  C   UNL     1      63.864   7.607   5.581  1.00  0.00     0.245 C 
BRANCH   4   5
HETATM    5  C   UNL     1      65.204   8.127   5.057  1.00  0.00     0.131 C 
BRANCH   5   6
HETATM    6  C   UNL     1      66.191   8.292   6.201  1.00  0.00    -0.076 C 
BRANCH   6   7
HETATM    7  N   UNL     1      67.009   8.430   7.151  1.00  0.00    -0.370 N 
ATOM      8  HN2 UNL     1      66.353   8.248   6.392  1.00  0.00     0.165 HD
ATOM      9  HN1 UNL     1      67.671   8.543   7.918  1.00  0.00     0.165 HD
ENDBRANCH   6   7
ENDBRANCH   5   6
ENDBRANCH   4   5
ENDBRANCH   1   4
BRANCH   1  10
HETATM   10  C   UNL     1      63.120   9.899   5.136  1.00  0.00     0.264 C 
BRANCH  10  11
HETATM   11  C   UNL     1      62.073  10.013   4.011  1.00  0.00     0.147 C 
HETATM   12  O   UNL     1      61.855  11.396   3.670  1.00  0.00    -0.384 OA
HETATM   13  C   UNL     1      61.786  11.508   2.245  1.00  0.00     0.168 C 
HETATM   14  C   UNL     1      61.757  10.103   1.676  1.00  0.00     0.029 C 
HETATM   15  C   UNL     1      62.488   9.308   2.730  1.00  0.00     0.036 C 
ENDBRANCH  10  11
ENDBRANCH   1  10
TORSDOF 6
ENDMDL
MODEL 2
REMARK VINA RESULT:      -4.4      2.395      4.663
REMARK  6 active torsions:
REMARK  status: ('A' for Active; 'I' for Inactive)
REMARK    1  A    between atoms: N_1  and  C_4 
REMARK    2  A    between atoms: C_4  and  C_6 
REMARK    3  A    between atoms: C_6  and  C_9 
REMARK    4  A    between atoms: N_7  and  C_9 
REMARK    5  A    between atoms: N_7  and  C_11 
REMARK    6  A    between atoms: C_8  and  C_11 
ROOT
HETATM    1  N   UNL     1      62.663   8.387   4.997  1.00  0.00    -0.072 N 
HETATM    2  H   UNL     1      61.814   7.845   5.162  1.00  0.00     0.277 HD
HETATM    3  H   UNL     1      62.879   8.993   5.788  1.00  0.00     0.277 HD
ENDROOT
BRANCH   1   4
HETATM    4  C   UNL     1      62.455   9.243   3.821  1.00  0.00     0.245 C 
BRANCH   4   5
HETATM    5  C   UNL     1      62.145  10.687   4.221  1.00  0.00     0.131 C 
BRANCH   5   6
HETATM    6  C   UNL     1      63.000  11.103   5.406  1.00  0.00    -0.076 C 
BRANCH   6   7
HETATM    7  N   UNL     1      63.711  11.447   6.389  1.00  0.00    -0.370 N 
ATOM      8  HN2 UNL     1      63.083  11.206   5.622  1.00  0.00     0.165 HD
ATOM      9  HN1 UNL     1      64.288  11.725   7.183  1.00  0.00     0.165 HD
ENDBRANCH   6   7
ENDBRANCH   5   6
ENDBRANCH   4   5
ENDBRANCH   1   4
BRANCH   1  10
HETATM   10  C   UNL     1      63.795   7.454   4.823  1.00  0.00     0.264 C 
BRANCH  10  11
HETATM   11  C   UNL     1      65.189   8.110   4.849  1.00  0.00     0.147 C 
HETATM   12  O   UNL     1      65.451   8.676   6.148  1.00  0.00    -0.384 OA
HETATM   13  C   UNL     1      66.799   8.369   6.515  1.00  0.00     0.168 C 
HETATM   14  C   UNL     1      67.475   7.757   5.304  1.00  0.00     0.029 C 
HETATM   15  C   UNL     1      66.318   7.133   4.563  1.00  0.00     0.036 C 
ENDBRANCH  10  11
ENDBRANCH   1  10
TORSDOF 6
ENDMDL
MODEL 3
REMARK VINA RESULT:      -4.3      2.879      5.986
REMARK  6 active torsions:
REMARK  status: ('A' for Active; 'I' for Inactive)
REMARK    1  A    between atoms: N_1  and  C_4 
REMARK    2  A    between atoms: C_4  and  C_6 
REMARK    3  A    between atoms: C_6  and  C_9 
REMARK    4  A    between atoms: N_7  and  C_9 
REMARK    5  A    between atoms: N_7  and  C_11 
REMARK    6  A    between atoms: C_8  and  C_11 
ROOT
HETATM    1  N   UNL     1      64.242   9.332   5.554  1.00  0.00    -0.072 N 
HETATM    2  H   UNL     1      63.893   9.053   6.472  1.00  0.00     0.277 HD
HETATM    3  H   UNL     1      64.679  10.252   5.584  1.00  0.00     0.277 HD
ENDROOT
BRANCH   1   4
HETATM    4  C   UNL     1      63.109   9.405   4.621  1.00  0.00     0.245 C 
BRANCH   4   5
HETATM    5  C   UNL     1      62.443  10.781   4.648  1.00  0.00     0.131 C 
BRANCH   5   6
HETATM    6  C   UNL     1      61.936  11.152   3.263  1.00  0.00    -0.076 C 
BRANCH   6   7
HETATM    7  N   UNL     1      61.516  11.460   2.116  1.00  0.00    -0.370 N 
ATOM      8  HN2 UNL     1      61.859  11.280   3.059  1.00  0.00     0.165 HD
ATOM      9  HN1 UNL     1      61.176  11.709   1.187  1.00  0.00     0.165 HD
ENDBRANCH   6   7
ENDBRANCH   5   6
ENDBRANCH   4   5
ENDBRANCH   1   4
BRANCH   1  10
HETATM   10  C   UNL     1      65.268   8.360   5.123  1.00  0.00     0.264 C 
BRANCH  10  11
HETATM   11  C   UNL     1      66.261   7.932   6.221  1.00  0.00     0.147 C 
HETATM   12  O   UNL     1      65.562   7.288   7.303  1.00  0.00    -0.384 OA
HETATM   13  C   UNL     1      66.314   6.142   7.713  1.00  0.00     0.168 C 
HETATM   14  C   UNL     1      67.646   6.186   6.990  1.00  0.00     0.029 C 
HETATM   15  C   UNL     1      67.310   6.946   5.731  1.00  0.00     0.036 C 
ENDBRANCH  10  11
ENDBRANCH   1  10
TORSDOF 6
ENDMDL
MODEL 4
REMARK VINA RESULT:      -4.2      2.844      5.775
REMARK  6 active torsions:
REMARK  status: ('A' for Active; 'I' for Inactive)
REMARK    1  A    between atoms: N_1  and  C_4 
REMARK    2  A    between atoms: C_4  and  C_6 
REMARK    3  A    between atoms: C_6  and  C_9 
REMARK    4  A    between atoms: N_7  and  C_9 
REMARK    5  A    between atoms: N_7  and  C_11 
REMARK    6  A    between atoms: C_8  and  C_11 
ROOT
HETATM    1  N   UNL     1      64.325   8.379   5.639  1.00  0.00    -0.072 N 
HETATM    2  H   UNL     1      63.915   7.606   6.165  1.00  0.00     0.277 HD
HETATM    3  H   UNL     1      64.264   9.256   6.154  1.00  0.00     0.277 HD
ENDROOT
BRANCH   1   4
HETATM    4  C   UNL     1      63.580   8.544   4.383  1.00  0.00     0.245 C 
BRANCH   4   5
HETATM    5  C   UNL     1      62.630   9.742   4.444  1.00  0.00     0.131 C 
BRANCH   5   6
HETATM    6  C   UNL     1      63.108  10.743   5.483  1.00  0.00    -0.076 C 
BRANCH   6   7
HETATM    7  N   UNL     1      63.505  11.574   6.344  1.00  0.00    -0.370 N 
ATOM      8  HN2 UNL     1      63.117  10.922   5.662  1.00  0.00     0.165 HD
ATOM      9  HN1 UNL     1      63.828  12.246   7.040  1.00  0.00     0.165 HD
ENDBRANCH   6   7
ENDBRANCH   5   6
ENDBRANCH   4   5
ENDBRANCH   1   4
BRANCH   1  10
HETATM   10  C   UNL     1      65.756   8.090   5.412  1.00  0.00     0.264 C 
BRANCH  10  11
HETATM   11  C   UNL     1      66.540   7.659   6.668  1.00  0.00     0.147 C 
HETATM   12  O   UNL     1      65.642   7.110   7.652  1.00  0.00    -0.384 OA
HETATM   13  C   UNL     1      66.246   5.943   8.219  1.00  0.00     0.168 C 
HETATM   14  C   UNL     1      67.673   5.874   7.711  1.00  0.00     0.029 C 
HETATM   15  C   UNL     1      67.585   6.590   6.386  1.00  0.00     0.036 C 
ENDBRANCH  10  11
ENDBRANCH   1  10
TORSDOF 6
ENDMDL
MODEL 5
REMARK VINA RESULT:      -3.7      1.971      2.522
REMARK  6 active torsions:
REMARK  status: ('A' for Active; 'I' for Inactive)
REMARK    1  A    between atoms: N_1  and  C_4 
REMARK    2  A    between atoms: C_4  and  C_6 
REMARK    3  A    between atoms: C_6  and  C_9 
REMARK    4  A    between atoms: N_7  and  C_9 
REMARK    5  A    between atoms: N_7  and  C_11 
REMARK    6  A    between atoms: C_8  and  C_11 
ROOT
HETATM    1  N   UNL     1      64.787   6.675   5.393  1.00  0.00    -0.072 N 
HETATM    2  H   UNL     1      63.873   6.228   5.303  1.00  0.00     0.277 HD
HETATM    3  H   UNL     1      65.511   6.145   4.910  1.00  0.00     0.277 HD
ENDROOT
BRANCH   1   4
HETATM    4  C   UNL     1      65.147   6.731   6.817  1.00  0.00     0.245 C 
BRANCH   4   5
HETATM    5  C   UNL     1      66.458   7.488   7.037  1.00  0.00     0.131 C 
BRANCH   5   6
HETATM    6  C   UNL     1      67.279   6.818   8.127  1.00  0.00    -0.076 C 
BRANCH   6   7
HETATM    7  N   UNL     1      67.961   6.263   9.031  1.00  0.00    -0.370 N 
ATOM      8  HN2 UNL     1      67.445   6.674   8.253  1.00  0.00     0.165 HD
ATOM      9  HN1 UNL     1      68.512   5.816   9.763  1.00  0.00     0.165 HD
ENDBRANCH   6   7
ENDBRANCH   5   6
ENDBRANCH   4   5
ENDBRANCH   1   4
BRANCH   1  10
HETATM   10  C   UNL     1      64.722   8.015   4.774  1.00  0.00     0.264 C 
BRANCH  10  11
HETATM   11  C   UNL     1      63.366   8.734   4.921  1.00  0.00     0.147 C 
HETATM   12  O   UNL     1      63.504   9.892   5.767  1.00  0.00    -0.384 OA
HETATM   13  C   UNL     1      62.769  10.972   5.184  1.00  0.00     0.168 C 
HETATM   14  C   UNL     1      61.969  10.409   4.026  1.00  0.00     0.029 C 
HETATM   15  C   UNL     1      62.801   9.226   3.597  1.00  0.00     0.036 C 
ENDBRANCH  10  11
ENDBRANCH   1  10
TORSDOF 6
ENDMDL
MODEL 6
REMARK VINA RESULT:      -3.6      2.789      5.812
REMARK  6 active torsions:
REMARK  status: ('A' for Active; 'I' for Inactive)
REMARK    1  A    between atoms: N_1  and  C_4 
REMARK    2  A    between atoms: C_4  and  C_6 
REMARK    3  A    between atoms: C_6  and  C_9 
REMARK    4  A    between atoms: N_7  and  C_9 
REMARK    5  A    between atoms: N_7  and  C_11 
REMARK    6  A    between atoms: C_8  and  C_11 
ROOT
HETATM    1  N   UNL     1      63.285   8.153   3.464  1.00  0.00    -0.072 N 
HETATM    2  H   UNL     1      64.065   7.978   2.830  1.00  0.00     0.277 HD
HETATM    3  H   UNL     1      62.732   7.311   3.618  1.00  0.00     0.277 HD
ENDROOT
BRANCH   1   4
HETATM    4  C   UNL     1      62.405   9.163   2.860  1.00  0.00     0.245 C 
BRANCH   4   5
HETATM    5  C   UNL     1      62.171   8.891   1.373  1.00  0.00     0.131 C 
BRANCH   5   6
HETATM    6  C   UNL     1      60.693   8.666   1.101  1.00  0.00    -0.076 C 
BRANCH   6   7
HETATM    7  N   UNL     1      59.466   8.480   0.876  1.00  0.00    -0.370 N 
ATOM      8  HN2 UNL     1      60.469   8.631   0.988  1.00  0.00     0.165 HD
ATOM      9  HN1 UNL     1      58.474   8.330   0.695  1.00  0.00     0.165 HD
ENDBRANCH   6   7
ENDBRANCH   5   6
ENDBRANCH   4   5
ENDBRANCH   1   4
BRANCH   1  10
HETATM   10  C   UNL     1      63.824   8.583   4.771  1.00  0.00     0.264 C 
BRANCH  10  11
HETATM   11  C   UNL     1      65.346   8.404   4.937  1.00  0.00     0.147 C 
HETATM   12  O   UNL     1      65.773   8.922   6.213  1.00  0.00    -0.384 OA
HETATM   13  C   UNL     1      66.712   8.006   6.784  1.00  0.00     0.168 C 
HETATM   14  C   UNL     1      67.041   6.969   5.729  1.00  0.00     0.029 C 
HETATM   15  C   UNL     1      65.789   6.951   4.886  1.00  0.00     0.036 C 
ENDBRANCH  10  11
ENDBRANCH   1  10
TORSDOF 6
ENDMDL
MODEL 7
REMARK VINA RESULT:      -3.6      3.194      6.110
REMARK  6 active torsions:
REMARK  status: ('A' for Active; 'I' for Inactive)
REMARK    1  A    between atoms: N_1  and  C_4 
REMARK    2  A    between atoms: C_4  and  C_6 
REMARK    3  A    between atoms: C_6  and  C_9 
REMARK    4  A    between atoms: N_7  and  C_9 
REMARK    5  A    between atoms: N_7  and  C_11 
REMARK    6  A    between atoms: C_8  and  C_11 
ROOT
HETATM    1  N   UNL     1      63.762   7.540   6.466  1.00  0.00    -0.072 N 
HETATM    2  H   UNL     1      63.520   6.581   6.718  1.00  0.00     0.277 HD
HETATM    3  H   UNL     1      63.777   8.149   7.284  1.00  0.00     0.277 HD
ENDROOT
BRANCH   1   4
HETATM    4  C   UNL     1      62.744   8.057   5.541  1.00  0.00     0.245 C 
BRANCH   4   5
HETATM    5  C   UNL     1      63.377   8.777   4.350  1.00  0.00     0.131 C 
BRANCH   5   6
HETATM    6  C   UNL     1      62.385   9.746   3.728  1.00  0.00    -0.076 C 
BRANCH   6   7
HETATM    7  N   UNL     1      61.562  10.550   3.213  1.00  0.00    -0.370 N 
ATOM      8  HN2 UNL     1      62.173   9.858   3.646  1.00  0.00     0.165 HD
ATOM      9  HN1 UNL     1      60.896  11.202   2.797  1.00  0.00     0.165 HD
ENDBRANCH   6   7
ENDBRANCH   5   6
ENDBRANCH   4   5
ENDBRANCH   1   4
BRANCH   1  10
HETATM   10  C   UNL     1      65.117   7.548   5.876  1.00  0.00     0.264 C 
BRANCH  10  11
HETATM   11  C   UNL     1      66.160   6.702   6.632  1.00  0.00     0.147 C 
HETATM   12  O   UNL     1      66.797   7.492   7.654  1.00  0.00    -0.384 OA
HETATM   13  C   UNL     1      66.913   6.697   8.838  1.00  0.00     0.168 C 
HETATM   14  C   UNL     1      66.513   5.279   8.478  1.00  0.00     0.029 C 
HETATM   15  C   UNL     1      65.561   5.489   7.327  1.00  0.00     0.036 C 
ENDBRANCH  10  11
ENDBRANCH   1  10
TORSDOF 6
ENDMDL
MODEL 8
REMARK VINA RESULT:      -3.4      4.535      5.836
REMARK  6 active torsions:
REMARK  status: ('A' for Active; 'I' for Inactive)
REMARK    1  A    between atoms: N_1  and  C_4 
REMARK    2  A    between atoms: C_4  and  C_6 
REMARK    3  A    between atoms: C_6  and  C_9 
REMARK    4  A    between atoms: N_7  and  C_9 
REMARK    5  A    between atoms: N_7  and  C_11 
REMARK    6  A    between atoms: C_8  and  C_11 
ROOT
HETATM    1  N   UNL     1      60.249   8.391   3.409  1.00  0.00    -0.072 N 
HETATM    2  H   UNL     1      59.735   8.638   2.563  1.00  0.00     0.277 HD
HETATM    3  H   UNL     1      59.872   8.866   4.229  1.00  0.00     0.277 HD
ENDROOT
BRANCH   1   4
HETATM    4  C   UNL     1      61.648   8.813   3.252  1.00  0.00     0.245 C 
BRANCH   4   5
HETATM    5  C   UNL     1      61.885  10.209   3.832  1.00  0.00     0.131 C 
BRANCH   5   6
HETATM    6  C   UNL     1      61.822  11.257   2.733  1.00  0.00    -0.076 C 
BRANCH   6   7
HETATM    7  N   UNL     1      61.769  12.126   1.822  1.00  0.00    -0.370 N 
ATOM      8  HN2 UNL     1      61.880  11.413   2.542  1.00  0.00     0.165 HD
ATOM      9  HN1 UNL     1      61.724  12.830   1.085  1.00  0.00     0.165 HD
ENDBRANCH   6   7
ENDBRANCH   5   6
ENDBRANCH   4   5
ENDBRANCH   1   4
BRANCH   1  10
HETATM   10  C   UNL     1      60.121   6.936   3.634  1.00  0.00     0.264 C 
BRANCH  10  11
HETATM   11  C   UNL     1      58.730   6.471   4.108  1.00  0.00     0.147 C 
HETATM   12  O   UNL     1      58.837   5.779   5.367  1.00  0.00    -0.384 OA
HETATM   13  C   UNL     1      57.769   6.210   6.216  1.00  0.00     0.168 C 
HETATM   14  C   UNL     1      56.833   7.060   5.379  1.00  0.00     0.029 C 
HETATM   15  C   UNL     1      57.754   7.618   4.322  1.00  0.00     0.036 C 
ENDBRANCH  10  11
ENDBRANCH   1  10
TORSDOF 6
ENDMDL
MODEL 9
REMARK VINA RESULT:      -3.3      4.024      6.186
REMARK  6 active torsions:
REMARK  status: ('A' for Active; 'I' for Inactive)
REMARK    1  A    between atoms: N_1  and  C_4 
REMARK    2  A    between atoms: C_4  and  C_6 
REMARK    3  A    between atoms: C_6  and  C_9 
REMARK    4  A    between atoms: N_7  and  C_9 
REMARK    5  A    between atoms: N_7  and  C_11 
REMARK    6  A    between atoms: C_8  and  C_11 
ROOT
HETATM    1  N   UNL     1      64.192   6.632   6.655  1.00  0.00    -0.072 N 
HETATM    2  H   UNL     1      63.350   6.915   7.157  1.00  0.00     0.277 HD
HETATM    3  H   UNL     1      65.037   6.896   7.161  1.00  0.00     0.277 HD
ENDROOT
BRANCH   1   4
HETATM    4  C   UNL     1      64.218   7.314   5.353  1.00  0.00     0.245 C 
BRANCH   4   5
HETATM    5  C   UNL     1      65.633   7.751   4.974  1.00  0.00     0.131 C 
BRANCH   5   6
HETATM    6  C   UNL     1      66.392   8.217   6.206  1.00  0.00    -0.076 C 
BRANCH   6   7
HETATM    7  N   UNL     1      67.019   8.604   7.229  1.00  0.00    -0.370 N 
ATOM      8  HN2 UNL     1      66.568   8.251   6.385  1.00  0.00     0.165 HD
ATOM      9  HN1 UNL     1      67.526   8.918   8.056  1.00  0.00     0.165 HD
ENDBRANCH   6   7
ENDBRANCH   5   6
ENDBRANCH   4   5
ENDBRANCH   1   4
BRANCH   1  10
HETATM   10  C   UNL     1      64.190   5.160   6.521  1.00  0.00     0.264 C 
BRANCH  10  11
HETATM   11  C   UNL     1      65.472   4.461   7.016  1.00  0.00     0.147 C 
HETATM   12  O   UNL     1      66.449   4.403   5.959  1.00  0.00    -0.384 OA
HETATM   13  C   UNL     1      67.731   4.725   6.507  1.00  0.00     0.168 C 
HETATM   14  C   UNL     1      67.582   4.791   8.014  1.00  0.00     0.029 C 
HETATM   15  C   UNL     1      66.133   5.176   8.184  1.00  0.00     0.036 C 
ENDBRANCH  10  11
ENDBRANCH   1  10
TORSDOF 6
ENDMDL
