MODEL 1
REMARK VINA RESULT:      -5.9      0.000      0.000
REMARK  1 active torsions:
REMARK  status: ('A' for Active; 'I' for Inactive)
REMARK    1  A    between atoms: N_3  and  O_6 
ROOT
HETATM    1  C   UNL     1      62.445   9.327   3.845  1.00  0.00    -0.005 A 
HETATM    2  C   UNL     1      62.766   8.271   4.849  1.00  0.00     0.042 C 
HETATM    3  N   UNL     1      63.072   8.615   6.068  1.00  0.00    -0.273 N 
ATOM      4  HN  UNL     1      63.110   9.581   6.394  1.00  0.00     0.194 HD
HETATM    5  C   UNL     1      62.394   9.005   2.477  1.00  0.00    -0.046 A 
HETATM    6  C   UNL     1      62.687   6.837   4.354  1.00  0.00     0.060 C 
HETATM    7  C   UNL     1      63.370   6.740   3.000  1.00  0.00     0.011 C 
HETATM    8  C   UNL     1      62.191  10.639   4.269  1.00  0.00     0.014 A 
HETATM    9  C   UNL     1      62.647   7.607   1.976  1.00  0.00     0.040 C 
HETATM   10  C   UNL     1      62.057  10.008   1.554  1.00  0.00     0.008 A 
HETATM   11  C   UNL     1      61.866  11.625   3.341  1.00  0.00     0.001 A 
HETATM   12  C   UNL     1      61.795  11.310   1.984  1.00  0.00     0.001 A 
ENDROOT
BRANCH   3  13
HETATM   13  O   UNL     1      63.344   7.508   6.875  1.00  0.00    -0.290 OA
HETATM   14  H   UNL     1      64.112   6.994   6.722  1.00  0.00     0.244 HD
ENDBRANCH   3  13
TORSDOF 1
ENDMDL
MODEL 2
REMARK VINA RESULT:      -5.6      2.239      3.380
REMARK  1 active torsions:
REMARK  status: ('A' for Active; 'I' for Inactive)
REMARK    1  A    between atoms: N_3  and  O_6 
ROOT
HETATM    1  C   UNL     1      62.376   9.116   2.684  1.00  0.00    -0.005 A 
HETATM    2  C   UNL     1      62.355  10.173   3.737  1.00  0.00     0.042 C 
HETATM    3  N   UNL     1      61.923  11.366   3.442  1.00  0.00    -0.273 N 
ATOM      4  HN  UNL     1      61.588  11.637   2.517  1.00  0.00     0.194 HD
HETATM    5  C   UNL     1      63.092   7.925   2.895  1.00  0.00    -0.046 A 
HETATM    6  C   UNL     1      62.839   9.749   5.113  1.00  0.00     0.060 C 
HETATM    7  C   UNL     1      64.117   8.939   4.964  1.00  0.00     0.011 C 
HETATM    8  C   UNL     1      61.675   9.312   1.485  1.00  0.00     0.014 A 
HETATM    9  C   UNL     1      63.849   7.665   4.171  1.00  0.00     0.040 C 
HETATM   10  C   UNL     1      63.068   6.931   1.904  1.00  0.00     0.008 A 
HETATM   11  C   UNL     1      61.667   8.320   0.508  1.00  0.00     0.001 A 
HETATM   12  C   UNL     1      62.360   7.128   0.717  1.00  0.00     0.001 A 
ENDROOT
BRANCH   3  13
HETATM   13  O   UNL     1      61.972  12.230   4.538  1.00  0.00    -0.290 OA
HETATM   14  H   UNL     1      62.544  12.042   5.256  1.00  0.00     0.244 HD
ENDBRANCH   3  13
TORSDOF 1
ENDMDL
MODEL 3
REMARK VINA RESULT:      -5.1      0.998      3.022
REMARK  1 active torsions:
REMARK  status: ('A' for Active; 'I' for Inactive)
REMARK    1  A    between atoms: N_3  and  O_6 
ROOT
HETATM    1  C   UNL     1      62.536   8.349   3.025  1.00  0.00    -0.005 A 
HETATM    2  C   UNL     1      62.690   8.648   4.479  1.00  0.00     0.042 C 
HETATM    3  N   UNL     1      62.719   7.668   5.337  1.00  0.00    -0.273 N 
ATOM      4  HN  UNL     1      62.642   6.684   5.080  1.00  0.00     0.194 HD
HETATM    5  C   UNL     1      62.218   9.381   2.125  1.00  0.00    -0.046 A 
HETATM    6  C   UNL     1      62.823  10.117   4.846  1.00  0.00     0.060 C 
HETATM    7  C   UNL     1      61.784  10.917   4.077  1.00  0.00     0.011 C 
HETATM    8  C   UNL     1      62.713   7.039   2.560  1.00  0.00     0.014 A 
HETATM    9  C   UNL     1      62.030  10.806   2.576  1.00  0.00     0.040 C 
HETATM   10  C   UNL     1      62.112   9.082   0.757  1.00  0.00     0.008 A 
HETATM   11  C   UNL     1      62.597   6.756   1.201  1.00  0.00     0.001 A 
HETATM   12  C   UNL     1      62.300   7.777   0.299  1.00  0.00     0.001 A 
ENDROOT
BRANCH   3  13
HETATM   13  O   UNL     1      62.868   8.121   6.650  1.00  0.00    -0.290 OA
HETATM   14  H   UNL     1      62.155   8.553   7.079  1.00  0.00     0.244 HD
ENDBRANCH   3  13
TORSDOF 1
ENDMDL
MODEL 4
REMARK VINA RESULT:      -5.1      2.049      2.821
REMARK  1 active torsions:
REMARK  status: ('A' for Active; 'I' for Inactive)
REMARK    1  A    between atoms: N_3  and  O_6 
ROOT
HETATM    1  C   UNL     1      62.901   8.760   3.307  1.00  0.00    -0.005 A 
HETATM    2  C   UNL     1      63.162   7.469   2.604  1.00  0.00     0.042 C 
HETATM    3  N   UNL     1      64.063   6.654   3.073  1.00  0.00    -0.273 N 
ATOM      4  HN  UNL     1      64.619   6.838   3.908  1.00  0.00     0.194 HD
HETATM    5  C   UNL     1      62.154   9.768   2.673  1.00  0.00    -0.046 A 
HETATM    6  C   UNL     1      62.314   7.200   1.373  1.00  0.00     0.060 C 
HETATM    7  C   UNL     1      62.260   8.458   0.521  1.00  0.00     0.011 C 
HETATM    8  C   UNL     1      63.400   8.962   4.601  1.00  0.00     0.014 A 
HETATM    9  C   UNL     1      61.588   9.591   1.288  1.00  0.00     0.040 C 
HETATM   10  C   UNL     1      61.893  10.960   3.367  1.00  0.00     0.008 A 
HETATM   11  C   UNL     1      63.139  10.154   5.274  1.00  0.00     0.001 A 
HETATM   12  C   UNL     1      62.383  11.151   4.660  1.00  0.00     0.001 A 
ENDROOT
BRANCH   3  13
HETATM   13  O   UNL     1      64.180   5.497   2.298  1.00  0.00    -0.290 OA
HETATM   14  H   UNL     1      64.901   4.914   2.434  1.00  0.00     0.244 HD
ENDBRANCH   3  13
TORSDOF 1
ENDMDL
MODEL 5
REMARK VINA RESULT:      -5.0      2.196      3.740
REMARK  1 active torsions:
REMARK  status: ('A' for Active; 'I' for Inactive)
REMARK    1  A    between atoms: N_3  and  O_6 
ROOT
HETATM    1  C   UNL     1      63.500   8.982   4.135  1.00  0.00    -0.005 A 
HETATM    2  C   UNL     1      62.720  10.244   3.973  1.00  0.00     0.042 C 
HETATM    3  N   UNL     1      62.688  11.108   4.948  1.00  0.00    -0.273 N 
ATOM      4  HN  UNL     1      63.171  10.981   5.837  1.00  0.00     0.194 HD
HETATM    5  C   UNL     1      63.319   7.923   3.228  1.00  0.00    -0.046 A 
HETATM    6  C   UNL     1      62.023  10.428   2.636  1.00  0.00     0.060 C 
HETATM    7  C   UNL     1      61.332   9.130   2.253  1.00  0.00     0.011 C 
HETATM    8  C   UNL     1      64.415   8.858   5.189  1.00  0.00     0.014 A 
HETATM    9  C   UNL     1      62.357   8.015   2.073  1.00  0.00     0.040 C 
HETATM   10  C   UNL     1      64.089   6.758   3.380  1.00  0.00     0.008 A 
HETATM   11  C   UNL     1      65.166   7.693   5.332  1.00  0.00     0.001 A 
HETATM   12  C   UNL     1      65.006   6.644   4.426  1.00  0.00     0.001 A 
ENDROOT
BRANCH   3  13
HETATM   13  O   UNL     1      61.916  12.229   4.632  1.00  0.00    -0.290 OA
HETATM   14  H   UNL     1      62.229  13.087   4.842  1.00  0.00     0.244 HD
ENDBRANCH   3  13
TORSDOF 1
ENDMDL
MODEL 6
REMARK VINA RESULT:      -4.8      5.048      6.872
REMARK  1 active torsions:
REMARK  status: ('A' for Active; 'I' for Inactive)
REMARK    1  A    between atoms: N_3  and  O_6 
ROOT
HETATM    1  C   UNL     1      66.897   6.530   6.873  1.00  0.00    -0.005 A 
HETATM    2  C   UNL     1      66.295   7.416   5.834  1.00  0.00     0.042 C 
HETATM    3  N   UNL     1      65.553   8.422   6.201  1.00  0.00    -0.273 N 
ATOM      4  HN  UNL     1      65.348   8.655   7.173  1.00  0.00     0.194 HD
HETATM    5  C   UNL     1      67.453   5.292   6.506  1.00  0.00    -0.046 A 
HETATM    6  C   UNL     1      66.623   7.069   4.393  1.00  0.00     0.060 C 
HETATM    7  C   UNL     1      66.478   5.568   4.197  1.00  0.00     0.011 C 
HETATM    8  C   UNL     1      66.911   6.937   8.215  1.00  0.00     0.014 A 
HETATM    9  C   UNL     1      67.473   4.818   5.076  1.00  0.00     0.040 C 
HETATM   10  C   UNL     1      68.045   4.491   7.495  1.00  0.00     0.008 A 
HETATM   11  C   UNL     1      67.494   6.127   9.187  1.00  0.00     0.001 A 
HETATM   12  C   UNL     1      68.065   4.906   8.828  1.00  0.00     0.001 A 
ENDROOT
BRANCH   3  13
HETATM   13  O   UNL     1      65.070   9.145   5.107  1.00  0.00    -0.290 OA
HETATM   14  H   UNL     1      64.147   9.207   4.958  1.00  0.00     0.244 HD
ENDBRANCH   3  13
TORSDOF 1
ENDMDL
MODEL 7
REMARK VINA RESULT:      -4.8      2.489      3.140
REMARK  1 active torsions:
REMARK  status: ('A' for Active; 'I' for Inactive)
REMARK    1  A    between atoms: N_3  and  O_6 
ROOT
HETATM    1  C   UNL     1      64.613   8.028   4.759  1.00  0.00    -0.005 A 
HETATM    2  C   UNL     1      65.758   7.706   5.660  1.00  0.00     0.042 C 
HETATM    3  N   UNL     1      66.161   8.591   6.527  1.00  0.00    -0.273 N 
ATOM      4  HN  UNL     1      65.739   9.513   6.639  1.00  0.00     0.194 HD
HETATM    5  C   UNL     1      64.349   7.219   3.640  1.00  0.00    -0.046 A 
HETATM    6  C   UNL     1      66.365   6.323   5.496  1.00  0.00     0.060 C 
HETATM    7  C   UNL     1      66.540   6.030   4.015  1.00  0.00     0.011 C 
HETATM    8  C   UNL     1      63.800   9.136   5.034  1.00  0.00     0.014 A 
HETATM    9  C   UNL     1      65.187   6.011   3.312  1.00  0.00     0.040 C 
HETATM   10  C   UNL     1      63.245   7.521   2.827  1.00  0.00     0.008 A 
HETATM   11  C   UNL     1      62.713   9.429   4.212  1.00  0.00     0.001 A 
HETATM   12  C   UNL     1      62.433   8.620   3.111  1.00  0.00     0.001 A 
ENDROOT
BRANCH   3  13
HETATM   13  O   UNL     1      67.239   8.130   7.287  1.00  0.00    -0.290 OA
HETATM   14  H   UNL     1      67.275   8.311   8.206  1.00  0.00     0.244 HD
ENDBRANCH   3  13
TORSDOF 1
ENDMDL
MODEL 8
REMARK VINA RESULT:      -4.7      2.267      2.978
REMARK  1 active torsions:
REMARK  status: ('A' for Active; 'I' for Inactive)
REMARK    1  A    between atoms: N_3  and  O_6 
ROOT
HETATM    1  C   UNL     1      62.716   8.734   2.804  1.00  0.00    -0.005 A 
HETATM    2  C   UNL     1      63.217   7.339   2.630  1.00  0.00     0.042 C 
HETATM    3  N   UNL     1      62.984   6.707   1.514  1.00  0.00    -0.273 N 
ATOM      4  HN  UNL     1      62.470   7.108   0.729  1.00  0.00     0.194 HD
HETATM    5  C   UNL     1      62.703   9.323   4.080  1.00  0.00    -0.046 A 
HETATM    6  C   UNL     1      63.996   6.761   3.799  1.00  0.00     0.060 C 
HETATM    7  C   UNL     1      63.263   7.082   5.092  1.00  0.00     0.011 C 
HETATM    8  C   UNL     1      62.263   9.456   1.691  1.00  0.00     0.014 A 
HETATM    9  C   UNL     1      63.192   8.590   5.303  1.00  0.00     0.040 C 
HETATM   10  C   UNL     1      62.260  10.648   4.214  1.00  0.00     0.008 A 
HETATM   11  C   UNL     1      61.818  10.768   1.841  1.00  0.00     0.001 A 
HETATM   12  C   UNL     1      61.820  11.366   3.100  1.00  0.00     0.001 A 
ENDROOT
BRANCH   3  13
HETATM   13  O   UNL     1      63.519   5.417   1.518  1.00  0.00    -0.290 OA
HETATM   14  H   UNL     1      63.279   4.813   2.193  1.00  0.00     0.244 HD
ENDBRANCH   3  13
TORSDOF 1
ENDMDL
MODEL 9
REMARK VINA RESULT:      -4.6      2.684      4.491
REMARK  1 active torsions:
REMARK  status: ('A' for Active; 'I' for Inactive)
REMARK    1  A    between atoms: N_3  and  O_6 
ROOT
HETATM    1  C   UNL     1      63.365   8.255   3.624  1.00  0.00    -0.005 A 
HETATM    2  C   UNL     1      62.133   8.799   2.980  1.00  0.00     0.042 C 
HETATM    3  N   UNL     1      61.771   8.354   1.810  1.00  0.00    -0.273 N 
ATOM      4  HN  UNL     1      62.282   7.642   1.288  1.00  0.00     0.194 HD
HETATM    5  C   UNL     1      63.927   8.911   4.733  1.00  0.00    -0.046 A 
HETATM    6  C   UNL     1      61.373   9.845   3.777  1.00  0.00     0.060 C 
HETATM    7  C   UNL     1      62.361  10.849   4.349  1.00  0.00     0.011 C 
HETATM    8  C   UNL     1      63.957   7.087   3.123  1.00  0.00     0.014 A 
HETATM    9  C   UNL     1      63.319  10.161   5.315  1.00  0.00     0.040 C 
HETATM   10  C   UNL     1      65.065   8.361   5.344  1.00  0.00     0.008 A 
HETATM   11  C   UNL     1      65.091   6.559   3.734  1.00  0.00     0.001 A 
HETATM   12  C   UNL     1      65.644   7.192   4.846  1.00  0.00     0.001 A 
ENDROOT
BRANCH   3  13
HETATM   13  O   UNL     1      60.601   8.967   1.354  1.00  0.00    -0.290 OA
HETATM   14  H   UNL     1      60.074   8.544   0.705  1.00  0.00     0.244 HD
ENDBRANCH   3  13
TORSDOF 1
ENDMDL
