MODEL 1
REMARK VINA RESULT:      -5.4      0.000      0.000
REMARK  2 active torsions:
REMARK  status: ('A' for Active; 'I' for Inactive)
REMARK    1  A    between atoms: C_1  and  C_2 
REMARK    2  A    between atoms: C_1  and  O_9 
ROOT
HETATM    1  C   UNL     1      62.892   8.845   4.735  1.00  0.00     0.040 A 
HETATM    2  C   UNL     1      62.648   8.499   3.399  1.00  0.00     0.025 A 
HETATM    3  C   UNL     1      62.243   9.467   2.458  1.00  0.00    -0.055 A 
HETATM    4  C   UNL     1      62.050  10.799   2.877  1.00  0.00    -0.056 A 
HETATM    5  C   UNL     1      62.725  10.173   5.133  1.00  0.00     0.018 A 
HETATM    6  C   UNL     1      62.299  11.136   4.217  1.00  0.00     0.008 A 
HETATM    7  C   UNL     1      62.039   9.052   1.025  1.00  0.00     0.049 C 
HETATM    8  C   UNL     1      61.566  11.893   1.962  1.00  0.00     0.049 C 
ENDROOT
BRANCH   1   9
HETATM    9  C   UNL     1      63.336   7.861   5.764  1.00  0.00     0.292 C 
HETATM   10  O   UNL     1      62.750   7.690   6.820  1.00  0.00    -0.259 OA
BRANCH   9  11
HETATM   11  O   UNL     1      64.447   7.197   5.356  1.00  0.00    -0.323 OA
HETATM   12  C   UNL     1      65.688   7.839   5.670  1.00  0.00     0.213 C 
ENDBRANCH   9  11
ENDBRANCH   1   9
TORSDOF 2
ENDMDL
MODEL 2
REMARK VINA RESULT:      -4.9      1.129      2.285
REMARK  2 active torsions:
REMARK  status: ('A' for Active; 'I' for Inactive)
REMARK    1  A    between atoms: C_1  and  C_2 
REMARK    2  A    between atoms: C_1  and  O_9 
ROOT
HETATM    1  C   UNL     1      63.654   8.315   4.641  1.00  0.00     0.040 A 
HETATM    2  C   UNL     1      63.052   9.538   4.315  1.00  0.00     0.025 A 
HETATM    3  C   UNL     1      62.421   9.730   3.068  1.00  0.00    -0.055 A 
HETATM    4  C   UNL     1      62.425   8.684   2.124  1.00  0.00    -0.056 A 
HETATM    5  C   UNL     1      63.626   7.275   3.708  1.00  0.00     0.018 A 
HETATM    6  C   UNL     1      63.028   7.461   2.461  1.00  0.00     0.008 A 
HETATM    7  C   UNL     1      61.750  11.047   2.785  1.00  0.00     0.049 C 
HETATM    8  C   UNL     1      61.827   8.809   0.747  1.00  0.00     0.049 C 
ENDROOT
BRANCH   1   9
HETATM    9  C   UNL     1      64.319   8.058   5.950  1.00  0.00     0.292 C 
HETATM   10  O   UNL     1      63.862   7.302   6.793  1.00  0.00    -0.259 OA
BRANCH   9  11
HETATM   11  O   UNL     1      65.477   8.757   6.055  1.00  0.00    -0.323 OA
HETATM   12  C   UNL     1      66.670   7.965   6.014  1.00  0.00     0.213 C 
ENDBRANCH   9  11
ENDBRANCH   1   9
TORSDOF 2
ENDMDL
MODEL 3
REMARK VINA RESULT:      -4.6      1.560      2.143
REMARK  2 active torsions:
REMARK  status: ('A' for Active; 'I' for Inactive)
REMARK    1  A    between atoms: C_1  and  C_2 
REMARK    2  A    between atoms: C_1  and  O_9 
ROOT
HETATM    1  C   UNL     1      63.721   8.464   4.441  1.00  0.00     0.040 A 
HETATM    2  C   UNL     1      63.752   7.430   3.496  1.00  0.00     0.025 A 
HETATM    3  C   UNL     1      62.974   7.493   2.321  1.00  0.00    -0.055 A 
HETATM    4  C   UNL     1      62.129   8.601   2.112  1.00  0.00    -0.056 A 
HETATM    5  C   UNL     1      62.902   9.572   4.209  1.00  0.00     0.018 A 
HETATM    6  C   UNL     1      62.108   9.634   3.064  1.00  0.00     0.008 A 
HETATM    7  C   UNL     1      63.077   6.378   1.316  1.00  0.00     0.049 C 
HETATM    8  C   UNL     1      61.220   8.735   0.918  1.00  0.00     0.049 C 
ENDROOT
BRANCH   1   9
HETATM    9  C   UNL     1      64.536   8.451   5.690  1.00  0.00     0.292 C 
HETATM   10  O   UNL     1      65.453   9.230   5.896  1.00  0.00    -0.259 OA
BRANCH   9  11
HETATM   11  O   UNL     1      64.110   7.483   6.540  1.00  0.00    -0.323 OA
HETATM   12  C   UNL     1      65.141   6.637   7.062  1.00  0.00     0.213 C 
ENDBRANCH   9  11
ENDBRANCH   1   9
TORSDOF 2
ENDMDL
MODEL 4
REMARK VINA RESULT:      -4.4      1.915      3.430
REMARK  2 active torsions:
REMARK  status: ('A' for Active; 'I' for Inactive)
REMARK    1  A    between atoms: C_1  and  C_2 
REMARK    2  A    between atoms: C_1  and  O_9 
ROOT
HETATM    1  C   UNL     1      63.642   8.392   3.956  1.00  0.00     0.040 A 
HETATM    2  C   UNL     1      62.733   8.874   3.005  1.00  0.00     0.025 A 
HETATM    3  C   UNL     1      62.413   8.121   1.856  1.00  0.00    -0.055 A 
HETATM    4  C   UNL     1      63.044   6.878   1.648  1.00  0.00    -0.056 A 
HETATM    5  C   UNL     1      64.240   7.146   3.754  1.00  0.00     0.018 A 
HETATM    6  C   UNL     1      63.952   6.403   2.608  1.00  0.00     0.008 A 
HETATM    7  C   UNL     1      61.396   8.663   0.888  1.00  0.00     0.049 C 
HETATM    8  C   UNL     1      62.812   6.026   0.427  1.00  0.00     0.049 C 
ENDROOT
BRANCH   1   9
HETATM    9  C   UNL     1      64.001   9.143   5.194  1.00  0.00     0.292 C 
HETATM   10  O   UNL     1      65.139   9.202   5.632  1.00  0.00    -0.259 OA
BRANCH   9  11
HETATM   11  O   UNL     1      62.910   9.743   5.734  1.00  0.00    -0.323 OA
HETATM   12  C   UNL     1      62.948  11.174   5.746  1.00  0.00     0.213 C 
ENDBRANCH   9  11
ENDBRANCH   1   9
TORSDOF 2
ENDMDL
MODEL 5
REMARK VINA RESULT:      -4.4      1.733      2.899
REMARK  2 active torsions:
REMARK  status: ('A' for Active; 'I' for Inactive)
REMARK    1  A    between atoms: C_1  and  C_2 
REMARK    2  A    between atoms: C_1  and  O_9 
ROOT
HETATM    1  C   UNL     1      62.774   7.842   2.770  1.00  0.00     0.040 A 
HETATM    2  C   UNL     1      62.812   8.769   3.820  1.00  0.00     0.025 A 
HETATM    3  C   UNL     1      62.414  10.108   3.624  1.00  0.00    -0.055 A 
HETATM    4  C   UNL     1      62.003  10.526   2.343  1.00  0.00    -0.056 A 
HETATM    5  C   UNL     1      62.337   8.261   1.510  1.00  0.00     0.018 A 
HETATM    6  C   UNL     1      61.966   9.589   1.298  1.00  0.00     0.008 A 
HETATM    7  C   UNL     1      62.431  11.053   4.796  1.00  0.00     0.049 C 
HETATM    8  C   UNL     1      61.614  11.945   2.020  1.00  0.00     0.049 C 
ENDROOT
BRANCH   1   9
HETATM    9  C   UNL     1      63.168   6.413   2.930  1.00  0.00     0.292 C 
HETATM   10  O   UNL     1      62.718   5.515   2.236  1.00  0.00    -0.259 OA
BRANCH   9  11
HETATM   11  O   UNL     1      64.082   6.267   3.922  1.00  0.00    -0.323 OA
HETATM   12  C   UNL     1      65.418   5.998   3.481  1.00  0.00     0.213 C 
ENDBRANCH   9  11
ENDBRANCH   1   9
TORSDOF 2
ENDMDL
MODEL 6
REMARK VINA RESULT:      -4.4      2.253      3.307
REMARK  2 active torsions:
REMARK  status: ('A' for Active; 'I' for Inactive)
REMARK    1  A    between atoms: C_1  and  C_2 
REMARK    2  A    between atoms: C_1  and  O_9 
ROOT
HETATM    1  C   UNL     1      61.838   9.550   3.520  1.00  0.00     0.040 A 
HETATM    2  C   UNL     1      61.121   8.374   3.777  1.00  0.00     0.025 A 
HETATM    3  C   UNL     1      60.646   7.565   2.724  1.00  0.00    -0.055 A 
HETATM    4  C   UNL     1      60.870   7.964   1.391  1.00  0.00    -0.056 A 
HETATM    5  C   UNL     1      62.079   9.922   2.195  1.00  0.00     0.018 A 
HETATM    6  C   UNL     1      61.592   9.143   1.144  1.00  0.00     0.008 A 
HETATM    7  C   UNL     1      59.921   6.288   3.054  1.00  0.00     0.049 C 
HETATM    8  C   UNL     1      60.356   7.199   0.200  1.00  0.00     0.049 C 
ENDROOT
BRANCH   1   9
HETATM    9  C   UNL     1      62.374  10.430   4.597  1.00  0.00     0.292 C 
HETATM   10  O   UNL     1      62.200  11.638   4.621  1.00  0.00    -0.259 OA
BRANCH   9  11
HETATM   11  O   UNL     1      63.051   9.707   5.526  1.00  0.00    -0.323 OA
HETATM   12  C   UNL     1      64.286   9.142   5.072  1.00  0.00     0.213 C 
ENDBRANCH   9  11
ENDBRANCH   1   9
TORSDOF 2
ENDMDL
MODEL 7
REMARK VINA RESULT:      -4.3      2.790      3.938
REMARK  2 active torsions:
REMARK  status: ('A' for Active; 'I' for Inactive)
REMARK    1  A    between atoms: C_1  and  C_2 
REMARK    2  A    between atoms: C_1  and  O_9 
ROOT
HETATM    1  C   UNL     1      62.007   8.024   1.840  1.00  0.00     0.040 A 
HETATM    2  C   UNL     1      61.792   9.361   1.481  1.00  0.00     0.025 A 
HETATM    3  C   UNL     1      61.957  10.403   2.417  1.00  0.00    -0.055 A 
HETATM    4  C   UNL     1      62.313  10.088   3.744  1.00  0.00    -0.056 A 
HETATM    5  C   UNL     1      62.387   7.725   3.151  1.00  0.00     0.018 A 
HETATM    6  C   UNL     1      62.529   8.745   4.093  1.00  0.00     0.008 A 
HETATM    7  C   UNL     1      61.758  11.825   1.969  1.00  0.00     0.049 C 
HETATM    8  C   UNL     1      62.459  11.122   4.829  1.00  0.00     0.049 C 
ENDROOT
BRANCH   1   9
HETATM    9  C   UNL     1      61.861   6.889   0.883  1.00  0.00     0.292 C 
HETATM   10  O   UNL     1      60.823   6.262   0.746  1.00  0.00    -0.259 OA
BRANCH   9  11
HETATM   11  O   UNL     1      63.014   6.676   0.200  1.00  0.00    -0.323 OA
HETATM   12  C   UNL     1      63.691   5.455   0.520  1.00  0.00     0.213 C 
ENDBRANCH   9  11
ENDBRANCH   1   9
TORSDOF 2
ENDMDL
MODEL 8
REMARK VINA RESULT:      -4.0      1.565      2.400
REMARK  2 active torsions:
REMARK  status: ('A' for Active; 'I' for Inactive)
REMARK    1  A    between atoms: C_1  and  C_2 
REMARK    2  A    between atoms: C_1  and  O_9 
ROOT
HETATM    1  C   UNL     1      62.269   7.778   4.626  1.00  0.00     0.040 A 
HETATM    2  C   UNL     1      62.582   8.734   3.651  1.00  0.00     0.025 A 
HETATM    3  C   UNL     1      61.795   8.875   2.489  1.00  0.00    -0.055 A 
HETATM    4  C   UNL     1      60.696   8.016   2.292  1.00  0.00    -0.056 A 
HETATM    5  C   UNL     1      61.160   6.950   4.434  1.00  0.00     0.018 A 
HETATM    6  C   UNL     1      60.389   7.062   3.276  1.00  0.00     0.008 A 
HETATM    7  C   UNL     1      62.147   9.948   1.494  1.00  0.00     0.049 C 
HETATM    8  C   UNL     1      59.829   8.049   1.060  1.00  0.00     0.049 C 
ENDROOT
BRANCH   1   9
HETATM    9  C   UNL     1      63.060   7.601   5.877  1.00  0.00     0.292 C 
HETATM   10  O   UNL     1      62.644   7.921   6.980  1.00  0.00    -0.259 OA
BRANCH   9  11
HETATM   11  O   UNL     1      64.267   7.038   5.617  1.00  0.00    -0.323 OA
HETATM   12  C   UNL     1      65.103   6.838   6.762  1.00  0.00     0.213 C 
ENDBRANCH   9  11
ENDBRANCH   1   9
TORSDOF 2
ENDMDL
MODEL 9
REMARK VINA RESULT:      -3.9      2.303      5.155
REMARK  2 active torsions:
REMARK  status: ('A' for Active; 'I' for Inactive)
REMARK    1  A    between atoms: C_1  and  C_2 
REMARK    2  A    between atoms: C_1  and  O_9 
ROOT
HETATM    1  C   UNL     1      64.390   8.114   4.505  1.00  0.00     0.040 A 
HETATM    2  C   UNL     1      65.649   8.115   5.119  1.00  0.00     0.025 A 
HETATM    3  C   UNL     1      66.606   7.122   4.823  1.00  0.00    -0.055 A 
HETATM    4  C   UNL     1      66.275   6.093   3.918  1.00  0.00    -0.056 A 
HETATM    5  C   UNL     1      64.083   7.106   3.588  1.00  0.00     0.018 A 
HETATM    6  C   UNL     1      65.011   6.102   3.306  1.00  0.00     0.008 A 
HETATM    7  C   UNL     1      67.960   7.194   5.475  1.00  0.00     0.049 C 
HETATM    8  C   UNL     1      67.205   4.958   3.580  1.00  0.00     0.049 C 
ENDROOT
BRANCH   1   9
HETATM    9  C   UNL     1      63.352   9.150   4.772  1.00  0.00     0.292 C 
HETATM   10  O   UNL     1      63.061   9.529   5.895  1.00  0.00    -0.259 OA
BRANCH   9  11
HETATM   11  O   UNL     1      62.806   9.604   3.615  1.00  0.00    -0.323 OA
HETATM   12  C   UNL     1      61.376   9.691   3.612  1.00  0.00     0.213 C 
ENDBRANCH   9  11
ENDBRANCH   1   9
TORSDOF 2
ENDMDL
