MODEL 1
REMARK VINA RESULT:      -4.9      0.000      0.000
REMARK  1 active torsions:
REMARK  status: ('A' for Active; 'I' for Inactive)
REMARK    1  A    between atoms: C_7  and  O_10 
ROOT
HETATM    1  N   UNL     1      61.810   8.579   0.525  1.00  0.00    -0.191 NA
HETATM    2  C   UNL     1      62.231   9.606   2.866  1.00  0.00     0.083 A 
HETATM    3  C   UNL     1      61.986   9.053   1.568  1.00  0.00     0.102 C 
HETATM    4  C   UNL     1      61.924  10.941   3.134  1.00  0.00     0.139 A 
HETATM    5  C   UNL     1      62.190  11.508   4.379  1.00  0.00     0.080 A 
HETATM    6  C   UNL     1      62.803   8.821   3.874  1.00  0.00     0.028 A 
HETATM    7  C   UNL     1      62.790  10.726   5.359  1.00  0.00     0.068 A 
HETATM    8  F   UNL     1      61.372  11.713   2.186  1.00  0.00    -0.204 F 
HETATM    9  C   UNL     1      63.089   9.387   5.120  1.00  0.00     0.038 A 
ENDROOT
BRANCH   7  10
HETATM   10  O   UNL     1      63.113  11.236   6.580  1.00  0.00    -0.361 OA
HETATM   11  H   UNL     1      63.382  10.664   7.271  1.00  0.00     0.217 HD
ENDBRANCH   7  10
TORSDOF 1
ENDMDL
MODEL 2
REMARK VINA RESULT:      -4.7      2.975      3.601
REMARK  1 active torsions:
REMARK  status: ('A' for Active; 'I' for Inactive)
REMARK    1  A    between atoms: C_7  and  O_10 
ROOT
HETATM    1  N   UNL     1      63.595   7.539   6.554  1.00  0.00    -0.191 NA
HETATM    2  C   UNL     1      62.807   9.223   4.750  1.00  0.00     0.083 A 
HETATM    3  C   UNL     1      63.249   8.307   5.758  1.00  0.00     0.102 C 
HETATM    4  C   UNL     1      62.613  10.570   5.058  1.00  0.00     0.139 A 
HETATM    5  C   UNL     1      62.147  11.470   4.101  1.00  0.00     0.080 A 
HETATM    6  C   UNL     1      62.544   8.774   3.451  1.00  0.00     0.028 A 
HETATM    7  C   UNL     1      61.857  11.003   2.824  1.00  0.00     0.068 A 
HETATM    8  F   UNL     1      62.862  11.026   6.294  1.00  0.00    -0.204 F 
HETATM    9  C   UNL     1      62.060   9.666   2.490  1.00  0.00     0.038 A 
ENDROOT
BRANCH   7  10
HETATM   10  O   UNL     1      61.359  11.825   1.860  1.00  0.00    -0.361 OA
HETATM   11  H   UNL     1      60.598  12.345   2.033  1.00  0.00     0.217 HD
ENDBRANCH   7  10
TORSDOF 1
ENDMDL
MODEL 3
REMARK VINA RESULT:      -4.6      1.789      2.047
REMARK  1 active torsions:
REMARK  status: ('A' for Active; 'I' for Inactive)
REMARK    1  A    between atoms: C_7  and  O_10 
ROOT
HETATM    1  N   UNL     1      63.005   6.174   1.584  1.00  0.00    -0.191 NA
HETATM    2  C   UNL     1      62.536   8.500   2.625  1.00  0.00     0.083 A 
HETATM    3  C   UNL     1      62.784   7.219   2.034  1.00  0.00     0.102 C 
HETATM    4  C   UNL     1      62.116   9.572   1.835  1.00  0.00     0.139 A 
HETATM    5  C   UNL     1      61.905  10.835   2.385  1.00  0.00     0.080 A 
HETATM    6  C   UNL     1      62.732   8.698   3.996  1.00  0.00     0.028 A 
HETATM    7  C   UNL     1      62.137  11.025   3.742  1.00  0.00     0.068 A 
HETATM    8  F   UNL     1      61.917   9.407   0.519  1.00  0.00    -0.204 F 
HETATM    9  C   UNL     1      62.540   9.966   4.552  1.00  0.00     0.038 A 
ENDROOT
BRANCH   7  10
HETATM   10  O   UNL     1      61.991  12.246   4.326  1.00  0.00    -0.361 OA
HETATM   11  H   UNL     1      62.644  12.907   4.204  1.00  0.00     0.217 HD
ENDBRANCH   7  10
TORSDOF 1
ENDMDL
MODEL 4
REMARK VINA RESULT:      -4.6      3.124      3.836
REMARK  1 active torsions:
REMARK  status: ('A' for Active; 'I' for Inactive)
REMARK    1  A    between atoms: C_7  and  O_10 
ROOT
HETATM    1  N   UNL     1      63.102  11.092   6.308  1.00  0.00    -0.191 NA
HETATM    2  C   UNL     1      62.645  10.030   3.989  1.00  0.00     0.083 A 
HETATM    3  C   UNL     1      62.897  10.635   5.263  1.00  0.00     0.102 C 
HETATM    4  C   UNL     1      62.048  10.765   2.965  1.00  0.00     0.139 A 
HETATM    5  C   UNL     1      61.761  10.184   1.731  1.00  0.00     0.080 A 
HETATM    6  C   UNL     1      62.976   8.689   3.765  1.00  0.00     0.028 A 
HETATM    7  C   UNL     1      62.063   8.842   1.533  1.00  0.00     0.068 A 
HETATM    8  F   UNL     1      61.726  12.053   3.154  1.00  0.00    -0.204 F 
HETATM    9  C   UNL     1      62.675   8.094   2.536  1.00  0.00     0.038 A 
ENDROOT
BRANCH   7  10
HETATM   10  O   UNL     1      61.767   8.208   0.365  1.00  0.00    -0.361 OA
HETATM   11  H   UNL     1      61.224   7.444   0.370  1.00  0.00     0.217 HD
ENDBRANCH   7  10
TORSDOF 1
ENDMDL
MODEL 5
REMARK VINA RESULT:      -4.5      1.998      2.647
REMARK  1 active torsions:
REMARK  status: ('A' for Active; 'I' for Inactive)
REMARK    1  A    between atoms: C_7  and  O_10 
ROOT
HETATM    1  N   UNL     1      62.379   6.706   0.526  1.00  0.00    -0.191 NA
HETATM    2  C   UNL     1      62.303   8.833   2.002  1.00  0.00     0.083 A 
HETATM    3  C   UNL     1      62.357   7.649   1.199  1.00  0.00     0.102 C 
HETATM    4  C   UNL     1      62.601   8.777   3.364  1.00  0.00     0.139 A 
HETATM    5  C   UNL     1      62.519   9.911   4.170  1.00  0.00     0.080 A 
HETATM    6  C   UNL     1      61.931  10.057   1.435  1.00  0.00     0.028 A 
HETATM    7  C   UNL     1      62.114  11.113   3.600  1.00  0.00     0.068 A 
HETATM    8  F   UNL     1      62.964   7.617   3.931  1.00  0.00    -0.204 F 
HETATM    9  C   UNL     1      61.829  11.196   2.239  1.00  0.00     0.038 A 
ENDROOT
BRANCH   7  10
HETATM   10  O   UNL     1      61.973  12.244   4.345  1.00  0.00    -0.361 OA
HETATM   11  H   UNL     1      61.131  12.646   4.433  1.00  0.00     0.217 HD
ENDBRANCH   7  10
TORSDOF 1
ENDMDL
MODEL 6
REMARK VINA RESULT:      -4.5      3.461      4.364
REMARK  1 active torsions:
REMARK  status: ('A' for Active; 'I' for Inactive)
REMARK    1  A    between atoms: C_7  and  O_10 
ROOT
HETATM    1  N   UNL     1      63.214  11.363   6.495  1.00  0.00    -0.191 NA
HETATM    2  C   UNL     1      62.636  10.323   4.194  1.00  0.00     0.083 A 
HETATM    3  C   UNL     1      62.958  10.880   5.473  1.00  0.00     0.102 C 
HETATM    4  C   UNL     1      63.007   9.015   3.880  1.00  0.00     0.139 A 
HETATM    5  C   UNL     1      62.736   8.467   2.627  1.00  0.00     0.080 A 
HETATM    6  C   UNL     1      61.966  11.091   3.235  1.00  0.00     0.028 A 
HETATM    7  C   UNL     1      62.101   9.253   1.673  1.00  0.00     0.068 A 
HETATM    8  F   UNL     1      63.647   8.257   4.783  1.00  0.00    -0.204 F 
HETATM    9  C   UNL     1      61.706  10.555   1.970  1.00  0.00     0.038 A 
ENDROOT
BRANCH   7  10
HETATM   10  O   UNL     1      61.849   8.788   0.418  1.00  0.00    -0.361 OA
HETATM   11  H   UNL     1      60.995   8.886   0.044  1.00  0.00     0.217 HD
ENDBRANCH   7  10
TORSDOF 1
ENDMDL
MODEL 7
REMARK VINA RESULT:      -4.3      3.078      3.799
REMARK  1 active torsions:
REMARK  status: ('A' for Active; 'I' for Inactive)
REMARK    1  A    between atoms: C_7  and  O_10 
ROOT
HETATM    1  N   UNL     1      64.930   7.089   6.208  1.00  0.00    -0.191 NA
HETATM    2  C   UNL     1      63.478   8.724   4.819  1.00  0.00     0.083 A 
HETATM    3  C   UNL     1      64.275   7.806   5.575  1.00  0.00     0.102 C 
HETATM    4  C   UNL     1      63.074   8.407   3.522  1.00  0.00     0.139 A 
HETATM    5  C   UNL     1      62.330   9.303   2.757  1.00  0.00     0.080 A 
HETATM    6  C   UNL     1      63.114   9.960   5.364  1.00  0.00     0.028 A 
HETATM    7  C   UNL     1      62.005  10.541   3.298  1.00  0.00     0.068 A 
HETATM    8  F   UNL     1      63.407   7.227   2.978  1.00  0.00    -0.204 F 
HETATM    9  C   UNL     1      62.382  10.872   4.597  1.00  0.00     0.038 A 
ENDROOT
BRANCH   7  10
HETATM   10  O   UNL     1      61.317  11.474   2.584  1.00  0.00    -0.361 OA
HETATM   11  H   UNL     1      60.434  11.306   2.319  1.00  0.00     0.217 HD
ENDBRANCH   7  10
TORSDOF 1
ENDMDL
MODEL 8
REMARK VINA RESULT:      -3.7      2.849      3.368
REMARK  1 active torsions:
REMARK  status: ('A' for Active; 'I' for Inactive)
REMARK    1  A    between atoms: C_7  and  O_10 
ROOT
HETATM    1  N   UNL     1      62.724   5.309   4.472  1.00  0.00    -0.191 NA
HETATM    2  C   UNL     1      62.586   7.895   4.406  1.00  0.00     0.083 A 
HETATM    3  C   UNL     1      62.681   6.467   4.448  1.00  0.00     0.102 C 
HETATM    4  C   UNL     1      63.482   8.683   5.130  1.00  0.00     0.139 A 
HETATM    5  C   UNL     1      63.383  10.074   5.131  1.00  0.00     0.080 A 
HETATM    6  C   UNL     1      61.580   8.516   3.658  1.00  0.00     0.028 A 
HETATM    7  C   UNL     1      62.358  10.676   4.411  1.00  0.00     0.068 A 
HETATM    8  F   UNL     1      64.457   8.112   5.852  1.00  0.00    -0.204 F 
HETATM    9  C   UNL     1      61.463   9.909   3.668  1.00  0.00     0.038 A 
ENDROOT
BRANCH   7  10
HETATM   10  O   UNL     1      62.185  12.026   4.410  1.00  0.00    -0.361 OA
HETATM   11  H   UNL     1      62.009  12.476   3.607  1.00  0.00     0.217 HD
ENDBRANCH   7  10
TORSDOF 1
ENDMDL
MODEL 9
REMARK VINA RESULT:      -3.6      7.584      8.545
REMARK  1 active torsions:
REMARK  status: ('A' for Active; 'I' for Inactive)
REMARK    1  A    between atoms: C_7  and  O_10 
ROOT
HETATM    1  N   UNL     1      67.590   8.020   5.075  1.00  0.00    -0.191 NA
HETATM    2  C   UNL     1      67.689   6.011   6.708  1.00  0.00     0.083 A 
HETATM    3  C   UNL     1      67.641   7.110   5.792  1.00  0.00     0.102 C 
HETATM    4  C   UNL     1      67.702   4.698   6.236  1.00  0.00     0.139 A 
HETATM    5  C   UNL     1      67.712   3.614   7.113  1.00  0.00     0.080 A 
HETATM    6  C   UNL     1      67.701   6.240   8.089  1.00  0.00     0.028 A 
HETATM    7  C   UNL     1      67.689   3.857   8.481  1.00  0.00     0.068 A 
HETATM    8  F   UNL     1      67.696   4.452   4.918  1.00  0.00    -0.204 F 
HETATM    9  C   UNL     1      67.693   5.159   8.975  1.00  0.00     0.038 A 
ENDROOT
BRANCH   7  10
HETATM   10  O   UNL     1      67.653   2.839   9.386  1.00  0.00    -0.361 OA
HETATM   11  H   UNL     1      66.839   2.586   9.775  1.00  0.00     0.217 HD
ENDBRANCH   7  10
TORSDOF 1
ENDMDL
