MODEL 1
REMARK VINA RESULT:      -5.3      0.000      0.000
REMARK  2 active torsions:
REMARK  status: ('A' for Active; 'I' for Inactive)
REMARK    1  A    between atoms: C_1  and  C_2 
REMARK    2  A    between atoms: C_1  and  O_11 
ROOT
HETATM    1  C   UNL     1      63.936   8.706   4.940  1.00  0.00     0.040 A 
HETATM    2  C   UNL     1      63.810   7.869   3.824  1.00  0.00     0.031 A 
HETATM    3  C   UNL     1      62.875   8.157   2.813  1.00  0.00    -0.008 A 
HETATM    4  N   UNL     1      61.131   9.599   1.976  1.00  0.00    -0.365 N 
ATOM      5  HN  UNL     1      60.538  10.424   2.070  1.00  0.00     0.165 HD
HETATM    6  C   UNL     1      62.046   9.293   2.913  1.00  0.00     0.042 A 
HETATM    7  C   UNL     1      63.123   9.837   5.032  1.00  0.00     0.020 A 
HETATM    8  C   UNL     1      62.191  10.114   4.024  1.00  0.00     0.031 A 
HETATM    9  C   UNL     1      61.020   8.782   0.905  1.00  0.00     0.088 A 
HETATM   10  C   UNL     1      62.735   7.336   1.685  1.00  0.00     0.015 A 
HETATM   11  C   UNL     1      61.793   7.653   0.714  1.00  0.00     0.018 A 
ENDROOT
BRANCH   1  12
HETATM   12  C   UNL     1      64.932   8.340   5.984  1.00  0.00     0.292 C 
HETATM   13  O   UNL     1      66.012   8.901   6.101  1.00  0.00    -0.259 OA
BRANCH  12  14
HETATM   14  O   UNL     1      64.479   7.320   6.751  1.00  0.00    -0.323 OA
HETATM   15  C   UNL     1      65.498   6.486   7.311  1.00  0.00     0.213 C 
ENDBRANCH  12  14
ENDBRANCH   1  12
TORSDOF 2
ENDMDL
MODEL 2
REMARK VINA RESULT:      -5.0      1.402      2.500
REMARK  2 active torsions:
REMARK  status: ('A' for Active; 'I' for Inactive)
REMARK    1  A    between atoms: C_1  and  C_2 
REMARK    2  A    between atoms: C_1  and  O_11 
ROOT
HETATM    1  C   UNL     1      64.336   7.462   5.089  1.00  0.00     0.040 A 
HETATM    2  C   UNL     1      63.739   8.728   5.100  1.00  0.00     0.031 A 
HETATM    3  C   UNL     1      63.043   9.204   3.973  1.00  0.00    -0.008 A 
HETATM    4  N   UNL     1      62.298   8.828   1.708  1.00  0.00    -0.365 N 
ATOM      5  HN  UNL     1      62.240   8.239   0.878  1.00  0.00     0.165 HD
HETATM    6  C   UNL     1      62.942   8.410   2.812  1.00  0.00     0.042 A 
HETATM    7  C   UNL     1      64.225   6.671   3.944  1.00  0.00     0.020 A 
HETATM    8  C   UNL     1      63.536   7.154   2.824  1.00  0.00     0.031 A 
HETATM    9  C   UNL     1      61.727  10.054   1.733  1.00  0.00     0.088 A 
HETATM   10  C   UNL     1      62.434  10.466   3.963  1.00  0.00     0.015 A 
HETATM   11  C   UNL     1      61.764  10.899   2.825  1.00  0.00     0.018 A 
ENDROOT
BRANCH   1  12
HETATM   12  C   UNL     1      65.072   7.022   6.306  1.00  0.00     0.292 C 
HETATM   13  O   UNL     1      64.596   7.080   7.431  1.00  0.00    -0.259 OA
BRANCH  12  14
HETATM   14  O   UNL     1      66.309   6.570   5.989  1.00  0.00    -0.323 OA
HETATM   15  C   UNL     1      67.309   7.587   5.866  1.00  0.00     0.213 C 
ENDBRANCH  12  14
ENDBRANCH   1  12
TORSDOF 2
ENDMDL
MODEL 3
REMARK VINA RESULT:      -4.8      2.948      5.218
REMARK  2 active torsions:
REMARK  status: ('A' for Active; 'I' for Inactive)
REMARK    1  A    between atoms: C_1  and  C_2 
REMARK    2  A    between atoms: C_1  and  O_11 
ROOT
HETATM    1  C   UNL     1      63.185   8.986   3.889  1.00  0.00     0.040 A 
HETATM    2  C   UNL     1      64.213   9.032   4.839  1.00  0.00     0.031 A 
HETATM    3  C   UNL     1      65.088   7.943   5.003  1.00  0.00    -0.008 A 
HETATM    4  N   UNL     1      65.743   5.715   4.344  1.00  0.00    -0.365 N 
ATOM      5  HN  UNL     1      65.615   4.885   3.765  1.00  0.00     0.165 HD
HETATM    6  C   UNL     1      64.938   6.784   4.213  1.00  0.00     0.042 A 
HETATM    7  C   UNL     1      63.045   7.844   3.098  1.00  0.00     0.020 A 
HETATM    8  C   UNL     1      63.917   6.761   3.272  1.00  0.00     0.031 A 
HETATM    9  C   UNL     1      66.730   5.773   5.267  1.00  0.00     0.088 A 
HETATM   10  C   UNL     1      66.126   7.968   5.944  1.00  0.00     0.015 A 
HETATM   11  C   UNL     1      66.962   6.866   6.079  1.00  0.00     0.018 A 
ENDROOT
BRANCH   1  12
HETATM   12  C   UNL     1      62.282  10.164   3.773  1.00  0.00     0.292 C 
HETATM   13  O   UNL     1      62.000  10.884   4.720  1.00  0.00    -0.259 OA
BRANCH  12  14
HETATM   14  O   UNL     1      61.830  10.306   2.504  1.00  0.00    -0.323 OA
HETATM   15  C   UNL     1      61.800  11.653   2.022  1.00  0.00     0.213 C 
ENDBRANCH  12  14
ENDBRANCH   1  12
TORSDOF 2
ENDMDL
MODEL 4
REMARK VINA RESULT:      -4.5      1.835      2.491
REMARK  2 active torsions:
REMARK  status: ('A' for Active; 'I' for Inactive)
REMARK    1  A    between atoms: C_1  and  C_2 
REMARK    2  A    between atoms: C_1  and  O_11 
ROOT
HETATM    1  C   UNL     1      64.910   7.725   5.759  1.00  0.00     0.040 A 
HETATM    2  C   UNL     1      64.441   8.414   4.634  1.00  0.00     0.031 A 
HETATM    3  C   UNL     1      63.120   8.237   4.182  1.00  0.00    -0.008 A 
HETATM    4  N   UNL     1      60.983   7.148   4.454  1.00  0.00    -0.365 N 
ATOM      5  HN  UNL     1      60.371   6.504   4.955  1.00  0.00     0.165 HD
HETATM    6  C   UNL     1      62.249   7.356   4.857  1.00  0.00     0.042 A 
HETATM    7  C   UNL     1      64.043   6.864   6.435  1.00  0.00     0.020 A 
HETATM    8  C   UNL     1      62.731   6.689   5.976  1.00  0.00     0.031 A 
HETATM    9  C   UNL     1      60.546   7.818   3.364  1.00  0.00     0.088 A 
HETATM   10  C   UNL     1      62.628   8.918   3.060  1.00  0.00     0.015 A 
HETATM   11  C   UNL     1      61.319   8.707   2.644  1.00  0.00     0.018 A 
ENDROOT
BRANCH   1  12
HETATM   12  C   UNL     1      66.321   7.943   6.179  1.00  0.00     0.292 C 
HETATM   13  O   UNL     1      66.672   8.882   6.878  1.00  0.00    -0.259 OA
BRANCH  12  14
HETATM   14  O   UNL     1      67.130   6.980   5.676  1.00  0.00    -0.323 OA
HETATM   15  C   UNL     1      67.754   6.144   6.656  1.00  0.00     0.213 C 
ENDBRANCH  12  14
ENDBRANCH   1  12
TORSDOF 2
ENDMDL
MODEL 5
REMARK VINA RESULT:      -4.5      3.149      4.991
REMARK  2 active torsions:
REMARK  status: ('A' for Active; 'I' for Inactive)
REMARK    1  A    between atoms: C_1  and  C_2 
REMARK    2  A    between atoms: C_1  and  O_11 
ROOT
HETATM    1  C   UNL     1      62.374   8.665   3.095  1.00  0.00     0.040 A 
HETATM    2  C   UNL     1      63.372   7.683   3.080  1.00  0.00     0.031 A 
HETATM    3  C   UNL     1      64.376   7.666   4.066  1.00  0.00    -0.008 A 
HETATM    4  N   UNL     1      65.339   8.672   6.038  1.00  0.00    -0.365 N 
ATOM      5  HN  UNL     1      65.333   9.390   6.762  1.00  0.00     0.165 HD
HETATM    6  C   UNL     1      64.392   8.643   5.083  1.00  0.00     0.042 A 
HETATM    7  C   UNL     1      62.383   9.624   4.109  1.00  0.00     0.020 A 
HETATM    8  C   UNL     1      63.389   9.604   5.084  1.00  0.00     0.031 A 
HETATM    9  C   UNL     1      66.297   7.719   6.010  1.00  0.00     0.088 A 
HETATM   10  C   UNL     1      65.383   6.691   4.074  1.00  0.00     0.015 A 
HETATM   11  C   UNL     1      66.360   6.716   5.062  1.00  0.00     0.018 A 
ENDROOT
BRANCH   1  12
HETATM   12  C   UNL     1      61.348   8.639   2.016  1.00  0.00     0.292 C 
HETATM   13  O   UNL     1      61.520   9.155   0.921  1.00  0.00    -0.259 OA
BRANCH  12  14
HETATM   14  O   UNL     1      60.233   7.988   2.422  1.00  0.00    -0.323 OA
HETATM   15  C   UNL     1      59.775   6.962   1.535  1.00  0.00     0.213 C 
ENDBRANCH  12  14
ENDBRANCH   1  12
TORSDOF 2
ENDMDL
MODEL 6
REMARK VINA RESULT:      -4.4      2.860      3.927
REMARK  2 active torsions:
REMARK  status: ('A' for Active; 'I' for Inactive)
REMARK    1  A    between atoms: C_1  and  C_2 
REMARK    2  A    between atoms: C_1  and  O_11 
ROOT
HETATM    1  C   UNL     1      65.242   6.504   3.802  1.00  0.00     0.040 A 
HETATM    2  C   UNL     1      64.110   7.144   3.284  1.00  0.00     0.031 A 
HETATM    3  C   UNL     1      63.623   8.327   3.868  1.00  0.00    -0.008 A 
HETATM    4  N   UNL     1      63.833  10.008   5.589  1.00  0.00    -0.365 N 
ATOM      5  HN  UNL     1      64.314  10.391   6.403  1.00  0.00     0.165 HD
HETATM    6  C   UNL     1      64.270   8.885   4.991  1.00  0.00     0.042 A 
HETATM    7  C   UNL     1      65.889   7.063   4.906  1.00  0.00     0.020 A 
HETATM    8  C   UNL     1      65.396   8.238   5.486  1.00  0.00     0.031 A 
HETATM    9  C   UNL     1      62.737  10.613   5.078  1.00  0.00     0.088 A 
HETATM   10  C   UNL     1      62.494   8.987   3.364  1.00  0.00     0.015 A 
HETATM   11  C   UNL     1      62.043  10.150   3.977  1.00  0.00     0.018 A 
ENDROOT
BRANCH   1  12
HETATM   12  C   UNL     1      65.699   5.246   3.150  1.00  0.00     0.292 C 
HETATM   13  O   UNL     1      64.944   4.492   2.554  1.00  0.00    -0.259 OA
BRANCH  12  14
HETATM   14  O   UNL     1      67.031   5.068   3.319  1.00  0.00    -0.323 OA
HETATM   15  C   UNL     1      67.410   3.779   3.811  1.00  0.00     0.213 C 
ENDBRANCH  12  14
ENDBRANCH   1  12
TORSDOF 2
ENDMDL
MODEL 7
REMARK VINA RESULT:      -4.4      2.237      2.515
REMARK  2 active torsions:
REMARK  status: ('A' for Active; 'I' for Inactive)
REMARK    1  A    between atoms: C_1  and  C_2 
REMARK    2  A    between atoms: C_1  and  O_11 
ROOT
HETATM    1  C   UNL     1      63.869   8.068   5.186  1.00  0.00     0.040 A 
HETATM    2  C   UNL     1      62.900   7.075   5.379  1.00  0.00     0.031 A 
HETATM    3  C   UNL     1      61.646   7.163   4.747  1.00  0.00    -0.008 A 
HETATM    4  N   UNL     1      60.156   8.388   3.297  1.00  0.00    -0.365 N 
ATOM      5  HN  UNL     1      59.958   9.191   2.699  1.00  0.00     0.165 HD
HETATM    6  C   UNL     1      61.345   8.258   3.911  1.00  0.00     0.042 A 
HETATM    7  C   UNL     1      63.575   9.146   4.348  1.00  0.00     0.020 A 
HETATM    8  C   UNL     1      62.322   9.229   3.727  1.00  0.00     0.031 A 
HETATM    9  C   UNL     1      59.230   7.423   3.494  1.00  0.00     0.088 A 
HETATM   10  C   UNL     1      60.664   6.179   4.922  1.00  0.00     0.015 A 
HETATM   11  C   UNL     1      59.435   6.309   4.285  1.00  0.00     0.018 A 
ENDROOT
BRANCH   1  12
HETATM   12  C   UNL     1      65.170   7.927   5.894  1.00  0.00     0.292 C 
HETATM   13  O   UNL     1      65.286   7.356   6.968  1.00  0.00    -0.259 OA
BRANCH  12  14
HETATM   14  O   UNL     1      66.169   8.516   5.194  1.00  0.00    -0.323 OA
HETATM   15  C   UNL     1      67.229   7.638   4.800  1.00  0.00     0.213 C 
ENDBRANCH  12  14
ENDBRANCH   1  12
TORSDOF 2
ENDMDL
MODEL 8
REMARK VINA RESULT:      -4.3      2.056      3.364
REMARK  2 active torsions:
REMARK  status: ('A' for Active; 'I' for Inactive)
REMARK    1  A    between atoms: C_1  and  C_2 
REMARK    2  A    between atoms: C_1  and  O_11 
ROOT
HETATM    1  C   UNL     1      63.526   6.858   3.454  1.00  0.00     0.040 A 
HETATM    2  C   UNL     1      63.411   7.953   4.319  1.00  0.00     0.031 A 
HETATM    3  C   UNL     1      62.831   9.157   3.881  1.00  0.00    -0.008 A 
HETATM    4  N   UNL     1      61.808  10.413   2.091  1.00  0.00    -0.365 N 
ATOM      5  HN  UNL     1      61.476  10.481   1.129  1.00  0.00     0.165 HD
HETATM    6  C   UNL     1      62.359   9.279   2.557  1.00  0.00     0.042 A 
HETATM    7  C   UNL     1      63.048   6.974   2.148  1.00  0.00     0.020 A 
HETATM    8  C   UNL     1      62.476   8.178   1.717  1.00  0.00     0.031 A 
HETATM    9  C   UNL     1      61.705  11.463   2.937  1.00  0.00     0.088 A 
HETATM   10  C   UNL     1      62.701  10.264   4.730  1.00  0.00     0.015 A 
HETATM   11  C   UNL     1      62.129  11.437   4.252  1.00  0.00     0.018 A 
ENDROOT
BRANCH   1  12
HETATM   12  C   UNL     1      64.164   5.617   3.973  1.00  0.00     0.292 C 
HETATM   13  O   UNL     1      63.808   5.065   5.004  1.00  0.00    -0.259 OA
BRANCH  12  14
HETATM   14  O   UNL     1      65.170   5.213   3.161  1.00  0.00    -0.323 OA
HETATM   15  C   UNL     1      66.472   5.671   3.539  1.00  0.00     0.213 C 
ENDBRANCH  12  14
ENDBRANCH   1  12
TORSDOF 2
ENDMDL
MODEL 9
REMARK VINA RESULT:      -4.3      2.154      3.369
REMARK  2 active torsions:
REMARK  status: ('A' for Active; 'I' for Inactive)
REMARK    1  A    between atoms: C_1  and  C_2 
REMARK    2  A    between atoms: C_1  and  O_11 
ROOT
HETATM    1  C   UNL     1      65.219   6.596   6.878  1.00  0.00     0.040 A 
HETATM    2  C   UNL     1      63.896   6.309   6.518  1.00  0.00     0.031 A 
HETATM    3  C   UNL     1      63.250   7.048   5.511  1.00  0.00    -0.008 A 
HETATM    4  N   UNL     1      63.343   8.835   3.891  1.00  0.00    -0.365 N 
ATOM      5  HN  UNL     1      63.849   9.591   3.429  1.00  0.00     0.165 HD
HETATM    6  C   UNL     1      63.926   8.096   4.851  1.00  0.00     0.042 A 
HETATM    7  C   UNL     1      65.892   7.625   6.216  1.00  0.00     0.020 A 
HETATM    8  C   UNL     1      65.239   8.360   5.217  1.00  0.00     0.031 A 
HETATM    9  C   UNL     1      62.065   8.547   3.555  1.00  0.00     0.088 A 
HETATM   10  C   UNL     1      61.928   6.776   5.131  1.00  0.00     0.015 A 
HETATM   11  C   UNL     1      61.325   7.536   4.136  1.00  0.00     0.018 A 
ENDROOT
BRANCH   1  12
HETATM   12  C   UNL     1      65.843   5.789   7.962  1.00  0.00     0.292 C 
HETATM   13  O   UNL     1      65.682   4.583   8.072  1.00  0.00    -0.259 OA
BRANCH  12  14
HETATM   14  O   UNL     1      66.584   6.571   8.783  1.00  0.00    -0.323 OA
HETATM   15  C   UNL     1      67.871   6.044   9.119  1.00  0.00     0.213 C 
ENDBRANCH  12  14
ENDBRANCH   1  12
TORSDOF 2
ENDMDL
