MODEL 1
REMARK VINA RESULT:      -6.1      0.000      0.000
REMARK  4 active torsions:
REMARK  status: ('A' for Active; 'I' for Inactive)
REMARK    1  A    between atoms: N_1  and  C_6 
REMARK    2  A    between atoms: C_2  and  C_5 
REMARK    3  A    between atoms: C_6  and  C_8 
REMARK    4  A    between atoms: C_6  and  C_9 
ROOT
HETATM    1  C   UNL     1      63.210   7.700   4.794  1.00  0.00     0.254 C 
ENDROOT
BRANCH   1   2
HETATM    2  N   UNL     1      62.381   6.469   4.836  1.00  0.00    -0.057 N 
HETATM    3  C   UNL     1      60.972   6.713   5.204  1.00  0.00     0.253 C 
HETATM    4  C   UNL     1      61.007   5.396   6.012  1.00  0.00     0.138 C 
HETATM    5  C   UNL     1      62.536   5.613   6.026  1.00  0.00     0.253 C 
HETATM    6  H   UNL     1      62.641   6.100   3.921  1.00  0.00     0.281 HD
BRANCH   4   7
HETATM    7  C   UNL     1      60.269   5.372   7.357  1.00  0.00     0.180 C 
HETATM    8  O   UNL     1      59.900   6.331   8.028  1.00  0.00    -0.648 OA
HETATM    9  O   UNL     1      60.010   4.125   7.821  1.00  0.00    -0.648 OA
ENDBRANCH   4   7
ENDBRANCH   1   2
BRANCH   1  10
HETATM   10  C   UNL     1      64.740   7.562   4.791  1.00  0.00    -0.023 A 
HETATM   11  C   UNL     1      65.550   8.250   5.713  1.00  0.00     0.009 A 
HETATM   12  C   UNL     1      66.935   8.063   5.738  1.00  0.00     0.001 A 
HETATM   13  C   UNL     1      67.536   7.182   4.843  1.00  0.00     0.000 A 
HETATM   14  C   UNL     1      66.756   6.494   3.919  1.00  0.00     0.001 A 
HETATM   15  C   UNL     1      65.371   6.681   3.893  1.00  0.00     0.009 A 
ENDBRANCH   1  10
BRANCH   1  16
HETATM   16  C   UNL     1      62.718   8.706   3.735  1.00  0.00    -0.023 A 
HETATM   17  C   UNL     1      62.380  10.011   4.133  1.00  0.00     0.009 A 
HETATM   18  C   UNL     1      61.943  10.959   3.203  1.00  0.00     0.001 A 
HETATM   19  C   UNL     1      61.841  10.618   1.856  1.00  0.00     0.000 A 
HETATM   20  C   UNL     1      62.186   9.338   1.439  1.00  0.00     0.001 A 
HETATM   21  C   UNL     1      62.622   8.391   2.368  1.00  0.00     0.009 A 
ENDBRANCH   1  16
TORSDOF 4
ENDMDL
MODEL 2
REMARK VINA RESULT:      -5.8      2.910      5.270
REMARK  4 active torsions:
REMARK  status: ('A' for Active; 'I' for Inactive)
REMARK    1  A    between atoms: N_1  and  C_6 
REMARK    2  A    between atoms: C_2  and  C_5 
REMARK    3  A    between atoms: C_6  and  C_8 
REMARK    4  A    between atoms: C_6  and  C_9 
ROOT
HETATM    1  C   UNL     1      62.829   7.630   4.680  1.00  0.00     0.254 C 
ENDROOT
BRANCH   1   2
HETATM    2  N   UNL     1      63.921   7.940   5.638  1.00  0.00    -0.057 N 
HETATM    3  C   UNL     1      65.057   8.663   5.031  1.00  0.00     0.253 C 
HETATM    4  C   UNL     1      66.001   7.826   5.925  1.00  0.00     0.138 C 
HETATM    5  C   UNL     1      64.824   6.829   5.988  1.00  0.00     0.253 C 
HETATM    6  H   UNL     1      63.345   8.362   6.367  1.00  0.00     0.281 HD
BRANCH   4   7
HETATM    7  C   UNL     1      67.321   7.348   5.304  1.00  0.00     0.180 C 
HETATM    8  O   UNL     1      67.752   6.201   5.247  1.00  0.00    -0.648 OA
HETATM    9  O   UNL     1      68.066   8.342   4.764  1.00  0.00    -0.648 OA
ENDBRANCH   4   7
ENDBRANCH   1   2
BRANCH   1  10
HETATM   10  C   UNL     1      61.557   6.947   5.204  1.00  0.00    -0.023 A 
HETATM   11  C   UNL     1      60.466   6.663   4.364  1.00  0.00     0.009 A 
HETATM   12  C   UNL     1      59.343   5.982   4.844  1.00  0.00     0.001 A 
HETATM   13  C   UNL     1      59.291   5.570   6.173  1.00  0.00     0.000 A 
HETATM   14  C   UNL     1      60.357   5.844   7.024  1.00  0.00     0.001 A 
HETATM   15  C   UNL     1      61.480   6.526   6.546  1.00  0.00     0.009 A 
ENDBRANCH   1  10
BRANCH   1  16
HETATM   16  C   UNL     1      62.508   8.816   3.749  1.00  0.00    -0.023 A 
HETATM   17  C   UNL     1      62.493   8.611   2.358  1.00  0.00     0.009 A 
HETATM   18  C   UNL     1      62.192   9.655   1.479  1.00  0.00     0.001 A 
HETATM   19  C   UNL     1      61.896  10.922   1.976  1.00  0.00     0.000 A 
HETATM   20  C   UNL     1      61.889  11.142   3.349  1.00  0.00     0.001 A 
HETATM   21  C   UNL     1      62.189  10.099   4.227  1.00  0.00     0.009 A 
ENDBRANCH   1  16
TORSDOF 4
ENDMDL
MODEL 3
REMARK VINA RESULT:      -5.8      0.789      4.476
REMARK  4 active torsions:
REMARK  status: ('A' for Active; 'I' for Inactive)
REMARK    1  A    between atoms: N_1  and  C_6 
REMARK    2  A    between atoms: C_2  and  C_5 
REMARK    3  A    between atoms: C_6  and  C_8 
REMARK    4  A    between atoms: C_6  and  C_9 
ROOT
HETATM    1  C   UNL     1      63.111   7.433   4.307  1.00  0.00     0.254 C 
ENDROOT
BRANCH   1   2
HETATM    2  N   UNL     1      62.356   7.145   5.554  1.00  0.00    -0.057 N 
HETATM    3  C   UNL     1      62.787   5.908   6.236  1.00  0.00     0.253 C 
HETATM    4  C   UNL     1      61.304   5.645   6.583  1.00  0.00     0.138 C 
HETATM    5  C   UNL     1      61.007   6.576   5.389  1.00  0.00     0.253 C 
HETATM    6  H   UNL     1      62.461   8.062   5.989  1.00  0.00     0.281 HD
BRANCH   4   7
HETATM    7  C   UNL     1      60.808   4.194   6.509  1.00  0.00     0.180 C 
HETATM    8  O   UNL     1      60.720   3.480   5.514  1.00  0.00    -0.648 OA
HETATM    9  O   UNL     1      60.437   3.677   7.705  1.00  0.00    -0.648 OA
ENDBRANCH   4   7
ENDBRANCH   1   2
BRANCH   1  10
HETATM   10  C   UNL     1      62.695   8.641   3.453  1.00  0.00    -0.023 A 
HETATM   11  C   UNL     1      62.536   8.546   2.059  1.00  0.00     0.009 A 
HETATM   12  C   UNL     1      62.095   9.639   1.307  1.00  0.00     0.001 A 
HETATM   13  C   UNL     1      61.803  10.846   1.935  1.00  0.00     0.000 A 
HETATM   14  C   UNL     1      61.957  10.964   3.313  1.00  0.00     0.001 A 
HETATM   15  C   UNL     1      62.398   9.873   4.066  1.00  0.00     0.009 A 
ENDBRANCH   1  10
BRANCH   1  16
HETATM   16  C   UNL     1      64.637   7.367   4.513  1.00  0.00    -0.023 A 
HETATM   17  C   UNL     1      65.400   6.498   3.713  1.00  0.00     0.009 A 
HETATM   18  C   UNL     1      66.788   6.417   3.857  1.00  0.00     0.001 A 
HETATM   19  C   UNL     1      67.438   7.209   4.801  1.00  0.00     0.000 A 
HETATM   20  C   UNL     1      66.704   8.087   5.591  1.00  0.00     0.001 A 
HETATM   21  C   UNL     1      65.318   8.167   5.447  1.00  0.00     0.009 A 
ENDBRANCH   1  16
TORSDOF 4
ENDMDL
MODEL 4
REMARK VINA RESULT:      -5.7      2.755      5.265
REMARK  4 active torsions:
REMARK  status: ('A' for Active; 'I' for Inactive)
REMARK    1  A    between atoms: N_1  and  C_6 
REMARK    2  A    between atoms: C_2  and  C_5 
REMARK    3  A    between atoms: C_6  and  C_8 
REMARK    4  A    between atoms: C_6  and  C_9 
ROOT
HETATM    1  C   UNL     1      61.833   7.540   4.431  1.00  0.00     0.254 C 
ENDROOT
BRANCH   1   2
HETATM    2  N   UNL     1      63.112   6.812   4.628  1.00  0.00    -0.057 N 
HETATM    3  C   UNL     1      63.618   6.863   6.014  1.00  0.00     0.253 C 
HETATM    4  C   UNL     1      65.046   6.982   5.435  1.00  0.00     0.138 C 
HETATM    5  C   UNL     1      64.334   7.494   4.164  1.00  0.00     0.253 C 
HETATM    6  H   UNL     1      62.836   5.934   4.190  1.00  0.00     0.281 HD
BRANCH   4   7
HETATM    7  C   UNL     1      66.021   7.929   6.148  1.00  0.00     0.180 C 
HETATM    8  O   UNL     1      65.901   9.137   6.326  1.00  0.00    -0.648 OA
HETATM    9  O   UNL     1      67.133   7.317   6.624  1.00  0.00    -0.648 OA
ENDBRANCH   4   7
ENDBRANCH   1   2
BRANCH   1  10
HETATM   10  C   UNL     1      61.827   8.803   3.556  1.00  0.00    -0.023 A 
HETATM   11  C   UNL     1      61.888  10.093   4.112  1.00  0.00     0.009 A 
HETATM   12  C   UNL     1      61.947  11.228   3.298  1.00  0.00     0.001 A 
HETATM   13  C   UNL     1      61.947  11.094   1.912  1.00  0.00     0.000 A 
HETATM   14  C   UNL     1      61.882   9.827   1.339  1.00  0.00     0.001 A 
HETATM   15  C   UNL     1      61.823   8.692   2.152  1.00  0.00     0.009 A 
ENDBRANCH   1  10
BRANCH   1  16
HETATM   16  C   UNL     1      60.663   6.595   4.093  1.00  0.00    -0.023 A 
HETATM   17  C   UNL     1      60.940   5.268   3.719  1.00  0.00     0.009 A 
HETATM   18  C   UNL     1      59.909   4.374   3.418  1.00  0.00     0.001 A 
HETATM   19  C   UNL     1      58.581   4.790   3.491  1.00  0.00     0.000 A 
HETATM   20  C   UNL     1      58.286   6.094   3.874  1.00  0.00     0.001 A 
HETATM   21  C   UNL     1      59.315   6.987   4.175  1.00  0.00     0.009 A 
ENDBRANCH   1  16
TORSDOF 4
ENDMDL
MODEL 5
REMARK VINA RESULT:      -5.6      2.675      5.272
REMARK  4 active torsions:
REMARK  status: ('A' for Active; 'I' for Inactive)
REMARK    1  A    between atoms: N_1  and  C_6 
REMARK    2  A    between atoms: C_2  and  C_5 
REMARK    3  A    between atoms: C_6  and  C_8 
REMARK    4  A    between atoms: C_6  and  C_9 
ROOT
HETATM    1  C   UNL     1      61.631   6.981   3.732  1.00  0.00     0.254 C 
ENDROOT
BRANCH   1   2
HETATM    2  N   UNL     1      62.849   6.554   4.467  1.00  0.00    -0.057 N 
HETATM    3  C   UNL     1      63.121   7.351   5.680  1.00  0.00     0.253 C 
HETATM    4  C   UNL     1      64.626   7.256   5.344  1.00  0.00     0.138 C 
HETATM    5  C   UNL     1      64.141   6.984   3.904  1.00  0.00     0.253 C 
HETATM    6  H   UNL     1      62.634   5.558   4.516  1.00  0.00     0.281 HD
BRANCH   4   7
HETATM    7  C   UNL     1      65.486   8.503   5.593  1.00  0.00     0.180 C 
HETATM    8  O   UNL     1      65.105   9.630   5.892  1.00  0.00    -0.648 OA
HETATM    9  O   UNL     1      66.818   8.288   5.461  1.00  0.00    -0.648 OA
ENDBRANCH   4   7
ENDBRANCH   1   2
BRANCH   1  10
HETATM   10  C   UNL     1      60.258   6.763   4.385  1.00  0.00    -0.023 A 
HETATM   11  C   UNL     1      60.103   5.994   5.553  1.00  0.00     0.009 A 
HETATM   12  C   UNL     1      58.856   5.861   6.170  1.00  0.00     0.001 A 
HETATM   13  C   UNL     1      57.740   6.496   5.632  1.00  0.00     0.000 A 
HETATM   14  C   UNL     1      57.868   7.258   4.475  1.00  0.00     0.001 A 
HETATM   15  C   UNL     1      59.114   7.392   3.856  1.00  0.00     0.009 A 
ENDBRANCH   1  10
BRANCH   1  16
HETATM   16  C   UNL     1      61.770   8.393   3.132  1.00  0.00    -0.023 A 
HETATM   17  C   UNL     1      61.868   8.539   1.736  1.00  0.00     0.009 A 
HETATM   18  C   UNL     1      61.981   9.803   1.150  1.00  0.00     0.001 A 
HETATM   19  C   UNL     1      61.992  10.944   1.949  1.00  0.00     0.000 A 
HETATM   20  C   UNL     1      61.879  10.823   3.330  1.00  0.00     0.001 A 
HETATM   21  C   UNL     1      61.766   9.561   3.915  1.00  0.00     0.009 A 
ENDBRANCH   1  16
TORSDOF 4
ENDMDL
MODEL 6
REMARK VINA RESULT:      -5.3      2.431      4.343
REMARK  4 active torsions:
REMARK  status: ('A' for Active; 'I' for Inactive)
REMARK    1  A    between atoms: N_1  and  C_6 
REMARK    2  A    between atoms: C_2  and  C_5 
REMARK    3  A    between atoms: C_6  and  C_8 
REMARK    4  A    between atoms: C_6  and  C_9 
ROOT
HETATM    1  C   UNL     1      63.226   7.399   4.124  1.00  0.00     0.254 C 
ENDROOT
BRANCH   1   2
HETATM    2  N   UNL     1      64.103   7.560   5.312  1.00  0.00    -0.057 N 
HETATM    3  C   UNL     1      65.334   6.747   5.257  1.00  0.00     0.253 C 
HETATM    4  C   UNL     1      65.178   6.501   6.775  1.00  0.00     0.138 C 
HETATM    5  C   UNL     1      63.693   6.844   6.533  1.00  0.00     0.253 C 
HETATM    6  H   UNL     1      64.133   8.580   5.319  1.00  0.00     0.281 HD
BRANCH   4   7
HETATM    7  C   UNL     1      65.519   5.100   7.301  1.00  0.00     0.180 C 
HETATM    8  O   UNL     1      65.411   4.029   6.713  1.00  0.00    -0.648 OA
HETATM    9  O   UNL     1      65.996   5.090   8.570  1.00  0.00    -0.648 OA
ENDBRANCH   4   7
ENDBRANCH   1   2
BRANCH   1  10
HETATM   10  C   UNL     1      62.108   6.347   4.167  1.00  0.00    -0.023 A 
HETATM   11  C   UNL     1      60.808   6.661   4.601  1.00  0.00     0.009 A 
HETATM   12  C   UNL     1      59.786   5.707   4.573  1.00  0.00     0.001 A 
HETATM   13  C   UNL     1      60.045   4.421   4.106  1.00  0.00     0.000 A 
HETATM   14  C   UNL     1      61.325   4.086   3.675  1.00  0.00     0.001 A 
HETATM   15  C   UNL     1      62.347   5.038   3.705  1.00  0.00     0.009 A 
ENDBRANCH   1  10
BRANCH   1  16
HETATM   16  C   UNL     1      62.731   8.749   3.569  1.00  0.00    -0.023 A 
HETATM   17  C   UNL     1      62.434   8.860   2.199  1.00  0.00     0.009 A 
HETATM   18  C   UNL     1      61.968  10.062   1.658  1.00  0.00     0.001 A 
HETATM   19  C   UNL     1      61.786  11.172   2.479  1.00  0.00     0.000 A 
HETATM   20  C   UNL     1      62.058  11.078   3.840  1.00  0.00     0.001 A 
HETATM   21  C   UNL     1      62.523   9.878   4.380  1.00  0.00     0.009 A 
ENDBRANCH   1  16
TORSDOF 4
ENDMDL
MODEL 7
REMARK VINA RESULT:      -5.2      2.802      5.134
REMARK  4 active torsions:
REMARK  status: ('A' for Active; 'I' for Inactive)
REMARK    1  A    between atoms: N_1  and  C_6 
REMARK    2  A    between atoms: C_2  and  C_5 
REMARK    3  A    between atoms: C_6  and  C_8 
REMARK    4  A    between atoms: C_6  and  C_9 
ROOT
HETATM    1  C   UNL     1      62.098   7.575   3.527  1.00  0.00     0.254 C 
ENDROOT
BRANCH   1   2
HETATM    2  N   UNL     1      60.862   6.805   3.818  1.00  0.00    -0.057 N 
HETATM    3  C   UNL     1      60.445   5.913   2.718  1.00  0.00     0.253 C 
HETATM    4  C   UNL     1      58.979   6.277   3.046  1.00  0.00     0.138 C 
HETATM    5  C   UNL     1      59.589   7.537   3.698  1.00  0.00     0.253 C 
HETATM    6  H   UNL     1      61.143   6.439   4.728  1.00  0.00     0.281 HD
BRANCH   4   7
HETATM    7  C   UNL     1      58.017   6.468   1.865  1.00  0.00     0.180 C 
HETATM    8  O   UNL     1      57.785   7.501   1.244  1.00  0.00    -0.648 OA
HETATM    9  O   UNL     1      57.369   5.336   1.495  1.00  0.00    -0.648 OA
ENDBRANCH   4   7
ENDBRANCH   1   2
BRANCH   1  10
HETATM   10  C   UNL     1      61.977   9.068   3.186  1.00  0.00    -0.023 A 
HETATM   11  C   UNL     1      61.994  10.062   4.182  1.00  0.00     0.009 A 
HETATM   12  C   UNL     1      61.948  11.418   3.848  1.00  0.00     0.001 A 
HETATM   13  C   UNL     1      61.886  11.807   2.513  1.00  0.00     0.000 A 
HETATM   14  C   UNL     1      61.864  10.842   1.511  1.00  0.00     0.001 A 
HETATM   15  C   UNL     1      61.909   9.485   1.843  1.00  0.00     0.009 A 
ENDBRANCH   1  10
BRANCH   1  16
HETATM   16  C   UNL     1      63.216   7.304   4.552  1.00  0.00    -0.023 A 
HETATM   17  C   UNL     1      63.020   6.320   5.538  1.00  0.00     0.009 A 
HETATM   18  C   UNL     1      64.014   6.032   6.477  1.00  0.00     0.001 A 
HETATM   19  C   UNL     1      65.224   6.721   6.446  1.00  0.00     0.000 A 
HETATM   20  C   UNL     1      65.445   7.686   5.470  1.00  0.00     0.001 A 
HETATM   21  C   UNL     1      64.453   7.974   4.531  1.00  0.00     0.009 A 
ENDBRANCH   1  16
TORSDOF 4
ENDMDL
MODEL 8
REMARK VINA RESULT:      -5.1      2.844      5.016
REMARK  4 active torsions:
REMARK  status: ('A' for Active; 'I' for Inactive)
REMARK    1  A    between atoms: N_1  and  C_6 
REMARK    2  A    between atoms: C_2  and  C_5 
REMARK    3  A    between atoms: C_6  and  C_8 
REMARK    4  A    between atoms: C_6  and  C_9 
ROOT
HETATM    1  C   UNL     1      62.970   7.000   4.787  1.00  0.00     0.254 C 
ENDROOT
BRANCH   1   2
HETATM    2  N   UNL     1      62.214   8.278   4.814  1.00  0.00    -0.057 N 
HETATM    3  C   UNL     1      61.340   8.476   3.641  1.00  0.00     0.253 C 
HETATM    4  C   UNL     1      61.721   9.974   3.673  1.00  0.00     0.138 C 
HETATM    5  C   UNL     1      62.965   9.493   4.451  1.00  0.00     0.253 C 
HETATM    6  H   UNL     1      61.835   8.190   5.757  1.00  0.00     0.281 HD
BRANCH   4   7
HETATM    7  C   UNL     1      61.938  10.677   2.326  1.00  0.00     0.180 C 
HETATM    8  O   UNL     1      62.020  11.882   2.112  1.00  0.00    -0.648 OA
HETATM    9  O   UNL     1      62.051   9.829   1.275  1.00  0.00    -0.648 OA
ENDBRANCH   4   7
ENDBRANCH   1   2
BRANCH   1  10
HETATM   10  C   UNL     1      64.491   7.035   5.001  1.00  0.00    -0.023 A 
HETATM   11  C   UNL     1      65.059   7.257   6.268  1.00  0.00     0.009 A 
HETATM   12  C   UNL     1      66.444   7.221   6.455  1.00  0.00     0.001 A 
HETATM   13  C   UNL     1      67.287   6.960   5.379  1.00  0.00     0.000 A 
HETATM   14  C   UNL     1      66.748   6.742   4.115  1.00  0.00     0.001 A 
HETATM   15  C   UNL     1      65.364   6.778   3.926  1.00  0.00     0.009 A 
ENDBRANCH   1  10
BRANCH   1  16
HETATM   16  C   UNL     1      62.293   5.897   5.624  1.00  0.00    -0.023 A 
HETATM   17  C   UNL     1      61.202   6.232   6.447  1.00  0.00     0.009 A 
HETATM   18  C   UNL     1      60.550   5.261   7.211  1.00  0.00     0.001 A 
HETATM   19  C   UNL     1      60.975   3.935   7.163  1.00  0.00     0.000 A 
HETATM   20  C   UNL     1      62.041   3.580   6.344  1.00  0.00     0.001 A 
HETATM   21  C   UNL     1      62.692   4.550   5.580  1.00  0.00     0.009 A 
ENDBRANCH   1  16
TORSDOF 4
ENDMDL
MODEL 9
REMARK VINA RESULT:      -5.1      1.974      2.349
REMARK  4 active torsions:
REMARK  status: ('A' for Active; 'I' for Inactive)
REMARK    1  A    between atoms: N_1  and  C_6 
REMARK    2  A    between atoms: C_2  and  C_5 
REMARK    3  A    between atoms: C_6  and  C_8 
REMARK    4  A    between atoms: C_6  and  C_9 
ROOT
HETATM    1  C   UNL     1      62.442   7.452   4.420  1.00  0.00     0.254 C 
ENDROOT
BRANCH   1   2
HETATM    2  N   UNL     1      62.006   6.220   3.715  1.00  0.00    -0.057 N 
HETATM    3  C   UNL     1      61.267   5.273   4.574  1.00  0.00     0.253 C 
HETATM    4  C   UNL     1      61.985   4.121   3.835  1.00  0.00     0.138 C 
HETATM    5  C   UNL     1      63.038   5.194   3.484  1.00  0.00     0.253 C 
HETATM    6  H   UNL     1      61.566   6.673   2.913  1.00  0.00     0.281 HD
BRANCH   4   7
HETATM    7  C   UNL     1      62.433   2.915   4.673  1.00  0.00     0.180 C 
HETATM    8  O   UNL     1      63.168   2.915   5.656  1.00  0.00    -0.648 OA
HETATM    9  O   UNL     1      61.932   1.731   4.245  1.00  0.00    -0.648 OA
ENDBRANCH   4   7
ENDBRANCH   1   2
BRANCH   1  10
HETATM   10  C   UNL     1      63.800   7.451   5.138  1.00  0.00    -0.023 A 
HETATM   11  C   UNL     1      63.969   6.873   6.409  1.00  0.00     0.009 A 
HETATM   12  C   UNL     1      65.226   6.824   7.019  1.00  0.00     0.001 A 
HETATM   13  C   UNL     1      66.338   7.352   6.369  1.00  0.00     0.000 A 
HETATM   14  C   UNL     1      66.194   7.934   5.113  1.00  0.00     0.001 A 
HETATM   15  C   UNL     1      64.938   7.984   4.502  1.00  0.00     0.009 A 
ENDBRANCH   1  10
BRANCH   1  16
HETATM   16  C   UNL     1      62.237   8.721   3.571  1.00  0.00    -0.023 A 
HETATM   17  C   UNL     1      62.114   9.965   4.215  1.00  0.00     0.009 A 
HETATM   18  C   UNL     1      61.941  11.143   3.482  1.00  0.00     0.001 A 
HETATM   19  C   UNL     1      61.892  11.098   2.091  1.00  0.00     0.000 A 
HETATM   20  C   UNL     1      62.028   9.880   1.434  1.00  0.00     0.001 A 
HETATM   21  C   UNL     1      62.201   8.704   2.165  1.00  0.00     0.009 A 
ENDBRANCH   1  16
TORSDOF 4
ENDMDL
