MODEL 1
REMARK VINA RESULT:      -5.4      0.000      0.000
REMARK  5 active torsions:
REMARK  status: ('A' for Active; 'I' for Inactive)
REMARK    1  A    between atoms: N_1  and  C_10 
REMARK    2  A    between atoms: C_4  and  C_5 
REMARK    3  A    between atoms: C_4  and  C_7 
REMARK    4  A    between atoms: N_6  and  C_11 
REMARK    5  A    between atoms: C_10  and  C_11 
ROOT
HETATM    1  N   UNL     1      66.414   6.128   6.009  1.00  0.00    -0.070 N 
HETATM    2  C   UNL     1      65.388   6.760   6.854  1.00  0.00     0.235 C 
HETATM    3  C   UNL     1      66.529   6.826   4.715  1.00  0.00     0.235 C 
HETATM    4  C   UNL     1      64.120   7.557   4.823  1.00  0.00    -0.007 C 
HETATM    5  C   UNL     1      64.024   6.811   6.159  1.00  0.00     0.032 C 
HETATM    6  C   UNL     1      65.198   6.881   3.967  1.00  0.00     0.032 C 
HETATM    7  H   UNL     1      66.117   5.165   5.851  1.00  0.00     0.279 HD
ENDROOT
BRANCH   1   8
HETATM    8  C   UNL     1      67.738   6.119   6.672  1.00  0.00     0.262 C 
BRANCH   8   9
HETATM    9  C   UNL     1      67.737   5.473   8.074  1.00  0.00     0.257 C 
BRANCH   9  10
HETATM   10  N   UNL     1      68.070   6.445   9.119  1.00  0.00    -0.078 N 
HETATM   11  H   UNL     1      67.363   6.411   9.853  1.00  0.00     0.274 HD
HETATM   12  H   UNL     1      68.096   7.383   8.715  1.00  0.00     0.274 HD
HETATM   13  H   UNL     1      68.983   6.221   9.513  1.00  0.00     0.274 HD
ENDBRANCH   9  10
ENDBRANCH   8   9
ENDBRANCH   1   8
BRANCH   4  14
HETATM   14  C   UNL     1      62.751   7.606   4.120  1.00  0.00     0.043 C 
BRANCH  14  15
HETATM   15  C   UNL     1      62.451   8.946   3.487  1.00  0.00    -0.058 A 
HETATM   16  C   UNL     1      62.361  10.098   4.279  1.00  0.00     0.007 A 
HETATM   17  C   UNL     1      62.038  11.329   3.706  1.00  0.00     0.001 A 
HETATM   18  C   UNL     1      61.802  11.421   2.335  1.00  0.00     0.000 A 
HETATM   19  C   UNL     1      61.906  10.286   1.534  1.00  0.00     0.001 A 
HETATM   20  C   UNL     1      62.238   9.057   2.104  1.00  0.00     0.007 A 
ENDBRANCH  14  15
ENDBRANCH   4  14
TORSDOF 5
ENDMDL
MODEL 2
REMARK VINA RESULT:      -5.4      0.885      1.548
REMARK  5 active torsions:
REMARK  status: ('A' for Active; 'I' for Inactive)
REMARK    1  A    between atoms: N_1  and  C_10 
REMARK    2  A    between atoms: C_4  and  C_5 
REMARK    3  A    between atoms: C_4  and  C_7 
REMARK    4  A    between atoms: N_6  and  C_11 
REMARK    5  A    between atoms: C_10  and  C_11 
ROOT
HETATM    1  N   UNL     1      66.483   6.483   6.636  1.00  0.00    -0.070 N 
HETATM    2  C   UNL     1      66.649   7.422   5.514  1.00  0.00     0.235 C 
HETATM    3  C   UNL     1      65.181   5.797   6.557  1.00  0.00     0.235 C 
HETATM    4  C   UNL     1      64.153   7.753   5.347  1.00  0.00    -0.007 C 
HETATM    5  C   UNL     1      65.514   8.449   5.455  1.00  0.00     0.032 C 
HETATM    6  C   UNL     1      64.011   6.779   6.523  1.00  0.00     0.032 C 
HETATM    7  H   UNL     1      66.528   7.034   7.493  1.00  0.00     0.279 HD
ENDROOT
BRANCH   1   8
HETATM    8  C   UNL     1      67.563   5.469   6.662  1.00  0.00     0.262 C 
BRANCH   8   9
HETATM    9  C   UNL     1      68.072   5.125   8.078  1.00  0.00     0.257 C 
BRANCH   9  10
HETATM   10  N   UNL     1      68.020   6.288   8.969  1.00  0.00    -0.078 N 
HETATM   11  H   UNL     1      67.251   6.897   8.688  1.00  0.00     0.274 HD
HETATM   12  H   UNL     1      68.900   6.802   8.907  1.00  0.00     0.274 HD
HETATM   13  H   UNL     1      67.876   5.976   9.928  1.00  0.00     0.274 HD
ENDBRANCH   9  10
ENDBRANCH   8   9
ENDBRANCH   1   8
BRANCH   4  14
HETATM   14  C   UNL     1      63.010   8.784   5.291  1.00  0.00     0.043 C 
BRANCH  14  15
HETATM   15  C   UNL     1      62.645   9.196   3.883  1.00  0.00    -0.058 A 
HETATM   16  C   UNL     1      62.214  10.503   3.617  1.00  0.00     0.007 A 
HETATM   17  C   UNL     1      61.831  10.875   2.328  1.00  0.00     0.001 A 
HETATM   18  C   UNL     1      61.874   9.945   1.290  1.00  0.00     0.000 A 
HETATM   19  C   UNL     1      62.316   8.647   1.539  1.00  0.00     0.001 A 
HETATM   20  C   UNL     1      62.708   8.277   2.825  1.00  0.00     0.007 A 
ENDBRANCH  14  15
ENDBRANCH   4  14
TORSDOF 5
ENDMDL
MODEL 3
REMARK VINA RESULT:      -4.5      5.186      7.901
REMARK  5 active torsions:
REMARK  status: ('A' for Active; 'I' for Inactive)
REMARK    1  A    between atoms: N_1  and  C_10 
REMARK    2  A    between atoms: C_4  and  C_5 
REMARK    3  A    between atoms: C_4  and  C_7 
REMARK    4  A    between atoms: N_6  and  C_11 
REMARK    5  A    between atoms: C_10  and  C_11 
ROOT
HETATM    1  N   UNL     1      57.827   6.581   2.062  1.00  0.00    -0.070 N 
HETATM    2  C   UNL     1      58.282   7.212   0.812  1.00  0.00     0.235 C 
HETATM    3  C   UNL     1      58.258   7.368   3.233  1.00  0.00     0.235 C 
HETATM    4  C   UNL     1      60.264   8.243   1.985  1.00  0.00    -0.007 C 
HETATM    5  C   UNL     1      59.801   7.405   0.788  1.00  0.00     0.032 C 
HETATM    6  C   UNL     1      59.772   7.567   3.270  1.00  0.00     0.032 C 
HETATM    7  H   UNL     1      58.252   5.655   2.099  1.00  0.00     0.279 HD
ENDROOT
BRANCH   1   8
HETATM    8  C   UNL     1      56.353   6.435   2.094  1.00  0.00     0.262 C 
BRANCH   8   9
HETATM    9  C   UNL     1      55.741   5.925   0.773  1.00  0.00     0.257 C 
BRANCH   9  10
HETATM   10  N   UNL     1      54.581   6.725   0.369  1.00  0.00    -0.078 N 
HETATM   11  H   UNL     1      54.867   7.695   0.237  1.00  0.00     0.274 HD
HETATM   12  H   UNL     1      53.866   6.677   1.097  1.00  0.00     0.274 HD
HETATM   13  H   UNL     1      54.202   6.359  -0.503  1.00  0.00     0.274 HD
ENDBRANCH   9  10
ENDBRANCH   8   9
ENDBRANCH   1   8
BRANCH   4  14
HETATM   14  C   UNL     1      61.792   8.436   1.965  1.00  0.00     0.043 C 
BRANCH  14  15
HETATM   15  C   UNL     1      62.309   9.227   3.145  1.00  0.00    -0.058 A 
HETATM   16  C   UNL     1      63.240   8.659   4.025  1.00  0.00     0.007 A 
HETATM   17  C   UNL     1      63.685   9.368   5.142  1.00  0.00     0.001 A 
HETATM   18  C   UNL     1      63.204  10.653   5.391  1.00  0.00     0.000 A 
HETATM   19  C   UNL     1      62.292  11.235   4.514  1.00  0.00     0.001 A 
HETATM   20  C   UNL     1      61.854  10.531   3.392  1.00  0.00     0.007 A 
ENDBRANCH  14  15
ENDBRANCH   4  14
TORSDOF 5
ENDMDL
MODEL 4
REMARK VINA RESULT:      -4.5      3.861      5.383
REMARK  5 active torsions:
REMARK  status: ('A' for Active; 'I' for Inactive)
REMARK    1  A    between atoms: N_1  and  C_10 
REMARK    2  A    between atoms: C_4  and  C_5 
REMARK    3  A    between atoms: C_4  and  C_7 
REMARK    4  A    between atoms: N_6  and  C_11 
REMARK    5  A    between atoms: C_10  and  C_11 
ROOT
HETATM    1  N   UNL     1      60.140   4.778   5.890  1.00  0.00    -0.070 N 
HETATM    2  C   UNL     1      59.827   5.427   4.606  1.00  0.00     0.235 C 
HETATM    3  C   UNL     1      60.692   5.753   6.848  1.00  0.00     0.235 C 
HETATM    4  C   UNL     1      61.624   7.159   4.977  1.00  0.00    -0.007 C 
HETATM    5  C   UNL     1      61.051   6.124   4.004  1.00  0.00     0.032 C 
HETATM    6  C   UNL     1      61.934   6.458   6.306  1.00  0.00     0.032 C 
HETATM    7  H   UNL     1      60.835   4.057   5.697  1.00  0.00     0.279 HD
ENDROOT
BRANCH   1   8
HETATM    8  C   UNL     1      58.941   4.141   6.484  1.00  0.00     0.262 C 
BRANCH   8   9
HETATM    9  C   UNL     1      57.659   4.995   6.388  1.00  0.00     0.257 C 
BRANCH   9  10
HETATM   10  N   UNL     1      57.180   5.404   7.711  1.00  0.00    -0.078 N 
HETATM   11  H   UNL     1      56.246   5.026   7.866  1.00  0.00     0.274 HD
HETATM   12  H   UNL     1      57.147   6.423   7.760  1.00  0.00     0.274 HD
HETATM   13  H   UNL     1      57.814   5.051   8.427  1.00  0.00     0.274 HD
ENDBRANCH   9  10
ENDBRANCH   8   9
ENDBRANCH   1   8
BRANCH   4  14
HETATM   14  C   UNL     1      62.857   7.858   4.376  1.00  0.00     0.043 C 
BRANCH  14  15
HETATM   15  C   UNL     1      62.511   9.077   3.550  1.00  0.00    -0.058 A 
HETATM   16  C   UNL     1      62.273  10.310   4.172  1.00  0.00     0.007 A 
HETATM   17  C   UNL     1      61.906  11.425   3.418  1.00  0.00     0.001 A 
HETATM   18  C   UNL     1      61.774  11.321   2.034  1.00  0.00     0.000 A 
HETATM   19  C   UNL     1      62.025  10.105   1.402  1.00  0.00     0.001 A 
HETATM   20  C   UNL     1      62.400   8.991   2.154  1.00  0.00     0.007 A 
ENDBRANCH  14  15
ENDBRANCH   4  14
TORSDOF 5
ENDMDL
MODEL 5
REMARK VINA RESULT:      -4.5      1.908      3.536
REMARK  5 active torsions:
REMARK  status: ('A' for Active; 'I' for Inactive)
REMARK    1  A    between atoms: N_1  and  C_10 
REMARK    2  A    between atoms: C_4  and  C_5 
REMARK    3  A    between atoms: C_4  and  C_7 
REMARK    4  A    between atoms: N_6  and  C_11 
REMARK    5  A    between atoms: C_10  and  C_11 
ROOT
HETATM    1  N   UNL     1      67.947   4.912   8.024  1.00  0.00    -0.070 N 
HETATM    2  C   UNL     1      67.485   4.361   6.740  1.00  0.00     0.235 C 
HETATM    3  C   UNL     1      67.062   6.003   8.475  1.00  0.00     0.235 C 
HETATM    4  C   UNL     1      66.448   6.570   6.098  1.00  0.00    -0.007 C 
HETATM    5  C   UNL     1      67.385   5.440   5.657  1.00  0.00     0.032 C 
HETATM    6  C   UNL     1      66.949   7.120   7.439  1.00  0.00     0.032 C 
HETATM    7  H   UNL     1      68.887   5.277   7.871  1.00  0.00     0.279 HD
ENDROOT
BRANCH   1   8
HETATM    8  C   UNL     1      68.003   3.870   9.076  1.00  0.00     0.262 C 
BRANCH   8   9
HETATM    9  C   UNL     1      67.796   2.433   8.552  1.00  0.00     0.257 C 
BRANCH   9  10
HETATM   10  N   UNL     1      66.951   1.645   9.454  1.00  0.00    -0.078 N 
HETATM   11  H   UNL     1      67.535   1.012  10.000  1.00  0.00     0.274 HD
HETATM   12  H   UNL     1      66.282   1.103   8.905  1.00  0.00     0.274 HD
HETATM   13  H   UNL     1      66.447   2.270  10.081  1.00  0.00     0.274 HD
ENDBRANCH   9  10
ENDBRANCH   8   9
ENDBRANCH   1   8
BRANCH   4  14
HETATM   14  C   UNL     1      66.348   7.659   5.013  1.00  0.00     0.043 C 
BRANCH  14  15
HETATM   15  C   UNL     1      64.923   8.026   4.665  1.00  0.00    -0.058 A 
HETATM   16  C   UNL     1      64.202   7.264   3.736  1.00  0.00     0.007 A 
HETATM   17  C   UNL     1      62.904   7.628   3.376  1.00  0.00     0.001 A 
HETATM   18  C   UNL     1      62.312   8.756   3.940  1.00  0.00     0.000 A 
HETATM   19  C   UNL     1      63.012   9.513   4.877  1.00  0.00     0.001 A 
HETATM   20  C   UNL     1      64.306   9.145   5.245  1.00  0.00     0.007 A 
ENDBRANCH  14  15
ENDBRANCH   4  14
TORSDOF 5
ENDMDL
MODEL 6
REMARK VINA RESULT:      -4.4      1.686      2.593
REMARK  5 active torsions:
REMARK  status: ('A' for Active; 'I' for Inactive)
REMARK    1  A    between atoms: N_1  and  C_10 
REMARK    2  A    between atoms: C_4  and  C_5 
REMARK    3  A    between atoms: C_4  and  C_7 
REMARK    4  A    between atoms: N_6  and  C_11 
REMARK    5  A    between atoms: C_10  and  C_11 
ROOT
HETATM    1  N   UNL     1      66.002   6.446   5.249  1.00  0.00    -0.070 N 
HETATM    2  C   UNL     1      64.949   5.876   4.393  1.00  0.00     0.235 C 
HETATM    3  C   UNL     1      65.455   7.506   6.116  1.00  0.00     0.235 C 
HETATM    4  C   UNL     1      63.661   8.045   4.432  1.00  0.00    -0.007 C 
HETATM    5  C   UNL     1      64.258   6.948   3.545  1.00  0.00     0.032 C 
HETATM    6  C   UNL     1      64.778   8.616   5.315  1.00  0.00     0.032 C 
HETATM    7  H   UNL     1      66.707   6.843   4.628  1.00  0.00     0.279 HD
ENDROOT
BRANCH   1   8
HETATM    8  C   UNL     1      66.637   5.409   6.095  1.00  0.00     0.262 C 
BRANCH   8   9
HETATM    9  C   UNL     1      66.822   5.824   7.570  1.00  0.00     0.257 C 
BRANCH   9  10
HETATM   10  N   UNL     1      66.184   4.871   8.484  1.00  0.00    -0.078 N 
HETATM   11  H   UNL     1      66.224   5.236   9.436  1.00  0.00     0.274 HD
HETATM   12  H   UNL     1      66.676   3.978   8.441  1.00  0.00     0.274 HD
HETATM   13  H   UNL     1      65.211   4.737   8.210  1.00  0.00     0.274 HD
ENDBRANCH   9  10
ENDBRANCH   8   9
ENDBRANCH   1   8
BRANCH   4  14
HETATM   14  C   UNL     1      62.969   9.127   3.581  1.00  0.00     0.043 C 
BRANCH  14  15
HETATM   15  C   UNL     1      61.851   8.585   2.719  1.00  0.00    -0.058 A 
HETATM   16  C   UNL     1      61.921   8.684   1.324  1.00  0.00     0.007 A 
HETATM   17  C   UNL     1      60.869   8.229   0.527  1.00  0.00     0.001 A 
HETATM   18  C   UNL     1      59.737   7.668   1.117  1.00  0.00     0.000 A 
HETATM   19  C   UNL     1      59.663   7.548   2.502  1.00  0.00     0.001 A 
HETATM   20  C   UNL     1      60.717   7.995   3.300  1.00  0.00     0.007 A 
ENDBRANCH  14  15
ENDBRANCH   4  14
TORSDOF 5
ENDMDL
MODEL 7
REMARK VINA RESULT:      -4.4      3.250      6.675
REMARK  5 active torsions:
REMARK  status: ('A' for Active; 'I' for Inactive)
REMARK    1  A    between atoms: N_1  and  C_10 
REMARK    2  A    between atoms: C_4  and  C_5 
REMARK    3  A    between atoms: C_4  and  C_7 
REMARK    4  A    between atoms: N_6  and  C_11 
REMARK    5  A    between atoms: C_10  and  C_11 
ROOT
HETATM    1  N   UNL     1      60.576   7.789   3.545  1.00  0.00    -0.070 N 
HETATM    2  C   UNL     1      61.417   6.704   4.075  1.00  0.00     0.235 C 
HETATM    3  C   UNL     1      61.389   8.765   2.796  1.00  0.00     0.235 C 
HETATM    4  C   UNL     1      63.420   8.235   4.189  1.00  0.00    -0.007 C 
HETATM    5  C   UNL     1      62.549   7.238   4.959  1.00  0.00     0.032 C 
HETATM    6  C   UNL     1      62.518   9.349   3.644  1.00  0.00     0.032 C 
HETATM    7  H   UNL     1      60.144   8.249   4.346  1.00  0.00     0.279 HD
ENDROOT
BRANCH   1   8
HETATM    8  C   UNL     1      59.509   7.268   2.659  1.00  0.00     0.262 C 
BRANCH   8   9
HETATM    9  C   UNL     1      58.128   7.147   3.337  1.00  0.00     0.257 C 
BRANCH   9  10
HETATM   10  N   UNL     1      57.915   8.210   4.324  1.00  0.00    -0.078 N 
HETATM   11  H   UNL     1      58.316   7.928   5.219  1.00  0.00     0.274 HD
HETATM   12  H   UNL     1      56.913   8.373   4.437  1.00  0.00     0.274 HD
HETATM   13  H   UNL     1      58.364   9.067   4.003  1.00  0.00     0.274 HD
ENDBRANCH   9  10
ENDBRANCH   8   9
ENDBRANCH   1   8
BRANCH   4  14
HETATM   14  C   UNL     1      64.556   8.776   5.077  1.00  0.00     0.043 C 
BRANCH  14  15
HETATM   15  C   UNL     1      65.633   7.753   5.360  1.00  0.00    -0.058 A 
HETATM   16  C   UNL     1      66.172   7.628   6.647  1.00  0.00     0.007 A 
HETATM   17  C   UNL     1      67.199   6.719   6.902  1.00  0.00     0.001 A 
HETATM   18  C   UNL     1      67.699   5.923   5.872  1.00  0.00     0.000 A 
HETATM   19  C   UNL     1      67.160   6.024   4.592  1.00  0.00     0.001 A 
HETATM   20  C   UNL     1      66.127   6.926   4.338  1.00  0.00     0.007 A 
ENDBRANCH  14  15
ENDBRANCH   4  14
TORSDOF 5
ENDMDL
MODEL 8
REMARK VINA RESULT:      -4.3      2.428      2.608
REMARK  5 active torsions:
REMARK  status: ('A' for Active; 'I' for Inactive)
REMARK    1  A    between atoms: N_1  and  C_10 
REMARK    2  A    between atoms: C_4  and  C_5 
REMARK    3  A    between atoms: C_4  and  C_7 
REMARK    4  A    between atoms: N_6  and  C_11 
REMARK    5  A    between atoms: C_10  and  C_11 
ROOT
HETATM    1  N   UNL     1      64.549   4.346   4.709  1.00  0.00    -0.070 N 
HETATM    2  C   UNL     1      63.389   5.056   5.272  1.00  0.00     0.235 C 
HETATM    3  C   UNL     1      65.413   5.271   3.953  1.00  0.00     0.235 C 
HETATM    4  C   UNL     1      63.453   6.759   3.411  1.00  0.00    -0.007 C 
HETATM    5  C   UNL     1      62.576   5.774   4.190  1.00  0.00     0.032 C 
HETATM    6  C   UNL     1      64.654   5.994   2.842  1.00  0.00     0.032 C 
HETATM    7  H   UNL     1      64.183   3.631   4.080  1.00  0.00     0.279 HD
ENDROOT
BRANCH   1   8
HETATM    8  C   UNL     1      65.352   3.689   5.766  1.00  0.00     0.262 C 
BRANCH   8   9
HETATM    9  C   UNL     1      64.767   2.350   6.263  1.00  0.00     0.257 C 
BRANCH   9  10
HETATM   10  N   UNL     1      64.326   2.436   7.658  1.00  0.00    -0.078 N 
HETATM   11  H   UNL     1      65.131   2.328   8.276  1.00  0.00     0.274 HD
HETATM   12  H   UNL     1      63.651   1.694   7.847  1.00  0.00     0.274 HD
HETATM   13  H   UNL     1      63.889   3.342   7.822  1.00  0.00     0.274 HD
ENDBRANCH   9  10
ENDBRANCH   8   9
ENDBRANCH   1   8
BRANCH   4  14
HETATM   14  C   UNL     1      62.639   7.479   2.320  1.00  0.00     0.043 C 
BRANCH  14  15
HETATM   15  C   UNL     1      62.401   8.942   2.618  1.00  0.00    -0.058 A 
HETATM   16  C   UNL     1      62.472   9.417   3.934  1.00  0.00     0.007 A 
HETATM   17  C   UNL     1      62.206  10.756   4.220  1.00  0.00     0.001 A 
HETATM   18  C   UNL     1      61.866  11.636   3.194  1.00  0.00     0.000 A 
HETATM   19  C   UNL     1      61.808  11.180   1.879  1.00  0.00     0.001 A 
HETATM   20  C   UNL     1      62.083   9.843   1.590  1.00  0.00     0.007 A 
ENDBRANCH  14  15
ENDBRANCH   4  14
TORSDOF 5
ENDMDL
MODEL 9
REMARK VINA RESULT:      -4.2      2.917      6.797
REMARK  5 active torsions:
REMARK  status: ('A' for Active; 'I' for Inactive)
REMARK    1  A    between atoms: N_1  and  C_10 
REMARK    2  A    between atoms: C_4  and  C_5 
REMARK    3  A    between atoms: C_4  and  C_7 
REMARK    4  A    between atoms: N_6  and  C_11 
REMARK    5  A    between atoms: C_10  and  C_11 
ROOT
HETATM    1  N   UNL     1      62.023   7.649   4.763  1.00  0.00    -0.070 N 
HETATM    2  C   UNL     1      62.598   6.530   5.526  1.00  0.00     0.235 C 
HETATM    3  C   UNL     1      63.040   8.264   3.889  1.00  0.00     0.235 C 
HETATM    4  C   UNL     1      64.890   7.582   5.457  1.00  0.00    -0.007 C 
HETATM    5  C   UNL     1      63.812   6.964   6.353  1.00  0.00     0.032 C 
HETATM    6  C   UNL     1      64.263   8.740   4.670  1.00  0.00     0.032 C 
HETATM    7  H   UNL     1      61.698   8.336   5.442  1.00  0.00     0.279 HD
ENDROOT
BRANCH   1   8
HETATM    8  C   UNL     1      60.875   7.212   3.935  1.00  0.00     0.262 C 
BRANCH   8   9
HETATM    9  C   UNL     1      61.275   6.528   2.611  1.00  0.00     0.257 C 
BRANCH   9  10
HETATM   10  N   UNL     1      60.818   5.136   2.562  1.00  0.00    -0.078 N 
HETATM   11  H   UNL     1      61.475   4.581   2.013  1.00  0.00     0.274 HD
HETATM   12  H   UNL     1      59.895   5.097   2.127  1.00  0.00     0.274 HD
HETATM   13  H   UNL     1      60.763   4.762   3.508  1.00  0.00     0.274 HD
ENDBRANCH   9  10
ENDBRANCH   8   9
ENDBRANCH   1   8
BRANCH   4  14
HETATM   14  C   UNL     1      66.110   8.024   6.286  1.00  0.00     0.043 C 
BRANCH  14  15
HETATM   15  C   UNL     1      66.769   6.886   7.034  1.00  0.00    -0.058 A 
HETATM   16  C   UNL     1      66.885   6.929   8.430  1.00  0.00     0.007 A 
HETATM   17  C   UNL     1      67.533   5.905   9.119  1.00  0.00     0.001 A 
HETATM   18  C   UNL     1      68.073   4.825   8.422  1.00  0.00     0.000 A 
HETATM   19  C   UNL     1      67.949   4.762   7.036  1.00  0.00     0.001 A 
HETATM   20  C   UNL     1      67.293   5.781   6.346  1.00  0.00     0.007 A 
ENDBRANCH  14  15
ENDBRANCH   4  14
TORSDOF 5
ENDMDL
