MODEL 1
REMARK VINA RESULT:      -5.5      0.000      0.000
REMARK  2 active torsions:
REMARK  status: ('A' for Active; 'I' for Inactive)
REMARK    1  A    between atoms: C_2  and  C_3 
REMARK    2  A    between atoms: C_3  and  O_8 
ROOT
HETATM    1  N   UNL     1      63.189   9.423   5.547  1.00  0.00    -0.376 N 
HETATM    2  C   UNL     1      63.329   7.943   5.424  1.00  0.00     0.186 C 
HETATM    3  C   UNL     1      62.642   9.808   4.308  1.00  0.00     0.035 A 
HETATM    4  C   UNL     1      63.408   7.615   3.916  1.00  0.00     0.076 C 
HETATM    5  C   UNL     1      62.773   8.828   3.326  1.00  0.00    -0.029 A 
HETATM    6  C   UNL     1      62.144  11.059   3.999  1.00  0.00     0.029 A 
HETATM    7  C   UNL     1      62.384   9.059   2.018  1.00  0.00     0.009 A 
HETATM    8  C   UNL     1      61.738  11.306   2.685  1.00  0.00     0.002 A 
HETATM    9  C   UNL     1      61.856  10.312   1.702  1.00  0.00     0.001 A 
HETATM   10  H   UNL     1      63.423   9.994   6.314  1.00  0.00     0.160 HD
ENDROOT
BRANCH   2  11
HETATM   11  C   UNL     1      64.549   7.406   6.173  1.00  0.00     0.281 C 
HETATM   12  O   UNL     1      64.522   6.981   7.323  1.00  0.00    -0.263 OA
BRANCH  11  13
HETATM   13  O   UNL     1      65.687   7.543   5.429  1.00  0.00    -0.325 OA
HETATM   14  C   UNL     1      66.824   7.983   6.169  1.00  0.00     0.213 C 
ENDBRANCH  11  13
ENDBRANCH   2  11
TORSDOF 2
ENDMDL
MODEL 2
REMARK VINA RESULT:      -5.2      1.391      2.112
REMARK  2 active torsions:
REMARK  status: ('A' for Active; 'I' for Inactive)
REMARK    1  A    between atoms: C_2  and  C_3 
REMARK    2  A    between atoms: C_3  and  O_8 
ROOT
HETATM    1  N   UNL     1      63.137   7.514   3.929  1.00  0.00    -0.376 N 
HETATM    2  C   UNL     1      63.607   8.127   5.204  1.00  0.00     0.186 C 
HETATM    3  C   UNL     1      62.729   8.621   3.159  1.00  0.00     0.035 A 
HETATM    4  C   UNL     1      62.907   9.499   5.339  1.00  0.00     0.076 C 
HETATM    5  C   UNL     1      62.544   9.775   3.919  1.00  0.00    -0.029 A 
HETATM    6  C   UNL     1      62.396   8.594   1.819  1.00  0.00     0.029 A 
HETATM    7  C   UNL     1      62.051  10.939   3.356  1.00  0.00     0.009 A 
HETATM    8  C   UNL     1      61.905   9.764   1.233  1.00  0.00     0.002 A 
HETATM    9  C   UNL     1      61.736  10.929   1.996  1.00  0.00     0.001 A 
HETATM   10  H   UNL     1      63.116   6.561   3.683  1.00  0.00     0.160 HD
ENDROOT
BRANCH   2  11
HETATM   11  C   UNL     1      63.330   7.241   6.418  1.00  0.00     0.281 C 
HETATM   12  O   UNL     1      62.228   6.785   6.704  1.00  0.00    -0.263 OA
BRANCH  11  13
HETATM   13  O   UNL     1      64.447   7.097   7.192  1.00  0.00    -0.325 OA
HETATM   14  C   UNL     1      65.108   5.842   7.043  1.00  0.00     0.213 C 
ENDBRANCH  11  13
ENDBRANCH   2  11
TORSDOF 2
ENDMDL
MODEL 3
REMARK VINA RESULT:      -4.6      1.515      1.777
REMARK  2 active torsions:
REMARK  status: ('A' for Active; 'I' for Inactive)
REMARK    1  A    between atoms: C_2  and  C_3 
REMARK    2  A    between atoms: C_3  and  O_8 
ROOT
HETATM    1  N   UNL     1      64.528   8.666   5.936  1.00  0.00    -0.376 N 
HETATM    2  C   UNL     1      64.731   7.263   5.477  1.00  0.00     0.186 C 
HETATM    3  C   UNL     1      63.578   9.177   5.031  1.00  0.00     0.035 A 
HETATM    4  C   UNL     1      64.337   7.208   3.983  1.00  0.00     0.076 C 
HETATM    5  C   UNL     1      63.455   8.406   3.877  1.00  0.00    -0.029 A 
HETATM    6  C   UNL     1      62.914  10.382   5.151  1.00  0.00     0.029 A 
HETATM    7  C   UNL     1      62.644   8.800   2.827  1.00  0.00     0.009 A 
HETATM    8  C   UNL     1      62.083  10.791   4.104  1.00  0.00     0.002 A 
HETATM    9  C   UNL     1      61.948  10.004   2.951  1.00  0.00     0.001 A 
HETATM   10  H   UNL     1      64.955   9.126   6.694  1.00  0.00     0.160 HD
ENDROOT
BRANCH   2  11
HETATM   11  C   UNL     1      66.165   6.778   5.690  1.00  0.00     0.281 C 
HETATM   12  O   UNL     1      66.941   7.253   6.512  1.00  0.00    -0.263 OA
BRANCH  11  13
HETATM   13  O   UNL     1      66.500   5.809   4.786  1.00  0.00    -0.325 OA
HETATM   14  C   UNL     1      67.356   4.792   5.303  1.00  0.00     0.213 C 
ENDBRANCH  11  13
ENDBRANCH   2  11
TORSDOF 2
ENDMDL
MODEL 4
REMARK VINA RESULT:      -4.3      3.717      4.888
REMARK  2 active torsions:
REMARK  status: ('A' for Active; 'I' for Inactive)
REMARK    1  A    between atoms: C_2  and  C_3 
REMARK    2  A    between atoms: C_3  and  O_8 
ROOT
HETATM    1  N   UNL     1      60.302   8.761   3.382  1.00  0.00    -0.376 N 
HETATM    2  C   UNL     1      61.556   9.257   2.746  1.00  0.00     0.186 C 
HETATM    3  C   UNL     1      59.851   7.766   2.494  1.00  0.00     0.035 A 
HETATM    4  C   UNL     1      61.461   8.941   1.237  1.00  0.00     0.076 C 
HETATM    5  C   UNL     1      60.450   7.844   1.238  1.00  0.00    -0.029 A 
HETATM    6  C   UNL     1      58.826   6.872   2.735  1.00  0.00     0.029 A 
HETATM    7  C   UNL     1      60.064   7.013   0.200  1.00  0.00     0.009 A 
HETATM    8  C   UNL     1      58.430   6.020   1.701  1.00  0.00     0.002 A 
HETATM    9  C   UNL     1      59.047   6.089   0.443  1.00  0.00     0.001 A 
HETATM   10  H   UNL     1      59.888   9.059   4.224  1.00  0.00     0.160 HD
ENDROOT
BRANCH   2  11
HETATM   11  C   UNL     1      61.786  10.748   2.987  1.00  0.00     0.281 C 
HETATM   12  O   UNL     1      62.071  11.555   2.109  1.00  0.00    -0.263 OA
BRANCH  11  13
HETATM   13  O   UNL     1      61.722  11.051   4.319  1.00  0.00    -0.325 OA
HETATM   14  C   UNL     1      62.819  10.560   5.087  1.00  0.00     0.213 C 
ENDBRANCH  11  13
ENDBRANCH   2  11
TORSDOF 2
ENDMDL
MODEL 5
REMARK VINA RESULT:      -4.3      2.565      5.052
REMARK  2 active torsions:
REMARK  status: ('A' for Active; 'I' for Inactive)
REMARK    1  A    between atoms: C_2  and  C_3 
REMARK    2  A    between atoms: C_3  and  O_8 
ROOT
HETATM    1  N   UNL     1      63.554   7.716   3.507  1.00  0.00    -0.376 N 
HETATM    2  C   UNL     1      62.992   8.656   4.519  1.00  0.00     0.186 C 
HETATM    3  C   UNL     1      64.793   7.336   4.057  1.00  0.00     0.035 A 
HETATM    4  C   UNL     1      64.183   9.229   5.321  1.00  0.00     0.076 C 
HETATM    5  C   UNL     1      65.222   8.189   5.073  1.00  0.00    -0.029 A 
HETATM    6  C   UNL     1      65.609   6.325   3.590  1.00  0.00     0.029 A 
HETATM    7  C   UNL     1      66.462   8.036   5.669  1.00  0.00     0.009 A 
HETATM    8  C   UNL     1      66.861   6.151   4.187  1.00  0.00     0.002 A 
HETATM    9  C   UNL     1      67.283   7.000   5.221  1.00  0.00     0.001 A 
HETATM   10  H   UNL     1      63.152   7.428   2.655  1.00  0.00     0.160 HD
ENDROOT
BRANCH   2  11
HETATM   11  C   UNL     1      62.161   9.771   3.886  1.00  0.00     0.281 C 
HETATM   12  O   UNL     1      61.977  10.871   4.395  1.00  0.00    -0.263 OA
BRANCH  11  13
HETATM   13  O   UNL     1      61.576   9.354   2.723  1.00  0.00    -0.325 OA
HETATM   14  C   UNL     1      61.892  10.153   1.585  1.00  0.00     0.213 C 
ENDBRANCH  11  13
ENDBRANCH   2  11
TORSDOF 2
ENDMDL
MODEL 6
REMARK VINA RESULT:      -4.3      2.305      5.643
REMARK  2 active torsions:
REMARK  status: ('A' for Active; 'I' for Inactive)
REMARK    1  A    between atoms: C_2  and  C_3 
REMARK    2  A    between atoms: C_3  and  O_8 
ROOT
HETATM    1  N   UNL     1      64.434   7.674   6.542  1.00  0.00    -0.376 N 
HETATM    2  C   UNL     1      64.814   8.482   5.348  1.00  0.00     0.186 C 
HETATM    3  C   UNL     1      65.578   6.893   6.792  1.00  0.00     0.035 A 
HETATM    4  C   UNL     1      65.933   7.712   4.611  1.00  0.00     0.076 C 
HETATM    5  C   UNL     1      66.454   6.847   5.709  1.00  0.00    -0.029 A 
HETATM    6  C   UNL     1      65.799   6.119   7.914  1.00  0.00     0.029 A 
HETATM    7  C   UNL     1      67.586   6.051   5.728  1.00  0.00     0.009 A 
HETATM    8  C   UNL     1      66.942   5.317   7.955  1.00  0.00     0.002 A 
HETATM    9  C   UNL     1      67.831   5.285   6.869  1.00  0.00     0.001 A 
HETATM   10  H   UNL     1      63.583   7.685   7.038  1.00  0.00     0.160 HD
ENDROOT
BRANCH   2  11
HETATM   11  C   UNL     1      63.628   8.755   4.423  1.00  0.00     0.281 C 
HETATM   12  O   UNL     1      63.431   8.174   3.361  1.00  0.00    -0.263 OA
BRANCH  11  13
HETATM   13  O   UNL     1      62.865   9.790   4.887  1.00  0.00    -0.325 OA
HETATM   14  C   UNL     1      62.071  10.429   3.889  1.00  0.00     0.213 C 
ENDBRANCH  11  13
ENDBRANCH   2  11
TORSDOF 2
ENDMDL
MODEL 7
REMARK VINA RESULT:      -4.2      1.721      2.592
REMARK  2 active torsions:
REMARK  status: ('A' for Active; 'I' for Inactive)
REMARK    1  A    between atoms: C_2  and  C_3 
REMARK    2  A    between atoms: C_3  and  O_8 
ROOT
HETATM    1  N   UNL     1      64.901   6.962   4.045  1.00  0.00    -0.376 N 
HETATM    2  C   UNL     1      65.400   8.082   4.894  1.00  0.00     0.186 C 
HETATM    3  C   UNL     1      63.805   7.525   3.363  1.00  0.00     0.035 A 
HETATM    4  C   UNL     1      64.219   9.057   5.105  1.00  0.00     0.076 C 
HETATM    5  C   UNL     1      63.347   8.704   3.947  1.00  0.00    -0.029 A 
HETATM    6  C   UNL     1      63.124   6.945   2.310  1.00  0.00     0.029 A 
HETATM    7  C   UNL     1      62.217   9.352   3.478  1.00  0.00     0.009 A 
HETATM    8  C   UNL     1      61.987   7.591   1.818  1.00  0.00     0.002 A 
HETATM    9  C   UNL     1      61.538   8.787   2.397  1.00  0.00     0.001 A 
HETATM   10  H   UNL     1      65.256   6.046   3.977  1.00  0.00     0.160 HD
ENDROOT
BRANCH   2  11
HETATM   11  C   UNL     1      65.965   7.599   6.229  1.00  0.00     0.281 C 
HETATM   12  O   UNL     1      66.520   8.323   7.048  1.00  0.00    -0.263 OA
BRANCH  11  13
HETATM   13  O   UNL     1      65.852   6.242   6.353  1.00  0.00    -0.325 OA
HETATM   14  C   UNL     1      65.856   5.772   7.699  1.00  0.00     0.213 C 
ENDBRANCH  11  13
ENDBRANCH   2  11
TORSDOF 2
ENDMDL
MODEL 8
REMARK VINA RESULT:      -4.1      1.667      2.270
REMARK  2 active torsions:
REMARK  status: ('A' for Active; 'I' for Inactive)
REMARK    1  A    between atoms: C_2  and  C_3 
REMARK    2  A    between atoms: C_3  and  O_8 
ROOT
HETATM    1  N   UNL     1      64.005   7.607   6.573  1.00  0.00    -0.376 N 
HETATM    2  C   UNL     1      64.277   6.149   6.419  1.00  0.00     0.186 C 
HETATM    3  C   UNL     1      63.495   7.984   5.316  1.00  0.00     0.035 A 
HETATM    4  C   UNL     1      64.464   5.875   4.909  1.00  0.00     0.076 C 
HETATM    5  C   UNL     1      63.762   7.050   4.317  1.00  0.00    -0.029 A 
HETATM    6  C   UNL     1      62.910   9.198   5.012  1.00  0.00     0.029 A 
HETATM    7  C   UNL     1      63.426   7.288   2.995  1.00  0.00     0.009 A 
HETATM    8  C   UNL     1      62.556   9.452   3.684  1.00  0.00     0.002 A 
HETATM    9  C   UNL     1      62.811   8.502   2.683  1.00  0.00     0.001 A 
HETATM   10  H   UNL     1      64.148   8.172   7.366  1.00  0.00     0.160 HD
ENDROOT
BRANCH   2  11
HETATM   11  C   UNL     1      65.495   5.692   7.221  1.00  0.00     0.281 C 
HETATM   12  O   UNL     1      65.524   4.687   7.923  1.00  0.00    -0.263 OA
BRANCH  11  13
HETATM   13  O   UNL     1      66.517   6.595   7.127  1.00  0.00    -0.325 OA
HETATM   14  C   UNL     1      67.768   6.029   6.741  1.00  0.00     0.213 C 
ENDBRANCH  11  13
ENDBRANCH   2  11
TORSDOF 2
ENDMDL
MODEL 9
REMARK VINA RESULT:      -4.1      1.959      2.856
REMARK  2 active torsions:
REMARK  status: ('A' for Active; 'I' for Inactive)
REMARK    1  A    between atoms: C_2  and  C_3 
REMARK    2  A    between atoms: C_3  and  O_8 
ROOT
HETATM    1  N   UNL     1      64.695   6.790   3.709  1.00  0.00    -0.376 N 
HETATM    2  C   UNL     1      65.828   7.204   4.587  1.00  0.00     0.186 C 
HETATM    3  C   UNL     1      63.830   7.901   3.738  1.00  0.00     0.035 A 
HETATM    4  C   UNL     1      65.291   8.290   5.546  1.00  0.00     0.076 C 
HETATM    5  C   UNL     1      64.099   8.773   4.792  1.00  0.00    -0.029 A 
HETATM    6  C   UNL     1      62.729   8.089   2.926  1.00  0.00     0.029 A 
HETATM    7  C   UNL     1      63.294   9.871   5.044  1.00  0.00     0.009 A 
HETATM    8  C   UNL     1      61.911   9.197   3.161  1.00  0.00     0.002 A 
HETATM    9  C   UNL     1      62.193  10.083   4.212  1.00  0.00     0.001 A 
HETATM   10  H   UNL     1      64.580   5.941   3.224  1.00  0.00     0.160 HD
ENDROOT
BRANCH   2  11
HETATM   11  C   UNL     1      66.430   6.030   5.359  1.00  0.00     0.281 C 
HETATM   12  O   UNL     1      67.501   5.499   5.086  1.00  0.00    -0.263 OA
BRANCH  11  13
HETATM   13  O   UNL     1      65.580   5.591   6.335  1.00  0.00    -0.325 OA
HETATM   14  C   UNL     1      66.227   4.961   7.439  1.00  0.00     0.213 C 
ENDBRANCH  11  13
ENDBRANCH   2  11
TORSDOF 2
ENDMDL
