MODEL 1
REMARK VINA RESULT:      -4.8      0.000      0.000
REMARK  2 active torsions:
REMARK  status: ('A' for Active; 'I' for Inactive)
REMARK       I    between atoms: C_1  and  N_2 
REMARK    1  A    between atoms: C_1  and  C_3 
REMARK    2  A    between atoms: N_2  and  C_7 
ROOT
HETATM    1  C   UNL     1      65.414   7.960   5.616  1.00  0.00     0.229 C 
HETATM    2  N   UNL     1      64.041   8.141   5.673  1.00  0.00    -0.326 N 
HETATM    3  O   UNL     1      66.171   8.678   4.966  1.00  0.00    -0.272 OA
HETATM    4  H   UNL     1      63.530   7.569   6.290  1.00  0.00     0.169 HD
ENDROOT
BRANCH   2   5
HETATM    5  C   UNL     1      63.316   9.091   4.908  1.00  0.00     0.037 A 
HETATM    6  C   UNL     1      63.047  10.384   5.361  1.00  0.00     0.046 A 
HETATM    7  C   UNL     1      62.291  11.229   4.565  1.00  0.00     0.090 A 
HETATM    8  N   UNL     1      61.803  10.885   3.360  1.00  0.00    -0.375 N 
HETATM    9  C   UNL     1      62.097   9.642   2.923  1.00  0.00     0.090 A 
ATOM     10  HN  UNL     1      61.240  11.530   2.805  1.00  0.00     0.164 HD
HETATM   11  C   UNL     1      62.856   8.726   3.645  1.00  0.00     0.046 A 
ENDBRANCH   2   5
BRANCH   1  12
HETATM   12  C   UNL     1      65.984   6.779   6.438  1.00  0.00     0.030 C 
HETATM   13  C   UNL     1      64.867   5.778   6.767  1.00  0.00     0.025 C 
HETATM   14  C   UNL     1      67.047   6.066   5.573  1.00  0.00     0.025 C 
HETATM   15  C   UNL     1      66.659   7.248   7.735  1.00  0.00     0.025 C 
ENDBRANCH   1  12
TORSDOF 2
ENDMDL
MODEL 2
REMARK VINA RESULT:      -4.7      1.221      1.811
REMARK  2 active torsions:
REMARK  status: ('A' for Active; 'I' for Inactive)
REMARK       I    between atoms: C_1  and  N_2 
REMARK    1  A    between atoms: C_1  and  C_3 
REMARK    2  A    between atoms: N_2  and  C_7 
ROOT
HETATM    1  C   UNL     1      64.962   7.374   6.144  1.00  0.00     0.229 C 
HETATM    2  N   UNL     1      64.891   8.070   4.947  1.00  0.00    -0.326 N 
HETATM    3  O   UNL     1      64.003   7.205   6.894  1.00  0.00    -0.272 OA
HETATM    4  H   UNL     1      65.691   8.077   4.374  1.00  0.00     0.169 HD
ENDROOT
BRANCH   2   5
HETATM    5  C   UNL     1      63.748   8.773   4.486  1.00  0.00     0.037 A 
HETATM    6  C   UNL     1      62.928   8.299   3.461  1.00  0.00     0.046 A 
HETATM    7  C   UNL     1      61.860   9.077   3.043  1.00  0.00     0.090 A 
HETATM    8  N   UNL     1      61.549  10.271   3.578  1.00  0.00    -0.375 N 
HETATM    9  C   UNL     1      62.334  10.702   4.588  1.00  0.00     0.090 A 
ATOM     10  HN  UNL     1      60.761  10.822   3.238  1.00  0.00     0.164 HD
HETATM   11  C   UNL     1      63.422   9.989   5.083  1.00  0.00     0.046 A 
ENDBRANCH   2   5
BRANCH   1  12
HETATM   12  C   UNL     1      66.346   6.788   6.514  1.00  0.00     0.030 C 
HETATM   13  C   UNL     1      66.429   5.317   6.079  1.00  0.00     0.025 C 
HETATM   14  C   UNL     1      67.423   7.590   5.749  1.00  0.00     0.025 C 
HETATM   15  C   UNL     1      66.642   6.901   8.016  1.00  0.00     0.025 C 
ENDBRANCH   1  12
TORSDOF 2
ENDMDL
MODEL 3
REMARK VINA RESULT:      -4.4      1.724      5.366
REMARK  2 active torsions:
REMARK  status: ('A' for Active; 'I' for Inactive)
REMARK       I    between atoms: C_1  and  N_2 
REMARK    1  A    between atoms: C_1  and  C_3 
REMARK    2  A    between atoms: N_2  and  C_7 
ROOT
HETATM    1  C   UNL     1      63.903   8.723   4.780  1.00  0.00     0.229 C 
HETATM    2  N   UNL     1      64.572   7.509   4.778  1.00  0.00    -0.326 N 
HETATM    3  O   UNL     1      64.294   9.717   5.388  1.00  0.00    -0.272 OA
HETATM    4  H   UNL     1      64.228   6.798   4.190  1.00  0.00     0.169 HD
ENDROOT
BRANCH   2   5
HETATM    5  C   UNL     1      65.719   7.214   5.560  1.00  0.00     0.037 A 
HETATM    6  C   UNL     1      67.017   7.257   5.049  1.00  0.00     0.046 A 
HETATM    7  C   UNL     1      68.073   6.907   5.875  1.00  0.00     0.090 A 
HETATM    8  N   UNL     1      67.929   6.537   7.160  1.00  0.00    -0.375 N 
HETATM    9  C   UNL     1      66.670   6.530   7.647  1.00  0.00     0.090 A 
ATOM     10  HN  UNL     1      68.729   6.276   7.736  1.00  0.00     0.164 HD
HETATM   11  C   UNL     1      65.548   6.873   6.900  1.00  0.00     0.046 A 
ENDBRANCH   2   5
BRANCH   1  12
HETATM   12  C   UNL     1      62.598   8.787   3.949  1.00  0.00     0.030 C 
HETATM   13  C   UNL     1      61.532   7.874   4.571  1.00  0.00     0.025 C 
HETATM   14  C   UNL     1      62.082  10.243   3.985  1.00  0.00     0.025 C 
HETATM   15  C   UNL     1      62.824   8.396   2.482  1.00  0.00     0.025 C 
ENDBRANCH   1  12
TORSDOF 2
ENDMDL
MODEL 4
REMARK VINA RESULT:      -4.4      1.759      5.276
REMARK  2 active torsions:
REMARK  status: ('A' for Active; 'I' for Inactive)
REMARK       I    between atoms: C_1  and  N_2 
REMARK    1  A    between atoms: C_1  and  C_3 
REMARK    2  A    between atoms: N_2  and  C_7 
ROOT
HETATM    1  C   UNL     1      63.560   8.928   4.531  1.00  0.00     0.229 C 
HETATM    2  N   UNL     1      64.445   7.885   4.302  1.00  0.00    -0.326 N 
HETATM    3  O   UNL     1      63.691   9.749   5.436  1.00  0.00    -0.272 OA
HETATM    4  H   UNL     1      64.302   7.333   3.500  1.00  0.00     0.169 HD
ENDROOT
BRANCH   2   5
HETATM    5  C   UNL     1      65.541   7.554   5.140  1.00  0.00     0.037 A 
HETATM    6  C   UNL     1      65.383   7.046   6.430  1.00  0.00     0.046 A 
HETATM    7  C   UNL     1      66.512   6.796   7.194  1.00  0.00     0.090 A 
HETATM    8  N   UNL     1      67.769   7.001   6.762  1.00  0.00    -0.375 N 
HETATM    9  C   UNL     1      67.906   7.465   5.501  1.00  0.00     0.090 A 
ATOM     10  HN  UNL     1      68.577   6.816   7.356  1.00  0.00     0.164 HD
HETATM   11  C   UNL     1      66.834   7.737   4.655  1.00  0.00     0.046 A 
ENDBRANCH   2   5
BRANCH   1  12
HETATM   12  C   UNL     1      62.358   9.031   3.561  1.00  0.00     0.030 C 
HETATM   13  C   UNL     1      61.169   8.227   4.108  1.00  0.00     0.025 C 
HETATM   14  C   UNL     1      61.947  10.518   3.470  1.00  0.00     0.025 C 
HETATM   15  C   UNL     1      62.708   8.544   2.149  1.00  0.00     0.025 C 
ENDBRANCH   1  12
TORSDOF 2
ENDMDL
MODEL 5
REMARK VINA RESULT:      -4.3      1.885      5.313
REMARK  2 active torsions:
REMARK  status: ('A' for Active; 'I' for Inactive)
REMARK       I    between atoms: C_1  and  N_2 
REMARK    1  A    between atoms: C_1  and  C_3 
REMARK    2  A    between atoms: N_2  and  C_7 
ROOT
HETATM    1  C   UNL     1      63.121   8.145   3.387  1.00  0.00     0.229 C 
HETATM    2  N   UNL     1      63.354   8.480   4.712  1.00  0.00    -0.326 N 
HETATM    3  O   UNL     1      63.723   7.254   2.792  1.00  0.00    -0.272 OA
HETATM    4  H   UNL     1      62.761   9.148   5.126  1.00  0.00     0.169 HD
ENDROOT
BRANCH   2   5
HETATM    5  C   UNL     1      64.385   7.931   5.518  1.00  0.00     0.037 A 
HETATM    6  C   UNL     1      64.179   6.857   6.385  1.00  0.00     0.046 A 
HETATM    7  C   UNL     1      65.234   6.417   7.168  1.00  0.00     0.090 A 
HETATM    8  N   UNL     1      66.466   6.956   7.137  1.00  0.00    -0.375 N 
HETATM    9  C   UNL     1      66.657   7.974   6.271  1.00  0.00     0.090 A 
ATOM     10  HN  UNL     1      67.216   6.613   7.737  1.00  0.00     0.164 HD
HETATM   11  C   UNL     1      65.663   8.479   5.438  1.00  0.00     0.046 A 
ENDBRANCH   2   5
BRANCH   1  12
HETATM   12  C   UNL     1      62.026   8.960   2.657  1.00  0.00     0.030 C 
HETATM   13  C   UNL     1      62.280   8.947   1.143  1.00  0.00     0.025 C 
HETATM   14  C   UNL     1      60.665   8.284   2.934  1.00  0.00     0.025 C 
HETATM   15  C   UNL     1      61.951  10.409   3.158  1.00  0.00     0.025 C 
ENDBRANCH   1  12
TORSDOF 2
ENDMDL
MODEL 6
REMARK VINA RESULT:      -4.2      2.140      5.777
REMARK  2 active torsions:
REMARK  status: ('A' for Active; 'I' for Inactive)
REMARK       I    between atoms: C_1  and  N_2 
REMARK    1  A    between atoms: C_1  and  C_3 
REMARK    2  A    between atoms: N_2  and  C_7 
ROOT
HETATM    1  C   UNL     1      64.776   7.758   5.594  1.00  0.00     0.229 C 
HETATM    2  N   UNL     1      64.897   6.542   6.248  1.00  0.00    -0.326 N 
HETATM    3  O   UNL     1      65.657   8.615   5.577  1.00  0.00    -0.272 OA
HETATM    4  H   UNL     1      64.173   5.886   6.131  1.00  0.00     0.169 HD
ENDROOT
BRANCH   2   5
HETATM    5  C   UNL     1      65.989   6.171   7.075  1.00  0.00     0.037 A 
HETATM    6  C   UNL     1      67.076   5.429   6.609  1.00  0.00     0.046 A 
HETATM    7  C   UNL     1      68.075   5.073   7.500  1.00  0.00     0.090 A 
HETATM    8  N   UNL     1      68.074   5.412   8.801  1.00  0.00    -0.375 N 
HETATM    9  C   UNL     1      67.031   6.155   9.230  1.00  0.00     0.090 A 
ATOM     10  HN  UNL     1      68.821   5.122   9.432  1.00  0.00     0.164 HD
HETATM   11  C   UNL     1      65.986   6.569   8.410  1.00  0.00     0.046 A 
ENDBRANCH   2   5
BRANCH   1  12
HETATM   12  C   UNL     1      63.442   8.005   4.849  1.00  0.00     0.030 C 
HETATM   13  C   UNL     1      63.173   9.512   4.735  1.00  0.00     0.025 C 
HETATM   14  C   UNL     1      63.575   7.418   3.426  1.00  0.00     0.025 C 
HETATM   15  C   UNL     1      62.256   7.318   5.540  1.00  0.00     0.025 C 
ENDBRANCH   1  12
TORSDOF 2
ENDMDL
MODEL 7
REMARK VINA RESULT:      -4.0      3.629      5.404
REMARK  2 active torsions:
REMARK  status: ('A' for Active; 'I' for Inactive)
REMARK       I    between atoms: C_1  and  N_2 
REMARK    1  A    between atoms: C_1  and  C_3 
REMARK    2  A    between atoms: N_2  and  C_7 
ROOT
HETATM    1  C   UNL     1      62.785   7.469   5.873  1.00  0.00     0.229 C 
HETATM    2  N   UNL     1      61.969   6.412   5.499  1.00  0.00    -0.326 N 
HETATM    3  O   UNL     1      63.055   7.744   7.040  1.00  0.00    -0.272 OA
HETATM    4  H   UNL     1      61.883   6.219   4.538  1.00  0.00     0.169 HD
ENDROOT
BRANCH   2   5
HETATM    5  C   UNL     1      61.248   5.587   6.401  1.00  0.00     0.037 A 
HETATM    6  C   UNL     1      60.130   6.032   7.108  1.00  0.00     0.046 A 
HETATM    7  C   UNL     1      59.517   5.170   8.003  1.00  0.00     0.090 A 
HETATM    8  N   UNL     1      59.927   3.909   8.228  1.00  0.00    -0.375 N 
HETATM    9  C   UNL     1      60.991   3.484   7.515  1.00  0.00     0.090 A 
ATOM     10  HN  UNL     1      59.458   3.305   8.903  1.00  0.00     0.164 HD
HETATM   11  C   UNL     1      61.667   4.271   6.587  1.00  0.00     0.046 A 
ENDBRANCH   2   5
BRANCH   1  12
HETATM   12  C   UNL     1      63.374   8.319   4.722  1.00  0.00     0.030 C 
HETATM   13  C   UNL     1      62.667   9.681   4.656  1.00  0.00     0.025 C 
HETATM   14  C   UNL     1      64.871   8.556   5.022  1.00  0.00     0.025 C 
HETATM   15  C   UNL     1      63.265   7.613   3.363  1.00  0.00     0.025 C 
ENDBRANCH   1  12
TORSDOF 2
ENDMDL
MODEL 8
REMARK VINA RESULT:      -3.9      3.243      5.713
REMARK  2 active torsions:
REMARK  status: ('A' for Active; 'I' for Inactive)
REMARK       I    between atoms: C_1  and  N_2 
REMARK    1  A    between atoms: C_1  and  C_3 
REMARK    2  A    between atoms: N_2  and  C_7 
ROOT
HETATM    1  C   UNL     1      60.410   7.743   2.740  1.00  0.00     0.229 C 
HETATM    2  N   UNL     1      61.562   8.487   2.535  1.00  0.00    -0.326 N 
HETATM    3  O   UNL     1      59.858   7.627   3.833  1.00  0.00    -0.272 OA
HETATM    4  H   UNL     1      61.879   8.592   1.608  1.00  0.00     0.169 HD
ENDROOT
BRANCH   2   5
HETATM    5  C   UNL     1      62.318   9.111   3.561  1.00  0.00     0.037 A 
HETATM    6  C   UNL     1      63.422   8.505   4.163  1.00  0.00     0.046 A 
HETATM    7  C   UNL     1      64.072   9.170   5.191  1.00  0.00     0.090 A 
HETATM    8  N   UNL     1      63.712  10.384   5.643  1.00  0.00    -0.375 N 
HETATM    9  C   UNL     1      62.661  10.969   5.030  1.00  0.00     0.090 A 
ATOM     10  HN  UNL     1      64.207  10.839   6.410  1.00  0.00     0.164 HD
HETATM   11  C   UNL     1      61.951  10.386   3.985  1.00  0.00     0.046 A 
ENDBRANCH   2   5
BRANCH   1  12
HETATM   12  C   UNL     1      59.816   7.042   1.495  1.00  0.00     0.030 C 
HETATM   13  C   UNL     1      58.473   6.388   1.849  1.00  0.00     0.025 C 
HETATM   14  C   UNL     1      59.570   8.119   0.415  1.00  0.00     0.025 C 
HETATM   15  C   UNL     1      60.768   5.989   0.912  1.00  0.00     0.025 C 
ENDBRANCH   1  12
TORSDOF 2
ENDMDL
MODEL 9
REMARK VINA RESULT:      -3.9      2.058      2.610
REMARK  2 active torsions:
REMARK  status: ('A' for Active; 'I' for Inactive)
REMARK       I    between atoms: C_1  and  N_2 
REMARK    1  A    between atoms: C_1  and  C_3 
REMARK    2  A    between atoms: N_2  and  C_7 
ROOT
HETATM    1  C   UNL     1      62.780   6.943   4.832  1.00  0.00     0.229 C 
HETATM    2  N   UNL     1      63.445   7.999   4.229  1.00  0.00    -0.326 N 
HETATM    3  O   UNL     1      61.562   6.784   4.782  1.00  0.00    -0.272 OA
HETATM    4  H   UNL     1      64.429   7.992   4.251  1.00  0.00     0.169 HD
ENDROOT
BRANCH   2   5
HETATM    5  C   UNL     1      62.812   9.091   3.581  1.00  0.00     0.037 A 
HETATM    6  C   UNL     1      62.497  10.283   4.236  1.00  0.00     0.046 A 
HETATM    7  C   UNL     1      61.835  11.278   3.535  1.00  0.00     0.090 A 
HETATM    8  N   UNL     1      61.483  11.175   2.240  1.00  0.00    -0.375 N 
HETATM    9  C   UNL     1      61.822  10.028   1.613  1.00  0.00     0.090 A 
ATOM     10  HN  UNL     1      60.987  11.924   1.758  1.00  0.00     0.164 HD
HETATM   11  C   UNL     1      62.494   8.977   2.229  1.00  0.00     0.046 A 
ENDBRANCH   2   5
BRANCH   1  12
HETATM   12  C   UNL     1      63.661   5.925   5.595  1.00  0.00     0.030 C 
HETATM   13  C   UNL     1      64.628   5.232   4.624  1.00  0.00     0.025 C 
HETATM   14  C   UNL     1      64.488   6.702   6.643  1.00  0.00     0.025 C 
HETATM   15  C   UNL     1      62.824   4.871   6.333  1.00  0.00     0.025 C 
ENDBRANCH   1  12
TORSDOF 2
ENDMDL
