MODEL 1
REMARK VINA RESULT:      -3.9      0.000      0.000
REMARK  2 active torsions:
REMARK  status: ('A' for Active; 'I' for Inactive)
REMARK    1  A    between atoms: N_3  and  C_7 
REMARK    2  A    between atoms: C_4  and  C_7 
ROOT
HETATM    1  N   UNL     1      61.614  11.160   2.078  1.00  0.00    -0.375 N 
ATOM      2  HN  UNL     1      61.249  11.804   1.376  1.00  0.00     0.164 HD
HETATM    3  C   UNL     1      62.621   9.384   4.016  1.00  0.00    -0.030 A 
HETATM    4  C   UNL     1      61.830  11.548   3.353  1.00  0.00     0.088 A 
HETATM    5  C   UNL     1      61.906   9.877   1.781  1.00  0.00     0.088 A 
HETATM    6  C   UNL     1      62.324  10.711   4.343  1.00  0.00     0.026 A 
HETATM    7  C   UNL     1      62.396   8.963   2.701  1.00  0.00     0.026 A 
ENDROOT
BRANCH   3   8
HETATM    8  C   UNL     1      63.158   8.431   5.057  1.00  0.00     0.270 C 
BRANCH   8   9
HETATM    9  N   UNL     1      64.419   8.913   5.620  1.00  0.00    -0.075 N 
HETATM   10  C   UNL     1      65.544   8.120   5.150  1.00  0.00     0.267 C 
HETATM   11  H   UNL     1      64.373   8.854   6.638  1.00  0.00     0.277 HD
HETATM   12  H   UNL     1      64.557   9.879   5.321  1.00  0.00     0.277 HD
ENDBRANCH   8   9
ENDBRANCH   3   8
TORSDOF 2
ENDMDL
MODEL 2
REMARK VINA RESULT:      -3.9      0.238      1.574
REMARK  2 active torsions:
REMARK  status: ('A' for Active; 'I' for Inactive)
REMARK    1  A    between atoms: N_3  and  C_7 
REMARK    2  A    between atoms: C_4  and  C_7 
ROOT
HETATM    1  N   UNL     1      61.644  10.860   1.904  1.00  0.00    -0.375 N 
ATOM      2  HN  UNL     1      61.291  11.387   1.104  1.00  0.00     0.164 HD
HETATM    3  C   UNL     1      62.616   9.406   4.110  1.00  0.00    -0.030 A 
HETATM    4  C   UNL     1      61.978   9.556   1.804  1.00  0.00     0.088 A 
HETATM    5  C   UNL     1      61.800  11.431   3.117  1.00  0.00     0.088 A 
HETATM    6  C   UNL     1      62.461   8.797   2.861  1.00  0.00     0.026 A 
HETATM    7  C   UNL     1      62.281  10.759   4.230  1.00  0.00     0.026 A 
ENDROOT
BRANCH   3   8
HETATM    8  C   UNL     1      63.141   8.627   5.292  1.00  0.00     0.270 C 
BRANCH   8   9
HETATM    9  N   UNL     1      64.508   9.027   5.629  1.00  0.00    -0.075 N 
HETATM   10  C   UNL     1      65.480   8.092   5.084  1.00  0.00     0.267 C 
HETATM   11  H   UNL     1      64.605   9.055   6.644  1.00  0.00     0.277 HD
HETATM   12  H   UNL     1      64.683   9.948   5.225  1.00  0.00     0.277 HD
ENDBRANCH   8   9
ENDBRANCH   3   8
TORSDOF 2
ENDMDL
MODEL 3
REMARK VINA RESULT:      -3.7      1.529      4.048
REMARK  2 active torsions:
REMARK  status: ('A' for Active; 'I' for Inactive)
REMARK    1  A    between atoms: N_3  and  C_7 
REMARK    2  A    between atoms: C_4  and  C_7 
ROOT
HETATM    1  N   UNL     1      63.319  10.244   5.564  1.00  0.00    -0.375 N 
ATOM      2  HN  UNL     1      63.662  10.501   6.491  1.00  0.00     0.164 HD
HETATM    3  C   UNL     1      62.372   9.536   3.009  1.00  0.00    -0.030 A 
HETATM    4  C   UNL     1      63.645   9.069   4.987  1.00  0.00     0.088 A 
HETATM    5  C   UNL     1      62.516  11.063   4.854  1.00  0.00     0.088 A 
HETATM    6  C   UNL     1      63.204   8.675   3.732  1.00  0.00     0.026 A 
HETATM    7  C   UNL     1      62.019  10.756   3.597  1.00  0.00     0.026 A 
ENDROOT
BRANCH   3   8
HETATM    8  C   UNL     1      61.862   9.155   1.641  1.00  0.00     0.270 C 
BRANCH   8   9
HETATM    9  N   UNL     1      60.402   9.054   1.626  1.00  0.00    -0.075 N 
HETATM   10  C   UNL     1      59.950   8.097   0.629  1.00  0.00     0.267 C 
HETATM   11  H   UNL     1      60.008   9.970   1.410  1.00  0.00     0.277 HD
HETATM   12  H   UNL     1      60.092   8.735   2.544  1.00  0.00     0.277 HD
ENDBRANCH   8   9
ENDBRANCH   3   8
TORSDOF 2
ENDMDL
MODEL 4
REMARK VINA RESULT:      -3.5      1.348      3.932
REMARK  2 active torsions:
REMARK  status: ('A' for Active; 'I' for Inactive)
REMARK    1  A    between atoms: N_3  and  C_7 
REMARK    2  A    between atoms: C_4  and  C_7 
ROOT
HETATM    1  N   UNL     1      64.934   7.258   4.330  1.00  0.00    -0.375 N 
ATOM      2  HN  UNL     1      65.662   6.551   4.433  1.00  0.00     0.164 HD
HETATM    3  C   UNL     1      62.925   9.210   4.046  1.00  0.00    -0.030 A 
HETATM    4  C   UNL     1      64.857   8.323   5.155  1.00  0.00     0.088 A 
HETATM    5  C   UNL     1      63.998   7.177   3.362  1.00  0.00     0.088 A 
HETATM    6  C   UNL     1      63.887   9.311   5.056  1.00  0.00     0.026 A 
HETATM    7  C   UNL     1      62.995   8.116   3.177  1.00  0.00     0.026 A 
ENDROOT
BRANCH   3   8
HETATM    8  C   UNL     1      61.850  10.259   3.892  1.00  0.00     0.270 C 
BRANCH   8   9
HETATM    9  N   UNL     1      61.448  10.407   2.493  1.00  0.00    -0.075 N 
HETATM   10  C   UNL     1      61.770  11.734   1.991  1.00  0.00     0.267 C 
HETATM   11  H   UNL     1      60.441  10.259   2.419  1.00  0.00     0.277 HD
HETATM   12  H   UNL     1      61.956   9.719   1.937  1.00  0.00     0.277 HD
ENDBRANCH   8   9
ENDBRANCH   3   8
TORSDOF 2
ENDMDL
MODEL 5
REMARK VINA RESULT:      -3.4      1.680      2.070
REMARK  2 active torsions:
REMARK  status: ('A' for Active; 'I' for Inactive)
REMARK    1  A    between atoms: N_3  and  C_7 
REMARK    2  A    between atoms: C_4  and  C_7 
ROOT
HETATM    1  N   UNL     1      61.747  11.373   3.054  1.00  0.00    -0.375 N 
ATOM      2  HN  UNL     1      61.458  12.338   3.217  1.00  0.00     0.164 HD
HETATM    3  C   UNL     1      62.546   8.711   2.606  1.00  0.00    -0.030 A 
HETATM    4  C   UNL     1      62.127  10.566   4.067  1.00  0.00     0.088 A 
HETATM    5  C   UNL     1      61.770  10.838   1.816  1.00  0.00     0.088 A 
HETATM    6  C   UNL     1      62.528   9.248   3.898  1.00  0.00     0.026 A 
HETATM    7  C   UNL     1      62.148   9.532   1.546  1.00  0.00     0.026 A 
ENDROOT
BRANCH   3   8
HETATM    8  C   UNL     1      62.971   7.282   2.367  1.00  0.00     0.270 C 
BRANCH   8   9
HETATM    9  N   UNL     1      64.138   6.931   3.178  1.00  0.00    -0.075 N 
HETATM   10  C   UNL     1      63.902   5.716   3.942  1.00  0.00     0.267 C 
HETATM   11  H   UNL     1      64.337   7.696   3.823  1.00  0.00     0.277 HD
HETATM   12  H   UNL     1      64.928   6.771   2.553  1.00  0.00     0.277 HD
ENDBRANCH   8   9
ENDBRANCH   3   8
TORSDOF 2
ENDMDL
MODEL 6
REMARK VINA RESULT:      -3.3     12.269     13.837
REMARK  2 active torsions:
REMARK  status: ('A' for Active; 'I' for Inactive)
REMARK    1  A    between atoms: N_3  and  C_7 
REMARK    2  A    between atoms: C_4  and  C_7 
ROOT
HETATM    1  N   UNL     1      59.389   2.166  12.568  1.00  0.00    -0.375 N 
ATOM      2  HN  UNL     1      60.365   2.203  12.270  1.00  0.00     0.164 HD
HETATM    3  C   UNL     1      56.698   2.061  13.388  1.00  0.00    -0.030 A 
HETATM    4  C   UNL     1      58.386   2.580  11.766  1.00  0.00     0.088 A 
HETATM    5  C   UNL     1      59.036   1.698  13.783  1.00  0.00     0.088 A 
HETATM    6  C   UNL     1      57.046   2.549  12.124  1.00  0.00     0.026 A 
HETATM    7  C   UNL     1      57.726   1.620  14.229  1.00  0.00     0.026 A 
ENDROOT
BRANCH   3   8
HETATM    8  C   UNL     1      55.255   2.002  13.827  1.00  0.00     0.270 C 
BRANCH   8   9
HETATM    9  N   UNL     1      54.926   3.110  14.724  1.00  0.00    -0.075 N 
HETATM   10  C   UNL     1      54.391   4.244  13.987  1.00  0.00     0.267 C 
HETATM   11  H   UNL     1      55.771   3.401  15.216  1.00  0.00     0.277 HD
HETATM   12  H   UNL     1      54.216   2.790  15.384  1.00  0.00     0.277 HD
ENDBRANCH   8   9
ENDBRANCH   3   8
TORSDOF 2
ENDMDL
MODEL 7
REMARK VINA RESULT:      -3.2      2.448      5.215
REMARK  2 active torsions:
REMARK  status: ('A' for Active; 'I' for Inactive)
REMARK    1  A    between atoms: N_3  and  C_7 
REMARK    2  A    between atoms: C_4  and  C_7 
ROOT
HETATM    1  N   UNL     1      67.712   6.461   4.625  1.00  0.00    -0.375 N 
ATOM      2  HN  UNL     1      68.615   5.991   4.554  1.00  0.00     0.164 HD
HETATM    3  C   UNL     1      65.219   7.756   4.822  1.00  0.00    -0.030 A 
HETATM    4  C   UNL     1      66.679   6.141   3.818  1.00  0.00     0.088 A 
HETATM    5  C   UNL     1      67.487   7.434   5.533  1.00  0.00     0.088 A 
HETATM    6  C   UNL     1      65.433   6.749   3.875  1.00  0.00     0.026 A 
HETATM    7  C   UNL     1      66.277   8.095   5.673  1.00  0.00     0.026 A 
ENDROOT
BRANCH   3   8
HETATM    8  C   UNL     1      63.882   8.448   4.930  1.00  0.00     0.270 C 
BRANCH   8   9
HETATM    9  N   UNL     1      63.994   9.714   5.653  1.00  0.00    -0.075 N 
HETATM   10  C   UNL     1      62.916  10.623   5.295  1.00  0.00     0.267 C 
HETATM   11  H   UNL     1      64.887  10.151   5.422  1.00  0.00     0.277 HD
HETATM   12  H   UNL     1      63.935   9.521   6.653  1.00  0.00     0.277 HD
ENDBRANCH   8   9
ENDBRANCH   3   8
TORSDOF 2
ENDMDL
MODEL 8
REMARK VINA RESULT:      -3.2     10.811     12.486
REMARK  2 active torsions:
REMARK  status: ('A' for Active; 'I' for Inactive)
REMARK    1  A    between atoms: N_3  and  C_7 
REMARK    2  A    between atoms: C_4  and  C_7 
ROOT
HETATM    1  N   UNL     1      57.335   1.699  14.486  1.00  0.00    -0.375 N 
ATOM      2  HN  UNL     1      57.051   1.454  15.435  1.00  0.00     0.164 HD
HETATM    3  C   UNL     1      58.118   2.374  11.867  1.00  0.00    -0.030 A 
HETATM    4  C   UNL     1      58.616   1.586  14.076  1.00  0.00     0.088 A 
HETATM    5  C   UNL     1      56.449   2.153  13.575  1.00  0.00     0.088 A 
HETATM    6  C   UNL     1      59.051   1.905  12.798  1.00  0.00     0.026 A 
HETATM    7  C   UNL     1      56.785   2.490  12.273  1.00  0.00     0.026 A 
ENDROOT
BRANCH   3   8
HETATM    8  C   UNL     1      58.539   2.733  10.462  1.00  0.00     0.270 C 
BRANCH   8   9
HETATM    9  N   UNL     1      58.570   4.183  10.270  1.00  0.00    -0.075 N 
HETATM   10  C   UNL     1      58.899   4.525   8.895  1.00  0.00     0.267 C 
HETATM   11  H   UNL     1      59.273   4.585  10.890  1.00  0.00     0.277 HD
HETATM   12  H   UNL     1      57.645   4.557  10.484  1.00  0.00     0.277 HD
ENDBRANCH   8   9
ENDBRANCH   3   8
TORSDOF 2
ENDMDL
MODEL 9
REMARK VINA RESULT:      -3.1      3.617      7.080
REMARK  2 active torsions:
REMARK  status: ('A' for Active; 'I' for Inactive)
REMARK    1  A    between atoms: N_3  and  C_7 
REMARK    2  A    between atoms: C_4  and  C_7 
ROOT
HETATM    1  N   UNL     1      66.995   4.394   8.580  1.00  0.00    -0.375 N 
ATOM      2  HN  UNL     1      67.014   3.579   9.195  1.00  0.00     0.164 HD
HETATM    3  C   UNL     1      66.941   6.641   6.885  1.00  0.00    -0.030 A 
HETATM    4  C   UNL     1      66.432   5.559   8.963  1.00  0.00     0.088 A 
HETATM    5  C   UNL     1      67.531   4.362   7.343  1.00  0.00     0.088 A 
HETATM    6  C   UNL     1      66.381   6.693   8.166  1.00  0.00     0.026 A 
HETATM    7  C   UNL     1      67.536   5.443   6.475  1.00  0.00     0.026 A 
ENDROOT
BRANCH   3   8
HETATM    8  C   UNL     1      66.916   7.848   5.978  1.00  0.00     0.270 C 
BRANCH   8   9
HETATM    9  N   UNL     1      65.682   8.616   6.150  1.00  0.00    -0.075 N 
HETATM   10  C   UNL     1      64.794   8.448   5.010  1.00  0.00     0.267 C 
HETATM   11  H   UNL     1      65.917   9.604   6.246  1.00  0.00     0.277 HD
HETATM   12  H   UNL     1      65.204   8.276   6.985  1.00  0.00     0.277 HD
ENDBRANCH   8   9
ENDBRANCH   3   8
TORSDOF 2
ENDMDL
