MODEL 1
REMARK VINA RESULT:      -4.6      0.000      0.000
REMARK  1 active torsions:
REMARK  status: ('A' for Active; 'I' for Inactive)
REMARK    1  A    between atoms: C_1  and  C_2 
ROOT
HETATM    1  C   UNL     1      62.469   9.278   2.934  1.00  0.00     0.113 C 
HETATM    2  N   UNL     1      63.117   8.170   2.930  1.00  0.00    -0.384 N 
ATOM      3  HN  UNL     1      63.097   7.661   2.046  1.00  0.00     0.159 HD
HETATM    4  C   UNL     1      62.189  10.222   4.057  1.00  0.00     0.050 C 
HETATM    5  N   UNL     1      63.869   9.418   5.613  1.00  0.00    -0.397 N 
HETATM    6  C   UNL     1      62.895  10.280   5.190  1.00  0.00     0.085 C 
HETATM    7  C   UNL     1      63.876   7.530   3.995  1.00  0.00     0.139 C 
HETATM    8  C   UNL     1      63.670   7.982   5.435  1.00  0.00     0.138 C 
HETATM    9  H   UNL     1      64.691   9.761   6.032  1.00  0.00     0.158 HD
ENDROOT
BRANCH   1  10
HETATM   10  C   UNL     1      61.901   9.750   1.574  1.00  0.00     0.432 C 
HETATM   11  F   UNL     1      60.666   9.238   1.298  1.00  0.00    -0.165 F 
HETATM   12  F   UNL     1      62.694   9.397   0.524  1.00  0.00    -0.165 F 
HETATM   13  F   UNL     1      61.761  11.104   1.519  1.00  0.00    -0.165 F 
ENDBRANCH   1  10
TORSDOF 1
ENDMDL
MODEL 2
REMARK VINA RESULT:      -4.2      1.245      2.432
REMARK  1 active torsions:
REMARK  status: ('A' for Active; 'I' for Inactive)
REMARK    1  A    between atoms: C_1  and  C_2 
ROOT
HETATM    1  C   UNL     1      62.416   9.362   2.788  1.00  0.00     0.113 C 
HETATM    2  N   UNL     1      62.010  10.536   3.109  1.00  0.00    -0.384 N 
ATOM      3  HN  UNL     1      61.536  11.048   2.365  1.00  0.00     0.159 HD
HETATM    4  C   UNL     1      63.230   8.381   3.567  1.00  0.00     0.050 C 
HETATM    5  N   UNL     1      62.937   9.358   5.769  1.00  0.00    -0.397 N 
HETATM    6  C   UNL     1      63.361   8.394   4.896  1.00  0.00     0.085 C 
HETATM    7  C   UNL     1      62.125  11.249   4.374  1.00  0.00     0.139 C 
HETATM    8  C   UNL     1      63.122  10.763   5.417  1.00  0.00     0.138 C 
HETATM    9  H   UNL     1      62.513   9.108   6.621  1.00  0.00     0.158 HD
ENDROOT
BRANCH   1  10
HETATM   10  C   UNL     1      61.987   8.840   1.396  1.00  0.00     0.432 C 
HETATM   11  F   UNL     1      62.660   9.432   0.366  1.00  0.00    -0.165 F 
HETATM   12  F   UNL     1      60.664   9.047   1.144  1.00  0.00    -0.165 F 
HETATM   13  F   UNL     1      62.204   7.502   1.260  1.00  0.00    -0.165 F 
ENDBRANCH   1  10
TORSDOF 1
ENDMDL
MODEL 3
REMARK VINA RESULT:      -3.9      3.759      4.851
REMARK  1 active torsions:
REMARK  status: ('A' for Active; 'I' for Inactive)
REMARK    1  A    between atoms: C_1  and  C_2 
ROOT
HETATM    1  C   UNL     1      65.272   7.783   5.825  1.00  0.00     0.113 C 
HETATM    2  N   UNL     1      65.042   7.229   6.960  1.00  0.00    -0.384 N 
ATOM      3  HN  UNL     1      64.127   7.432   7.362  1.00  0.00     0.159 HD
HETATM    4  C   UNL     1      66.517   7.803   5.001  1.00  0.00     0.050 C 
HETATM    5  N   UNL     1      67.672   5.956   6.072  1.00  0.00    -0.397 N 
HETATM    6  C   UNL     1      67.512   6.919   5.113  1.00  0.00     0.085 C 
HETATM    7  C   UNL     1      65.890   6.355   7.760  1.00  0.00     0.139 C 
HETATM    8  C   UNL     1      67.382   6.288   7.464  1.00  0.00     0.138 C 
HETATM    9  H   UNL     1      67.976   5.053   5.826  1.00  0.00     0.158 HD
ENDROOT
BRANCH   1  10
HETATM   10  C   UNL     1      64.086   8.530   5.169  1.00  0.00     0.432 C 
HETATM   11  F   UNL     1      64.155   9.885   5.313  1.00  0.00    -0.165 F 
HETATM   12  F   UNL     1      62.882   8.161   5.690  1.00  0.00    -0.165 F 
HETATM   13  F   UNL     1      64.016   8.302   3.827  1.00  0.00    -0.165 F 
ENDBRANCH   1  10
TORSDOF 1
ENDMDL
MODEL 4
REMARK VINA RESULT:      -3.9      1.157      2.275
REMARK  1 active torsions:
REMARK  status: ('A' for Active; 'I' for Inactive)
REMARK    1  A    between atoms: C_1  and  C_2 
ROOT
HETATM    1  C   UNL     1      62.569   8.907   2.695  1.00  0.00     0.113 C 
HETATM    2  N   UNL     1      62.606   9.650   3.741  1.00  0.00    -0.384 N 
ATOM      3  HN  UNL     1      62.345  10.624   3.588  1.00  0.00     0.159 HD
HETATM    4  C   UNL     1      62.981   7.482   2.515  1.00  0.00     0.050 C 
HETATM    5  N   UNL     1      63.048   6.841   4.855  1.00  0.00    -0.397 N 
HETATM    6  C   UNL     1      63.105   6.599   3.509  1.00  0.00     0.085 C 
HETATM    7  C   UNL     1      62.963   9.313   5.112  1.00  0.00     0.139 C 
HETATM    8  C   UNL     1      63.721   8.021   5.391  1.00  0.00     0.138 C 
HETATM    9  H   UNL     1      62.561   6.229   5.451  1.00  0.00     0.158 HD
ENDROOT
BRANCH   1  10
HETATM   10  C   UNL     1      61.986   9.548   1.413  1.00  0.00     0.432 C 
HETATM   11  F   UNL     1      62.653   9.188   0.278  1.00  0.00    -0.165 F 
HETATM   12  F   UNL     1      62.018  10.909   1.447  1.00  0.00    -0.165 F 
HETATM   13  F   UNL     1      60.687   9.193   1.207  1.00  0.00    -0.165 F 
ENDBRANCH   1  10
TORSDOF 1
ENDMDL
MODEL 5
REMARK VINA RESULT:      -3.8      4.142      5.302
REMARK  1 active torsions:
REMARK  status: ('A' for Active; 'I' for Inactive)
REMARK    1  A    between atoms: C_1  and  C_2 
ROOT
HETATM    1  C   UNL     1      65.293   8.065   5.305  1.00  0.00     0.113 C 
HETATM    2  N   UNL     1      64.571   9.075   5.629  1.00  0.00    -0.384 N 
ATOM      3  HN  UNL     1      64.946   9.651   6.382  1.00  0.00     0.159 HD
HETATM    4  C   UNL     1      65.019   6.958   4.341  1.00  0.00     0.050 C 
HETATM    5  N   UNL     1      63.205   8.006   3.115  1.00  0.00    -0.397 N 
HETATM    6  C   UNL     1      64.129   7.024   3.347  1.00  0.00     0.085 C 
HETATM    7  C   UNL     1      63.296   9.522   5.084  1.00  0.00     0.139 C 
HETATM    8  C   UNL     1      62.464   8.562   4.244  1.00  0.00     0.138 C 
HETATM    9  H   UNL     1      63.043   8.333   2.201  1.00  0.00     0.158 HD
ENDROOT
BRANCH   1  10
HETATM   10  C   UNL     1      66.683   7.966   5.980  1.00  0.00     0.432 C 
HETATM   11  F   UNL     1      67.717   8.199   5.121  1.00  0.00    -0.165 F 
HETATM   12  F   UNL     1      66.916   6.738   6.520  1.00  0.00    -0.165 F 
HETATM   13  F   UNL     1      66.828   8.870   6.989  1.00  0.00    -0.165 F 
ENDBRANCH   1  10
TORSDOF 1
ENDMDL
MODEL 6
REMARK VINA RESULT:      -3.8      3.686      4.536
REMARK  1 active torsions:
REMARK  status: ('A' for Active; 'I' for Inactive)
REMARK    1  A    between atoms: C_1  and  C_2 
ROOT
HETATM    1  C   UNL     1      65.281   7.810   5.613  1.00  0.00     0.113 C 
HETATM    2  N   UNL     1      66.367   7.999   4.956  1.00  0.00    -0.384 N 
ATOM      3  HN  UNL     1      66.265   8.545   4.100  1.00  0.00     0.159 HD
HETATM    4  C   UNL     1      65.027   6.986   6.832  1.00  0.00     0.050 C 
HETATM    5  N   UNL     1      67.328   6.720   7.557  1.00  0.00    -0.397 N 
HETATM    6  C   UNL     1      65.972   6.596   7.692  1.00  0.00     0.085 C 
HETATM    7  C   UNL     1      67.723   7.553   5.247  1.00  0.00     0.139 C 
HETATM    8  C   UNL     1      67.940   6.437   6.262  1.00  0.00     0.138 C 
HETATM    9  H   UNL     1      67.882   6.996   8.322  1.00  0.00     0.158 HD
ENDROOT
BRANCH   1  10
HETATM   10  C   UNL     1      64.028   8.564   5.106  1.00  0.00     0.432 C 
HETATM   11  F   UNL     1      62.870   8.142   5.693  1.00  0.00    -0.165 F 
HETATM   12  F   UNL     1      63.839   8.423   3.765  1.00  0.00    -0.165 F 
HETATM   13  F   UNL     1      64.101   9.903   5.350  1.00  0.00    -0.165 F 
ENDBRANCH   1  10
TORSDOF 1
ENDMDL
MODEL 7
REMARK VINA RESULT:      -3.8      5.321      6.585
REMARK  1 active torsions:
REMARK  status: ('A' for Active; 'I' for Inactive)
REMARK    1  A    between atoms: C_1  and  C_2 
ROOT
HETATM    1  C   UNL     1      67.257   6.766   6.221  1.00  0.00     0.113 C 
HETATM    2  N   UNL     1      67.068   7.390   7.326  1.00  0.00    -0.384 N 
ATOM      3  HN  UNL     1      66.875   8.387   7.231  1.00  0.00     0.159 HD
HETATM    4  C   UNL     1      67.663   5.350   5.975  1.00  0.00     0.050 C 
HETATM    5  N   UNL     1      67.168   4.460   8.178  1.00  0.00    -0.397 N 
HETATM    6  C   UNL     1      67.530   4.360   6.862  1.00  0.00     0.085 C 
HETATM    7  C   UNL     1      67.088   6.890   8.694  1.00  0.00     0.139 C 
HETATM    8  C   UNL     1      67.727   5.539   8.987  1.00  0.00     0.138 C 
HETATM    9  H   UNL     1      66.540   3.813   8.573  1.00  0.00     0.158 HD
ENDROOT
BRANCH   1  10
HETATM   10  C   UNL     1      67.005   7.569   4.923  1.00  0.00     0.432 C 
HETATM   11  F   UNL     1      66.729   6.780   3.844  1.00  0.00    -0.165 F 
HETATM   12  F   UNL     1      68.075   8.331   4.562  1.00  0.00    -0.165 F 
HETATM   13  F   UNL     1      65.945   8.417   5.042  1.00  0.00    -0.165 F 
ENDBRANCH   1  10
TORSDOF 1
ENDMDL
MODEL 8
REMARK VINA RESULT:      -3.8      3.265      4.072
REMARK  1 active torsions:
REMARK  status: ('A' for Active; 'I' for Inactive)
REMARK    1  A    between atoms: C_1  and  C_2 
ROOT
HETATM    1  C   UNL     1      63.438   8.583   4.241  1.00  0.00     0.113 C 
HETATM    2  N   UNL     1      63.238   7.983   3.125  1.00  0.00    -0.384 N 
ATOM      3  HN  UNL     1      63.695   7.075   3.033  1.00  0.00     0.159 HD
HETATM    4  C   UNL     1      63.028   9.948   4.685  1.00  0.00     0.050 C 
HETATM    5  N   UNL     1      61.336  10.368   2.997  1.00  0.00    -0.397 N 
HETATM    6  C   UNL     1      62.039  10.657   4.135  1.00  0.00     0.085 C 
HETATM    7  C   UNL     1      62.457   8.402   1.968  1.00  0.00     0.139 C 
HETATM    8  C   UNL     1      62.054   9.864   1.830  1.00  0.00     0.138 C 
HETATM    9  H   UNL     1      60.361  10.499   2.967  1.00  0.00     0.158 HD
ENDROOT
BRANCH   1  10
HETATM   10  C   UNL     1      64.194   7.781   5.329  1.00  0.00     0.432 C 
HETATM   11  F   UNL     1      65.287   8.435   5.820  1.00  0.00    -0.165 F 
HETATM   12  F   UNL     1      64.651   6.582   4.873  1.00  0.00    -0.165 F 
HETATM   13  F   UNL     1      63.407   7.513   6.408  1.00  0.00    -0.165 F 
ENDBRANCH   1  10
TORSDOF 1
ENDMDL
MODEL 9
REMARK VINA RESULT:      -3.8      1.823      2.536
REMARK  1 active torsions:
REMARK  status: ('A' for Active; 'I' for Inactive)
REMARK    1  A    between atoms: C_1  and  C_2 
ROOT
HETATM    1  C   UNL     1      63.141   8.859   3.851  1.00  0.00     0.113 C 
HETATM    2  N   UNL     1      63.056   7.921   2.981  1.00  0.00    -0.384 N 
ATOM      3  HN  UNL     1      62.301   8.027   2.303  1.00  0.00     0.159 HD
HETATM    4  C   UNL     1      64.034   8.988   5.041  1.00  0.00     0.050 C 
HETATM    5  N   UNL     1      65.677   7.312   4.424  1.00  0.00    -0.397 N 
HETATM    6  C   UNL     1      65.183   8.325   5.200  1.00  0.00     0.085 C 
HETATM    7  C   UNL     1      63.876   6.728   2.813  1.00  0.00     0.139 C 
HETATM    8  C   UNL     1      64.768   6.268   3.958  1.00  0.00     0.138 C 
HETATM    9  H   UNL     1      66.631   7.287   4.185  1.00  0.00     0.158 HD
ENDROOT
BRANCH   1  10
HETATM   10  C   UNL     1      62.205  10.075   3.648  1.00  0.00     0.432 C 
HETATM   11  F   UNL     1      62.258  10.593   2.386  1.00  0.00    -0.165 F 
HETATM   12  F   UNL     1      62.498  11.108   4.487  1.00  0.00    -0.165 F 
HETATM   13  F   UNL     1      60.897   9.758   3.864  1.00  0.00    -0.165 F 
ENDBRANCH   1  10
TORSDOF 1
ENDMDL
