MODEL 1
REMARK VINA RESULT:      -5.1      0.000      0.000
REMARK  3 active torsions:
REMARK  status: ('A' for Active; 'I' for Inactive)
REMARK    1  A    between atoms: C_1  and  C_6 
REMARK    2  A    between atoms: C_6  and  O_11 
REMARK    3  A    between atoms: C_10  and  N_12 
ROOT
HETATM    1  C   UNL     1      63.465   7.257   5.271  1.00  0.00     0.081 A 
HETATM    2  S   UNL     1      63.330   6.627   3.689  1.00  0.00    -0.084 SA
HETATM    3  C   UNL     1      63.109   8.592   5.304  1.00  0.00     0.038 A 
HETATM    4  C   UNL     1      62.716   9.111   4.026  1.00  0.00    -0.015 A 
HETATM    5  C   UNL     1      62.790   8.127   3.040  1.00  0.00     0.016 A 
HETATM    6  C   UNL     1      62.271  10.403   3.651  1.00  0.00     0.041 A 
HETATM    7  C   UNL     1      62.432   8.399   1.707  1.00  0.00     0.022 A 
HETATM    8  C   UNL     1      61.950  10.704   2.322  1.00  0.00     0.026 A 
HETATM    9  C   UNL     1      61.994   9.686   1.375  1.00  0.00     0.030 A 
ENDROOT
BRANCH   1  10
HETATM   10  C   UNL     1      63.904   6.395   6.353  1.00  0.00     0.299 C 
HETATM   11  O   UNL     1      63.728   5.185   6.443  1.00  0.00    -0.259 OA
BRANCH  10  12
HETATM   12  O   UNL     1      64.563   7.141   7.291  1.00  0.00    -0.322 OA
HETATM   13  C   UNL     1      65.786   6.564   7.748  1.00  0.00     0.213 C 
ENDBRANCH  10  12
ENDBRANCH   1  10
BRANCH   8  14
HETATM   14  N   UNL     1      61.364  11.936   2.003  1.00  0.00    -0.399 N 
HETATM   15  H   UNL     1      61.849  12.582   1.441  1.00  0.00     0.156 HD
HETATM   16  H   UNL     1      60.466  12.156   2.342  1.00  0.00     0.156 HD
ENDBRANCH   8  14
TORSDOF 3
ENDMDL
MODEL 2
REMARK VINA RESULT:      -4.7      1.834      2.297
REMARK  3 active torsions:
REMARK  status: ('A' for Active; 'I' for Inactive)
REMARK    1  A    between atoms: C_1  and  C_6 
REMARK    2  A    between atoms: C_6  and  O_11 
REMARK    3  A    between atoms: C_10  and  N_12 
ROOT
HETATM    1  C   UNL     1      65.239   7.916   5.290  1.00  0.00     0.081 A 
HETATM    2  S   UNL     1      65.256   6.599   4.202  1.00  0.00    -0.084 SA
HETATM    3  C   UNL     1      64.246   8.818   4.959  1.00  0.00     0.038 A 
HETATM    4  C   UNL     1      63.483   8.431   3.807  1.00  0.00    -0.015 A 
HETATM    5  C   UNL     1      63.936   7.218   3.289  1.00  0.00     0.016 A 
HETATM    6  C   UNL     1      62.385   9.063   3.172  1.00  0.00     0.041 A 
HETATM    7  C   UNL     1      63.325   6.628   2.167  1.00  0.00     0.022 A 
HETATM    8  C   UNL     1      61.791   8.513   2.030  1.00  0.00     0.026 A 
HETATM    9  C   UNL     1      62.241   7.280   1.568  1.00  0.00     0.030 A 
ENDROOT
BRANCH   1  10
HETATM   10  C   UNL     1      66.195   7.961   6.381  1.00  0.00     0.299 C 
HETATM   11  O   UNL     1      66.710   8.965   6.863  1.00  0.00    -0.259 OA
BRANCH  10  12
HETATM   12  O   UNL     1      66.454   6.690   6.813  1.00  0.00    -0.322 OA
HETATM   13  C   UNL     1      66.290   6.503   8.219  1.00  0.00     0.213 C 
ENDBRANCH  10  12
ENDBRANCH   1  10
BRANCH   8  14
HETATM   14  N   UNL     1      60.613   9.069   1.515  1.00  0.00    -0.399 N 
HETATM   15  H   UNL     1      60.067   9.669   2.073  1.00  0.00     0.156 HD
HETATM   16  H   UNL     1      60.331   8.860   0.595  1.00  0.00     0.156 HD
ENDBRANCH   8  14
TORSDOF 3
ENDMDL
MODEL 3
REMARK VINA RESULT:      -4.6      3.606      5.745
REMARK  3 active torsions:
REMARK  status: ('A' for Active; 'I' for Inactive)
REMARK    1  A    between atoms: C_1  and  C_6 
REMARK    2  A    between atoms: C_6  and  O_11 
REMARK    3  A    between atoms: C_10  and  N_12 
ROOT
HETATM    1  C   UNL     1      62.925   8.966   4.557  1.00  0.00     0.081 A 
HETATM    2  S   UNL     1      62.416   7.441   5.134  1.00  0.00    -0.084 SA
HETATM    3  C   UNL     1      64.246   9.203   4.885  1.00  0.00     0.038 A 
HETATM    4  C   UNL     1      64.857   8.127   5.610  1.00  0.00    -0.015 A 
HETATM    5  C   UNL     1      63.955   7.084   5.816  1.00  0.00     0.016 A 
HETATM    6  C   UNL     1      66.178   7.978   6.101  1.00  0.00     0.041 A 
HETATM    7  C   UNL     1      64.336   5.909   6.490  1.00  0.00     0.022 A 
HETATM    8  C   UNL     1      66.565   6.834   6.810  1.00  0.00     0.026 A 
HETATM    9  C   UNL     1      65.650   5.796   6.958  1.00  0.00     0.030 A 
ENDROOT
BRANCH   1  10
HETATM   10  C   UNL     1      61.992   9.808   3.829  1.00  0.00     0.299 C 
HETATM   11  O   UNL     1      61.673  10.959   4.109  1.00  0.00    -0.259 OA
BRANCH  10  12
HETATM   12  O   UNL     1      61.501   9.121   2.755  1.00  0.00    -0.322 OA
HETATM   13  C   UNL     1      61.979   9.586   1.492  1.00  0.00     0.213 C 
ENDBRANCH  10  12
ENDBRANCH   1  10
BRANCH   8  14
HETATM   14  N   UNL     1      67.911   6.638   7.147  1.00  0.00    -0.399 N 
HETATM   15  H   UNL     1      68.537   6.275   6.479  1.00  0.00     0.156 HD
HETATM   16  H   UNL     1      68.230   6.865   8.050  1.00  0.00     0.156 HD
ENDBRANCH   8  14
TORSDOF 3
ENDMDL
MODEL 4
REMARK VINA RESULT:      -4.4      1.912      2.499
REMARK  3 active torsions:
REMARK  status: ('A' for Active; 'I' for Inactive)
REMARK    1  A    between atoms: C_1  and  C_6 
REMARK    2  A    between atoms: C_6  and  O_11 
REMARK    3  A    between atoms: C_10  and  N_12 
ROOT
HETATM    1  C   UNL     1      64.155   6.533   4.269  1.00  0.00     0.081 A 
HETATM    2  S   UNL     1      64.178   7.597   5.605  1.00  0.00    -0.084 SA
HETATM    3  C   UNL     1      63.514   7.109   3.189  1.00  0.00     0.038 A 
HETATM    4  C   UNL     1      63.039   8.437   3.447  1.00  0.00    -0.015 A 
HETATM    5  C   UNL     1      63.341   8.834   4.750  1.00  0.00     0.016 A 
HETATM    6  C   UNL     1      62.362   9.356   2.608  1.00  0.00     0.041 A 
HETATM    7  C   UNL     1      62.990  10.110   5.226  1.00  0.00     0.022 A 
HETATM    8  C   UNL     1      61.967  10.615   3.077  1.00  0.00     0.026 A 
HETATM    9  C   UNL     1      62.324  10.991   4.367  1.00  0.00     0.030 A 
ENDROOT
BRANCH   1  10
HETATM   10  C   UNL     1      64.768   5.222   4.382  1.00  0.00     0.299 C 
HETATM   11  O   UNL     1      64.320   4.165   3.949  1.00  0.00    -0.259 OA
BRANCH  10  12
HETATM   12  O   UNL     1      65.950   5.328   5.060  1.00  0.00    -0.322 OA
HETATM   13  C   UNL     1      67.102   5.425   4.221  1.00  0.00     0.213 C 
ENDBRANCH  10  12
ENDBRANCH   1  10
BRANCH   8  14
HETATM   14  N   UNL     1      61.442  11.562   2.187  1.00  0.00    -0.399 N 
HETATM   15  H   UNL     1      61.672  12.514   2.290  1.00  0.00     0.156 HD
HETATM   16  H   UNL     1      60.844  11.275   1.459  1.00  0.00     0.156 HD
ENDBRANCH   8  14
TORSDOF 3
ENDMDL
MODEL 5
REMARK VINA RESULT:      -4.3      2.391      2.917
REMARK  3 active torsions:
REMARK  status: ('A' for Active; 'I' for Inactive)
REMARK    1  A    between atoms: C_1  and  C_6 
REMARK    2  A    between atoms: C_6  and  O_11 
REMARK    3  A    between atoms: C_10  and  N_12 
ROOT
HETATM    1  C   UNL     1      65.791   6.712   4.597  1.00  0.00     0.081 A 
HETATM    2  S   UNL     1      65.564   8.037   5.651  1.00  0.00    -0.084 SA
HETATM    3  C   UNL     1      64.831   6.700   3.604  1.00  0.00     0.038 A 
HETATM    4  C   UNL     1      63.900   7.787   3.695  1.00  0.00    -0.015 A 
HETATM    5  C   UNL     1      64.191   8.607   4.784  1.00  0.00     0.016 A 
HETATM    6  C   UNL     1      62.802   8.134   2.869  1.00  0.00     0.041 A 
HETATM    7  C   UNL     1      63.423   9.752   5.064  1.00  0.00     0.022 A 
HETATM    8  C   UNL     1      62.000   9.246   3.156  1.00  0.00     0.026 A 
HETATM    9  C   UNL     1      62.347  10.065   4.225  1.00  0.00     0.030 A 
ENDROOT
BRANCH   1  10
HETATM   10  C   UNL     1      66.890   5.791   4.825  1.00  0.00     0.299 C 
HETATM   11  O   UNL     1      67.411   5.053   3.995  1.00  0.00    -0.259 OA
BRANCH  10  12
HETATM   12  O   UNL     1      67.278   5.859   6.134  1.00  0.00    -0.322 OA
HETATM   13  C   UNL     1      67.047   4.662   6.878  1.00  0.00     0.213 C 
ENDBRANCH  10  12
ENDBRANCH   1  10
BRANCH   8  14
HETATM   14  N   UNL     1      61.022   9.659   2.242  1.00  0.00    -0.399 N 
HETATM   15  H   UNL     1      61.280  10.180   1.447  1.00  0.00     0.156 HD
HETATM   16  H   UNL     1      60.077   9.428   2.395  1.00  0.00     0.156 HD
ENDBRANCH   8  14
TORSDOF 3
ENDMDL
MODEL 6
REMARK VINA RESULT:      -4.1      3.756      5.450
REMARK  3 active torsions:
REMARK  status: ('A' for Active; 'I' for Inactive)
REMARK    1  A    between atoms: C_1  and  C_6 
REMARK    2  A    between atoms: C_6  and  O_11 
REMARK    3  A    between atoms: C_10  and  N_12 
ROOT
HETATM    1  C   UNL     1      62.828   8.356   3.064  1.00  0.00     0.081 A 
HETATM    2  S   UNL     1      63.530   6.863   2.620  1.00  0.00    -0.084 SA
HETATM    3  C   UNL     1      63.463   8.892   4.168  1.00  0.00     0.038 A 
HETATM    4  C   UNL     1      64.541   8.083   4.657  1.00  0.00    -0.015 A 
HETATM    5  C   UNL     1      64.690   6.927   3.890  1.00  0.00     0.016 A 
HETATM    6  C   UNL     1      65.435   8.290   5.737  1.00  0.00     0.041 A 
HETATM    7  C   UNL     1      65.698   5.988   4.171  1.00  0.00     0.022 A 
HETATM    8  C   UNL     1      66.419   7.346   6.057  1.00  0.00     0.026 A 
HETATM    9  C   UNL     1      66.565   6.228   5.243  1.00  0.00     0.030 A 
ENDROOT
BRANCH   1  10
HETATM   10  C   UNL     1      61.714   8.884   2.297  1.00  0.00     0.299 C 
HETATM   11  O   UNL     1      60.561   8.463   2.295  1.00  0.00    -0.259 OA
BRANCH  10  12
HETATM   12  O   UNL     1      62.137   9.948   1.552  1.00  0.00    -0.322 OA
HETATM   13  C   UNL     1      61.791  11.222   2.097  1.00  0.00     0.213 C 
ENDBRANCH  10  12
ENDBRANCH   1  10
BRANCH   8  14
HETATM   14  N   UNL     1      67.389   7.644   7.023  1.00  0.00    -0.399 N 
HETATM   15  H   UNL     1      68.336   7.719   6.764  1.00  0.00     0.156 HD
HETATM   16  H   UNL     1      67.123   7.779   7.962  1.00  0.00     0.156 HD
ENDBRANCH   8  14
TORSDOF 3
ENDMDL
MODEL 7
REMARK VINA RESULT:      -4.1      3.905      6.367
REMARK  3 active torsions:
REMARK  status: ('A' for Active; 'I' for Inactive)
REMARK    1  A    between atoms: C_1  and  C_6 
REMARK    2  A    between atoms: C_6  and  O_11 
REMARK    3  A    between atoms: C_10  and  N_12 
ROOT
HETATM    1  C   UNL     1      63.802   7.612   5.495  1.00  0.00     0.081 A 
HETATM    2  S   UNL     1      65.403   8.151   5.243  1.00  0.00    -0.084 SA
HETATM    3  C   UNL     1      63.779   6.490   6.301  1.00  0.00     0.038 A 
HETATM    4  C   UNL     1      65.081   6.064   6.725  1.00  0.00    -0.015 A 
HETATM    5  C   UNL     1      66.074   6.897   6.212  1.00  0.00     0.016 A 
HETATM    6  C   UNL     1      65.474   4.988   7.560  1.00  0.00     0.041 A 
HETATM    7  C   UNL     1      67.433   6.685   6.510  1.00  0.00     0.022 A 
HETATM    8  C   UNL     1      66.823   4.736   7.834  1.00  0.00     0.026 A 
HETATM    9  C   UNL     1      67.783   5.614   7.341  1.00  0.00     0.030 A 
ENDROOT
BRANCH   1  10
HETATM   10  C   UNL     1      62.697   8.331   4.887  1.00  0.00     0.299 C 
HETATM   11  O   UNL     1      61.636   7.852   4.501  1.00  0.00    -0.259 OA
BRANCH  10  12
HETATM   12  O   UNL     1      63.010   9.659   4.799  1.00  0.00    -0.322 OA
HETATM   13  C   UNL     1      62.090  10.429   4.025  1.00  0.00     0.213 C 
ENDBRANCH  10  12
ENDBRANCH   1  10
BRANCH   8  14
HETATM   14  N   UNL     1      67.178   3.769   8.784  1.00  0.00    -0.399 N 
HETATM   15  H   UNL     1      67.918   3.147   8.600  1.00  0.00     0.156 HD
HETATM   16  H   UNL     1      66.686   3.713   9.635  1.00  0.00     0.156 HD
ENDBRANCH   8  14
TORSDOF 3
ENDMDL
MODEL 8
REMARK VINA RESULT:      -4.0      2.883      3.778
REMARK  3 active torsions:
REMARK  status: ('A' for Active; 'I' for Inactive)
REMARK    1  A    between atoms: C_1  and  C_6 
REMARK    2  A    between atoms: C_6  and  O_11 
REMARK    3  A    between atoms: C_10  and  N_12 
ROOT
HETATM    1  C   UNL     1      63.604   6.238   2.964  1.00  0.00     0.081 A 
HETATM    2  S   UNL     1      62.377   7.166   2.221  1.00  0.00    -0.084 SA
HETATM    3  C   UNL     1      64.192   6.937   4.001  1.00  0.00     0.038 A 
HETATM    4  C   UNL     1      63.634   8.243   4.200  1.00  0.00    -0.015 A 
HETATM    5  C   UNL     1      62.617   8.500   3.282  1.00  0.00     0.016 A 
HETATM    6  C   UNL     1      63.943   9.243   5.155  1.00  0.00     0.041 A 
HETATM    7  C   UNL     1      61.907   9.714   3.296  1.00  0.00     0.022 A 
HETATM    8  C   UNL     1      63.276  10.475   5.159  1.00  0.00     0.026 A 
HETATM    9  C   UNL     1      62.238  10.677   4.257  1.00  0.00     0.030 A 
ENDROOT
BRANCH   1  10
HETATM   10  C   UNL     1      63.892   4.902   2.475  1.00  0.00     0.299 C 
HETATM   11  O   UNL     1      63.281   3.874   2.750  1.00  0.00    -0.259 OA
BRANCH  10  12
HETATM   12  O   UNL     1      64.973   4.945   1.640  1.00  0.00    -0.322 OA
HETATM   13  C   UNL     1      64.788   4.257   0.403  1.00  0.00     0.213 C 
ENDBRANCH  10  12
ENDBRANCH   1  10
BRANCH   8  14
HETATM   14  N   UNL     1      63.485  11.382   6.206  1.00  0.00    -0.399 N 
HETATM   15  H   UNL     1      63.012  11.265   7.061  1.00  0.00     0.156 HD
HETATM   16  H   UNL     1      64.106  12.137   6.086  1.00  0.00     0.156 HD
ENDBRANCH   8  14
TORSDOF 3
ENDMDL
MODEL 9
REMARK VINA RESULT:      -4.0      1.841      2.616
REMARK  3 active torsions:
REMARK  status: ('A' for Active; 'I' for Inactive)
REMARK    1  A    between atoms: C_1  and  C_6 
REMARK    2  A    between atoms: C_6  and  O_11 
REMARK    3  A    between atoms: C_10  and  N_12 
ROOT
HETATM    1  C   UNL     1      62.877   6.318   4.852  1.00  0.00     0.081 A 
HETATM    2  S   UNL     1      63.327   7.475   6.025  1.00  0.00    -0.084 SA
HETATM    3  C   UNL     1      62.340   6.930   3.735  1.00  0.00     0.038 A 
HETATM    4  C   UNL     1      62.299   8.360   3.830  1.00  0.00    -0.015 A 
HETATM    5  C   UNL     1      62.818   8.798   5.049  1.00  0.00     0.016 A 
HETATM    6  C   UNL     1      61.849   9.335   2.905  1.00  0.00     0.041 A 
HETATM    7  C   UNL     1      62.899  10.167   5.360  1.00  0.00     0.022 A 
HETATM    8  C   UNL     1      61.883  10.700   3.214  1.00  0.00     0.026 A 
HETATM    9  C   UNL     1      62.447  11.101   4.421  1.00  0.00     0.030 A 
ENDROOT
BRANCH   1  10
HETATM   10  C   UNL     1      63.086   4.906   5.116  1.00  0.00     0.299 C 
HETATM   11  O   UNL     1      63.451   4.057   4.310  1.00  0.00    -0.259 OA
BRANCH  10  12
HETATM   12  O   UNL     1      62.809   4.642   6.428  1.00  0.00    -0.322 OA
HETATM   13  C   UNL     1      61.569   3.968   6.643  1.00  0.00     0.213 C 
ENDBRANCH  10  12
ENDBRANCH   1  10
BRANCH   8  14
HETATM   14  N   UNL     1      61.583  11.650   2.229  1.00  0.00    -0.399 N 
HETATM   15  H   UNL     1      62.292  12.236   1.877  1.00  0.00     0.156 HD
HETATM   16  H   UNL     1      60.663  11.731   1.888  1.00  0.00     0.156 HD
ENDBRANCH   8  14
TORSDOF 3
ENDMDL
