MODEL 1
REMARK VINA RESULT:      -4.6      0.000      0.000
REMARK  3 active torsions:
REMARK  status: ('A' for Active; 'I' for Inactive)
REMARK    1  A    between atoms: C_1  and  C_4 
REMARK    2  A    between atoms: C_2  and  N_9 
REMARK    3  A    between atoms: C_5  and  N_10 
ROOT
HETATM    1  C   UNL     1      62.471   9.765   3.709  1.00  0.00     0.011 A 
HETATM    2  C   UNL     1      63.203   8.005   5.206  1.00  0.00     0.053 A 
HETATM    3  C   UNL     1      62.857   9.343   4.984  1.00  0.00     0.046 A 
HETATM    4  C   UNL     1      63.291   7.085   4.123  1.00  0.00     0.054 A 
HETATM    5  C   UNL     1      62.507   8.855   2.649  1.00  0.00     0.017 A 
HETATM    6  C   UNL     1      62.912   7.532   2.855  1.00  0.00     0.032 A 
ENDROOT
BRANCH   1   7
HETATM    7  C   UNL     1      62.001  11.155   3.439  1.00  0.00     0.155 C 
HETATM    8  O   UNL     1      61.834  11.939   4.373  1.00  0.00    -0.293 OA
HETATM    9  C   UNL     1      61.759  11.586   2.014  1.00  0.00     0.096 C 
ENDBRANCH   1   7
BRANCH   2  10
HETATM   10  N   UNL     1      63.649   7.606   6.491  1.00  0.00    -0.397 N 
HETATM   11  H   UNL     1      63.677   6.651   6.728  1.00  0.00     0.156 HD
HETATM   12  H   UNL     1      63.931   8.285   7.147  1.00  0.00     0.156 HD
ENDBRANCH   2  10
BRANCH   4  13
HETATM   13  N   UNL     1      63.621   5.759   4.428  1.00  0.00    -0.392 N 
HETATM   14  C   UNL     1      64.870   5.137   4.035  1.00  0.00     0.146 C 
HETATM   15  H   UNL     1      62.971   5.221   4.936  1.00  0.00     0.159 HD
ENDBRANCH   4  13
TORSDOF 3
ENDMDL
MODEL 2
REMARK VINA RESULT:      -4.5      2.913      4.637
REMARK  3 active torsions:
REMARK  status: ('A' for Active; 'I' for Inactive)
REMARK    1  A    between atoms: C_1  and  C_4 
REMARK    2  A    between atoms: C_2  and  N_9 
REMARK    3  A    between atoms: C_5  and  N_10 
ROOT
HETATM    1  C   UNL     1      64.527   7.834   4.574  1.00  0.00     0.011 A 
HETATM    2  C   UNL     1      63.377   9.940   4.913  1.00  0.00     0.053 A 
HETATM    3  C   UNL     1      64.319   8.992   5.329  1.00  0.00     0.046 A 
HETATM    4  C   UNL     1      62.532   9.688   3.797  1.00  0.00     0.054 A 
HETATM    5  C   UNL     1      63.734   7.603   3.447  1.00  0.00     0.017 A 
HETATM    6  C   UNL     1      62.749   8.519   3.064  1.00  0.00     0.032 A 
ENDROOT
BRANCH   1   7
HETATM    7  C   UNL     1      65.584   6.839   4.919  1.00  0.00     0.155 C 
HETATM    8  O   UNL     1      65.580   6.297   6.025  1.00  0.00    -0.293 OA
HETATM    9  C   UNL     1      66.633   6.495   3.892  1.00  0.00     0.096 C 
ENDBRANCH   1   7
BRANCH   2  10
HETATM   10  N   UNL     1      63.136  11.080   5.721  1.00  0.00    -0.397 N 
HETATM   11  H   UNL     1      63.776  11.829   5.720  1.00  0.00     0.156 HD
HETATM   12  H   UNL     1      62.329  11.124   6.283  1.00  0.00     0.156 HD
ENDBRANCH   2  10
BRANCH   4  13
HETATM   13  N   UNL     1      61.630  10.695   3.429  1.00  0.00    -0.392 N 
HETATM   14  C   UNL     1      61.762  11.482   2.220  1.00  0.00     0.146 C 
HETATM   15  H   UNL     1      60.867  10.877   4.025  1.00  0.00     0.159 HD
ENDBRANCH   4  13
TORSDOF 3
ENDMDL
MODEL 3
REMARK VINA RESULT:      -4.5      2.315      2.911
REMARK  3 active torsions:
REMARK  status: ('A' for Active; 'I' for Inactive)
REMARK    1  A    between atoms: C_1  and  C_4 
REMARK    2  A    between atoms: C_2  and  N_9 
REMARK    3  A    between atoms: C_5  and  N_10 
ROOT
HETATM    1  C   UNL     1      62.549   8.551   3.148  1.00  0.00     0.011 A 
HETATM    2  C   UNL     1      63.544   9.682   5.047  1.00  0.00     0.053 A 
HETATM    3  C   UNL     1      62.591   9.640   4.024  1.00  0.00     0.046 A 
HETATM    4  C   UNL     1      64.561   8.690   5.137  1.00  0.00     0.054 A 
HETATM    5  C   UNL     1      63.515   7.548   3.262  1.00  0.00     0.017 A 
HETATM    6  C   UNL     1      64.507   7.617   4.245  1.00  0.00     0.032 A 
ENDROOT
BRANCH   1   7
HETATM    7  C   UNL     1      61.494   8.411   2.102  1.00  0.00     0.155 C 
HETATM    8  O   UNL     1      60.358   8.059   2.418  1.00  0.00    -0.293 OA
HETATM    9  C   UNL     1      61.836   8.728   0.668  1.00  0.00     0.096 C 
ENDBRANCH   1   7
BRANCH   2  10
HETATM   10  N   UNL     1      63.611  10.820   5.889  1.00  0.00    -0.397 N 
HETATM   11  H   UNL     1      63.393  11.711   5.531  1.00  0.00     0.156 HD
HETATM   12  H   UNL     1      63.875  10.720   6.833  1.00  0.00     0.156 HD
ENDBRANCH   2  10
BRANCH   4  13
HETATM   13  N   UNL     1      65.465   8.787   6.202  1.00  0.00    -0.392 N 
HETATM   14  C   UNL     1      66.584   7.885   6.385  1.00  0.00     0.146 C 
HETATM   15  H   UNL     1      65.333   9.507   6.861  1.00  0.00     0.159 HD
ENDBRANCH   4  13
TORSDOF 3
ENDMDL
MODEL 4
REMARK VINA RESULT:      -4.4      2.875      4.264
REMARK  3 active torsions:
REMARK  status: ('A' for Active; 'I' for Inactive)
REMARK    1  A    between atoms: C_1  and  C_4 
REMARK    2  A    between atoms: C_2  and  N_9 
REMARK    3  A    between atoms: C_5  and  N_10 
ROOT
HETATM    1  C   UNL     1      63.906   8.407   4.514  1.00  0.00     0.011 A 
HETATM    2  C   UNL     1      62.293   9.854   3.428  1.00  0.00     0.053 A 
HETATM    3  C   UNL     1      63.177   9.600   4.483  1.00  0.00     0.046 A 
HETATM    4  C   UNL     1      62.027   8.862   2.444  1.00  0.00     0.054 A 
HETATM    5  C   UNL     1      63.686   7.448   3.523  1.00  0.00     0.017 A 
HETATM    6  C   UNL     1      62.758   7.673   2.501  1.00  0.00     0.032 A 
ENDROOT
BRANCH   1   7
HETATM    7  C   UNL     1      64.931   8.129   5.563  1.00  0.00     0.155 C 
HETATM    8  O   UNL     1      65.715   9.013   5.906  1.00  0.00    -0.293 OA
HETATM    9  C   UNL     1      64.973   6.765   6.204  1.00  0.00     0.096 C 
ENDBRANCH   1   7
BRANCH   2  10
HETATM   10  N   UNL     1      61.517  11.041   3.442  1.00  0.00    -0.397 N 
HETATM   11  H   UNL     1      61.191  11.426   2.596  1.00  0.00     0.156 HD
HETATM   12  H   UNL     1      61.305  11.480   4.298  1.00  0.00     0.156 HD
ENDBRANCH   2  10
BRANCH   4  13
HETATM   13  N   UNL     1      61.148   9.200   1.407  1.00  0.00    -0.392 N 
HETATM   14  C   UNL     1      60.204   8.267   0.825  1.00  0.00     0.146 C 
HETATM   15  H   UNL     1      61.173  10.120   1.056  1.00  0.00     0.159 HD
ENDBRANCH   4  13
TORSDOF 3
ENDMDL
MODEL 5
REMARK VINA RESULT:      -4.2      1.777      2.616
REMARK  3 active torsions:
REMARK  status: ('A' for Active; 'I' for Inactive)
REMARK    1  A    between atoms: C_1  and  C_4 
REMARK    2  A    between atoms: C_2  and  N_9 
REMARK    3  A    between atoms: C_5  and  N_10 
ROOT
HETATM    1  C   UNL     1      62.597   9.296   3.143  1.00  0.00     0.011 A 
HETATM    2  C   UNL     1      64.004   7.526   4.016  1.00  0.00     0.053 A 
HETATM    3  C   UNL     1      63.187   8.037   3.001  1.00  0.00     0.046 A 
HETATM    4  C   UNL     1      64.146   8.214   5.253  1.00  0.00     0.054 A 
HETATM    5  C   UNL     1      62.772  10.000   4.336  1.00  0.00     0.017 A 
HETATM    6  C   UNL     1      63.537   9.465   5.378  1.00  0.00     0.032 A 
ENDROOT
BRANCH   1   7
HETATM    7  C   UNL     1      61.797   9.927   2.052  1.00  0.00     0.155 C 
HETATM    8  O   UNL     1      61.162   9.221   1.269  1.00  0.00    -0.293 OA
HETATM    9  C   UNL     1      61.762  11.431   1.943  1.00  0.00     0.096 C 
ENDBRANCH   1   7
BRANCH   2  10
HETATM   10  N   UNL     1      64.547   6.224   3.882  1.00  0.00    -0.397 N 
HETATM   11  H   UNL     1      65.436   6.020   4.254  1.00  0.00     0.156 HD
HETATM   12  H   UNL     1      64.035   5.522   3.416  1.00  0.00     0.156 HD
ENDBRANCH   2  10
BRANCH   4  13
HETATM   13  N   UNL     1      64.998   7.651   6.211  1.00  0.00    -0.392 N 
HETATM   14  C   UNL     1      66.375   8.063   6.396  1.00  0.00     0.146 C 
HETATM   15  H   UNL     1      64.642   6.937   6.790  1.00  0.00     0.159 HD
ENDBRANCH   4  13
TORSDOF 3
ENDMDL
MODEL 6
REMARK VINA RESULT:      -4.0      2.525      3.749
REMARK  3 active torsions:
REMARK  status: ('A' for Active; 'I' for Inactive)
REMARK    1  A    between atoms: C_1  and  C_4 
REMARK    2  A    between atoms: C_2  and  N_9 
REMARK    3  A    between atoms: C_5  and  N_10 
ROOT
HETATM    1  C   UNL     1      62.884   9.407   3.804  1.00  0.00     0.011 A 
HETATM    2  C   UNL     1      62.441   7.556   2.304  1.00  0.00     0.053 A 
HETATM    3  C   UNL     1      63.062   8.067   3.449  1.00  0.00     0.046 A 
HETATM    4  C   UNL     1      61.726   8.411   1.419  1.00  0.00     0.054 A 
HETATM    5  C   UNL     1      62.143  10.242   2.965  1.00  0.00     0.017 A 
HETATM    6  C   UNL     1      61.571   9.749   1.787  1.00  0.00     0.032 A 
ENDROOT
BRANCH   1   7
HETATM    7  C   UNL     1      63.446   9.978   5.064  1.00  0.00     0.155 C 
HETATM    8  O   UNL     1      64.438   9.465   5.582  1.00  0.00    -0.293 OA
HETATM    9  C   UNL     1      62.796  11.195   5.672  1.00  0.00     0.096 C 
ENDBRANCH   1   7
BRANCH   2  10
HETATM   10  N   UNL     1      62.679   6.210   1.926  1.00  0.00    -0.397 N 
HETATM   11  H   UNL     1      63.496   5.976   1.429  1.00  0.00     0.156 HD
HETATM   12  H   UNL     1      62.026   5.510   2.159  1.00  0.00     0.156 HD
ENDBRANCH   2  10
BRANCH   4  13
HETATM   13  N   UNL     1      61.113   7.821   0.306  1.00  0.00    -0.392 N 
HETATM   14  C   UNL     1      59.690   7.560   0.224  1.00  0.00     0.146 C 
HETATM   15  H   UNL     1      61.679   7.570  -0.460  1.00  0.00     0.159 HD
ENDBRANCH   4  13
TORSDOF 3
ENDMDL
MODEL 7
REMARK VINA RESULT:      -4.0      2.173      2.504
REMARK  3 active torsions:
REMARK  status: ('A' for Active; 'I' for Inactive)
REMARK    1  A    between atoms: C_1  and  C_4 
REMARK    2  A    between atoms: C_2  and  N_9 
REMARK    3  A    between atoms: C_5  and  N_10 
ROOT
HETATM    1  C   UNL     1      63.472   8.459   4.119  1.00  0.00     0.011 A 
HETATM    2  C   UNL     1      65.445   8.105   5.481  1.00  0.00     0.053 A 
HETATM    3  C   UNL     1      64.303   8.852   5.171  1.00  0.00     0.046 A 
HETATM    4  C   UNL     1      65.847   7.014   4.660  1.00  0.00     0.054 A 
HETATM    5  C   UNL     1      63.834   7.358   3.338  1.00  0.00     0.017 A 
HETATM    6  C   UNL     1      65.007   6.646   3.607  1.00  0.00     0.032 A 
ENDROOT
BRANCH   1   7
HETATM    7  C   UNL     1      62.193   9.164   3.809  1.00  0.00     0.155 C 
HETATM    8  O   UNL     1      61.210   8.520   3.444  1.00  0.00    -0.293 OA
HETATM    9  C   UNL     1      62.122  10.661   3.971  1.00  0.00     0.096 C 
ENDBRANCH   1   7
BRANCH   2  10
HETATM   10  N   UNL     1      66.310   8.551   6.512  1.00  0.00    -0.397 N 
HETATM   11  H   UNL     1      67.270   8.675   6.331  1.00  0.00     0.156 HD
HETATM   12  H   UNL     1      65.950   8.735   7.410  1.00  0.00     0.156 HD
ENDBRANCH   2  10
BRANCH   4  13
HETATM   13  N   UNL     1      66.989   6.301   5.047  1.00  0.00    -0.392 N 
HETATM   14  C   UNL     1      67.167   4.884   4.801  1.00  0.00     0.146 C 
HETATM   15  H   UNL     1      67.708   6.789   5.512  1.00  0.00     0.159 HD
ENDBRANCH   4  13
TORSDOF 3
ENDMDL
MODEL 8
REMARK VINA RESULT:      -3.9      1.762      2.297
REMARK  3 active torsions:
REMARK  status: ('A' for Active; 'I' for Inactive)
REMARK    1  A    between atoms: C_1  and  C_4 
REMARK    2  A    between atoms: C_2  and  N_9 
REMARK    3  A    between atoms: C_5  and  N_10 
ROOT
HETATM    1  C   UNL     1      62.712   8.919   4.369  1.00  0.00     0.011 A 
HETATM    2  C   UNL     1      62.736   6.833   5.602  1.00  0.00     0.053 A 
HETATM    3  C   UNL     1      62.049   7.780   4.835  1.00  0.00     0.046 A 
HETATM    4  C   UNL     1      64.074   7.068   6.025  1.00  0.00     0.054 A 
HETATM    5  C   UNL     1      64.042   9.133   4.739  1.00  0.00     0.017 A 
HETATM    6  C   UNL     1      64.713   8.218   5.557  1.00  0.00     0.032 A 
ENDROOT
BRANCH   1   7
HETATM    7  C   UNL     1      62.053   9.911   3.469  1.00  0.00     0.155 C 
HETATM    8  O   UNL     1      61.612  10.962   3.932  1.00  0.00    -0.293 OA
HETATM    9  C   UNL     1      61.959   9.615   1.994  1.00  0.00     0.096 C 
ENDBRANCH   1   7
BRANCH   2  10
HETATM   10  N   UNL     1      62.034   5.713   6.116  1.00  0.00    -0.397 N 
HETATM   11  H   UNL     1      61.817   5.667   7.076  1.00  0.00     0.156 HD
HETATM   12  H   UNL     1      61.764   4.982   5.514  1.00  0.00     0.156 HD
ENDBRANCH   2  10
BRANCH   4  13
HETATM   13  N   UNL     1      64.702   6.063   6.771  1.00  0.00    -0.392 N 
HETATM   14  C   UNL     1      65.816   6.309   7.664  1.00  0.00     0.146 C 
HETATM   15  H   UNL     1      64.368   5.140   6.684  1.00  0.00     0.159 HD
ENDBRANCH   4  13
TORSDOF 3
ENDMDL
MODEL 9
REMARK VINA RESULT:      -3.8      2.799      4.631
REMARK  3 active torsions:
REMARK  status: ('A' for Active; 'I' for Inactive)
REMARK    1  A    between atoms: C_1  and  C_4 
REMARK    2  A    between atoms: C_2  and  N_9 
REMARK    3  A    between atoms: C_5  and  N_10 
ROOT
HETATM    1  C   UNL     1      63.341   7.349   3.382  1.00  0.00     0.011 A 
HETATM    2  C   UNL     1      62.935   9.520   4.381  1.00  0.00     0.053 A 
HETATM    3  C   UNL     1      63.476   8.232   4.458  1.00  0.00     0.046 A 
HETATM    4  C   UNL     1      62.135   9.910   3.270  1.00  0.00     0.054 A 
HETATM    5  C   UNL     1      62.599   7.743   2.266  1.00  0.00     0.017 A 
HETATM    6  C   UNL     1      62.004   9.007   2.212  1.00  0.00     0.032 A 
ENDROOT
BRANCH   1   7
HETATM    7  C   UNL     1      63.981   6.001   3.374  1.00  0.00     0.155 C 
HETATM    8  O   UNL     1      64.753   5.682   4.279  1.00  0.00    -0.293 OA
HETATM    9  C   UNL     1      63.651   5.038   2.262  1.00  0.00     0.096 C 
ENDBRANCH   1   7
BRANCH   2  10
HETATM   10  N   UNL     1      63.029  10.382   5.502  1.00  0.00    -0.397 N 
HETATM   11  H   UNL     1      62.213  10.767   5.897  1.00  0.00     0.156 HD
HETATM   12  H   UNL     1      63.910  10.596   5.885  1.00  0.00     0.156 HD
ENDBRANCH   2  10
BRANCH   4  13
HETATM   13  N   UNL     1      61.647  11.222   3.254  1.00  0.00    -0.392 N 
HETATM   14  C   UNL     1      61.721  12.088   2.095  1.00  0.00     0.146 C 
HETATM   15  H   UNL     1      61.233  11.575   4.075  1.00  0.00     0.159 HD
ENDBRANCH   4  13
TORSDOF 3
ENDMDL
