MODEL 1
REMARK VINA RESULT:      -4.6      0.000      0.000
REMARK  3 active torsions:
REMARK  status: ('A' for Active; 'I' for Inactive)
REMARK    1  A    between atoms: C_1  and  C_2 
REMARK    2  A    between atoms: C_5  and  C_11 
REMARK    3  A    between atoms: N_10  and  C_11 
ROOT
HETATM    1  C   UNL     1      65.551   8.213   5.419  1.00  0.00     0.159 A 
HETATM    2  O   UNL     1      64.882   9.363   5.740  1.00  0.00    -0.308 OA
HETATM    3  C   UNL     1      64.831   7.507   4.472  1.00  0.00     0.045 A 
HETATM    4  C   UNL     1      63.738   9.388   4.996  1.00  0.00     0.079 A 
HETATM    5  C   UNL     1      63.669   8.266   4.199  1.00  0.00     0.037 A 
ENDROOT
BRANCH   4   6
HETATM    6  C   UNL     1      62.845  10.561   5.181  1.00  0.00     0.294 C 
BRANCH   6   7
HETATM    7  N   UNL     1      63.390  11.469   6.184  1.00  0.00    -0.074 N 
HETATM    8  H   UNL     1      62.630  11.995   6.616  1.00  0.00     0.274 HD
HETATM    9  H   UNL     1      64.042  12.116   5.740  1.00  0.00     0.274 HD
HETATM   10  H   UNL     1      63.879  10.932   6.899  1.00  0.00     0.274 HD
ENDBRANCH   6   7
ENDBRANCH   4   6
BRANCH   1  11
HETATM   11  C   UNL     1      66.843   7.948   6.099  1.00  0.00     0.439 C 
HETATM   12  F   UNL     1      67.921   8.108   5.288  1.00  0.00    -0.164 F 
HETATM   13  F   UNL     1      67.027   8.774   7.163  1.00  0.00    -0.164 F 
HETATM   14  F   UNL     1      66.905   6.679   6.585  1.00  0.00    -0.164 F 
ENDBRANCH   1  11
TORSDOF 3
ENDMDL
MODEL 2
REMARK VINA RESULT:      -4.2      4.531      5.370
REMARK  3 active torsions:
REMARK  status: ('A' for Active; 'I' for Inactive)
REMARK    1  A    between atoms: C_1  and  C_2 
REMARK    2  A    between atoms: C_5  and  C_11 
REMARK    3  A    between atoms: N_10  and  C_11 
ROOT
HETATM    1  C   UNL     1      62.358   9.840   3.126  1.00  0.00     0.159 A 
HETATM    2  O   UNL     1      63.192   8.787   3.390  1.00  0.00    -0.308 OA
HETATM    3  C   UNL     1      62.227  10.622   4.259  1.00  0.00     0.045 A 
HETATM    4  C   UNL     1      63.589   8.900   4.691  1.00  0.00     0.079 A 
HETATM    5  C   UNL     1      63.021  10.019   5.262  1.00  0.00     0.037 A 
ENDROOT
BRANCH   4   6
HETATM    6  C   UNL     1      64.510   7.853   5.203  1.00  0.00     0.294 C 
BRANCH   6   7
HETATM    7  N   UNL     1      65.495   8.433   6.110  1.00  0.00    -0.074 N 
HETATM    8  H   UNL     1      66.024   9.155   5.621  1.00  0.00     0.274 HD
HETATM    9  H   UNL     1      66.131   7.704   6.432  1.00  0.00     0.274 HD
HETATM   10  H   UNL     1      65.017   8.845   6.911  1.00  0.00     0.274 HD
ENDBRANCH   6   7
ENDBRANCH   4   6
BRANCH   1  11
HETATM   11  C   UNL     1      61.785   9.947   1.761  1.00  0.00     0.439 C 
HETATM   12  F   UNL     1      60.681   9.178   1.579  1.00  0.00    -0.164 F 
HETATM   13  F   UNL     1      61.423  11.225   1.469  1.00  0.00    -0.164 F 
HETATM   14  F   UNL     1      62.682   9.576   0.809  1.00  0.00    -0.164 F 
ENDBRANCH   1  11
TORSDOF 3
ENDMDL
MODEL 3
REMARK VINA RESULT:      -4.2      4.412      5.028
REMARK  3 active torsions:
REMARK  status: ('A' for Active; 'I' for Inactive)
REMARK    1  A    between atoms: C_1  and  C_2 
REMARK    2  A    between atoms: C_5  and  C_11 
REMARK    3  A    between atoms: N_10  and  C_11 
ROOT
HETATM    1  C   UNL     1      62.517   8.888   2.597  1.00  0.00     0.159 A 
HETATM    2  O   UNL     1      62.267  10.086   3.210  1.00  0.00    -0.308 OA
HETATM    3  C   UNL     1      63.183   8.050   3.472  1.00  0.00     0.045 A 
HETATM    4  C   UNL     1      62.775  10.008   4.475  1.00  0.00     0.079 A 
HETATM    5  C   UNL     1      63.345   8.770   4.679  1.00  0.00     0.037 A 
ENDROOT
BRANCH   4   6
HETATM    6  C   UNL     1      62.616  11.209   5.334  1.00  0.00     0.294 C 
BRANCH   6   7
HETATM    7  N   UNL     1      63.764  11.362   6.222  1.00  0.00    -0.074 N 
HETATM    8  H   UNL     1      63.456  11.761   7.110  1.00  0.00     0.274 HD
HETATM    9  H   UNL     1      64.448  11.982   5.789  1.00  0.00     0.274 HD
HETATM   10  H   UNL     1      64.189  10.450   6.388  1.00  0.00     0.274 HD
ENDBRANCH   6   7
ENDBRANCH   4   6
BRANCH   1  11
HETATM   11  C   UNL     1      62.056   8.715   1.197  1.00  0.00     0.439 C 
HETATM   12  F   UNL     1      60.725   8.935   1.037  1.00  0.00    -0.164 F 
HETATM   13  F   UNL     1      62.698   9.564   0.351  1.00  0.00    -0.164 F 
HETATM   14  F   UNL     1      62.302   7.459   0.738  1.00  0.00    -0.164 F 
ENDBRANCH   1  11
TORSDOF 3
ENDMDL
MODEL 4
REMARK VINA RESULT:      -4.1      2.531      3.217
REMARK  3 active torsions:
REMARK  status: ('A' for Active; 'I' for Inactive)
REMARK    1  A    between atoms: C_1  and  C_2 
REMARK    2  A    between atoms: C_5  and  C_11 
REMARK    3  A    between atoms: N_10  and  C_11 
ROOT
HETATM    1  C   UNL     1      66.751   6.698   7.435  1.00  0.00     0.159 A 
HETATM    2  O   UNL     1      65.633   7.423   7.123  1.00  0.00    -0.308 OA
HETATM    3  C   UNL     1      67.598   6.660   6.343  1.00  0.00     0.045 A 
HETATM    4  C   UNL     1      65.770   7.845   5.832  1.00  0.00     0.079 A 
HETATM    5  C   UNL     1      66.968   7.401   5.316  1.00  0.00     0.037 A 
ENDROOT
BRANCH   4   6
HETATM    6  C   UNL     1      64.662   8.661   5.274  1.00  0.00     0.294 C 
BRANCH   6   7
HETATM    7  N   UNL     1      63.400   8.330   5.927  1.00  0.00    -0.074 N 
HETATM    8  H   UNL     1      63.547   8.257   6.934  1.00  0.00     0.274 HD
HETATM    9  H   UNL     1      63.054   7.440   5.568  1.00  0.00     0.274 HD
HETATM   10  H   UNL     1      62.716   9.062   5.735  1.00  0.00     0.274 HD
ENDBRANCH   6   7
ENDBRANCH   4   6
BRANCH   1  11
HETATM   11  C   UNL     1      66.847   6.123   8.800  1.00  0.00     0.439 C 
HETATM   12  F   UNL     1      68.060   6.315   9.381  1.00  0.00    -0.164 F 
HETATM   13  F   UNL     1      65.923   6.665   9.638  1.00  0.00    -0.164 F 
HETATM   14  F   UNL     1      66.623   4.782   8.797  1.00  0.00    -0.164 F 
ENDBRANCH   1  11
TORSDOF 3
ENDMDL
MODEL 5
REMARK VINA RESULT:      -4.0      3.362      4.360
REMARK  3 active torsions:
REMARK  status: ('A' for Active; 'I' for Inactive)
REMARK    1  A    between atoms: C_1  and  C_2 
REMARK    2  A    between atoms: C_5  and  C_11 
REMARK    3  A    between atoms: N_10  and  C_11 
ROOT
HETATM    1  C   UNL     1      65.215   8.076   5.610  1.00  0.00     0.159 A 
HETATM    2  O   UNL     1      65.197   7.581   6.886  1.00  0.00    -0.308 OA
HETATM    3  C   UNL     1      66.456   7.852   5.043  1.00  0.00     0.045 A 
HETATM    4  C   UNL     1      66.427   7.042   7.129  1.00  0.00     0.079 A 
HETATM    5  C   UNL     1      67.232   7.184   6.020  1.00  0.00     0.037 A 
ENDROOT
BRANCH   4   6
HETATM    6  C   UNL     1      66.639   6.438   8.469  1.00  0.00     0.294 C 
BRANCH   6   7
HETATM    7  N   UNL     1      68.056   6.441   8.817  1.00  0.00    -0.074 N 
HETATM    8  H   UNL     1      68.191   5.939   9.696  1.00  0.00     0.274 HD
HETATM    9  H   UNL     1      68.379   7.403   8.921  1.00  0.00     0.274 HD
HETATM   10  H   UNL     1      68.588   5.982   8.079  1.00  0.00     0.274 HD
ENDBRANCH   6   7
ENDBRANCH   4   6
BRANCH   1  11
HETATM   11  C   UNL     1      63.980   8.721   5.097  1.00  0.00     0.439 C 
HETATM   12  F   UNL     1      63.806   8.563   3.760  1.00  0.00    -0.164 F 
HETATM   13  F   UNL     1      62.868   8.221   5.699  1.00  0.00    -0.164 F 
HETATM   14  F   UNL     1      63.976  10.060   5.336  1.00  0.00    -0.164 F 
ENDBRANCH   1  11
TORSDOF 3
ENDMDL
MODEL 6
REMARK VINA RESULT:      -4.0      3.834      4.594
REMARK  3 active torsions:
REMARK  status: ('A' for Active; 'I' for Inactive)
REMARK    1  A    between atoms: C_1  and  C_2 
REMARK    2  A    between atoms: C_5  and  C_11 
REMARK    3  A    between atoms: N_10  and  C_11 
ROOT
HETATM    1  C   UNL     1      63.130   9.037   3.907  1.00  0.00     0.159 A 
HETATM    2  O   UNL     1      64.042   9.171   4.919  1.00  0.00    -0.308 OA
HETATM    3  C   UNL     1      63.328   7.830   3.261  1.00  0.00     0.045 A 
HETATM    4  C   UNL     1      64.819   8.049   4.915  1.00  0.00     0.079 A 
HETATM    5  C   UNL     1      64.411   7.196   3.913  1.00  0.00     0.037 A 
ENDROOT
BRANCH   4   6
HETATM    6  C   UNL     1      65.890   7.974   5.943  1.00  0.00     0.294 C 
BRANCH   6   7
HETATM    7  N   UNL     1      65.424   7.249   7.120  1.00  0.00    -0.074 N 
HETATM    8  H   UNL     1      65.781   7.702   7.961  1.00  0.00     0.274 HD
HETATM    9  H   UNL     1      65.760   6.287   7.082  1.00  0.00     0.274 HD
HETATM   10  H   UNL     1      64.404   7.252   7.139  1.00  0.00     0.274 HD
ENDBRANCH   6   7
ENDBRANCH   4   6
BRANCH   1  11
HETATM   11  C   UNL     1      62.155  10.137   3.699  1.00  0.00     0.439 C 
HETATM   12  F   UNL     1      62.210  10.677   2.454  1.00  0.00    -0.164 F 
HETATM   13  F   UNL     1      60.877   9.715   3.887  1.00  0.00    -0.164 F 
HETATM   14  F   UNL     1      62.355  11.157   4.576  1.00  0.00    -0.164 F 
ENDBRANCH   1  11
TORSDOF 3
ENDMDL
MODEL 7
REMARK VINA RESULT:      -3.8      2.855      3.526
REMARK  3 active torsions:
REMARK  status: ('A' for Active; 'I' for Inactive)
REMARK    1  A    between atoms: C_1  and  C_2 
REMARK    2  A    between atoms: C_5  and  C_11 
REMARK    3  A    between atoms: N_10  and  C_11 
ROOT
HETATM    1  C   UNL     1      63.519   9.040   4.624  1.00  0.00     0.159 A 
HETATM    2  O   UNL     1      63.139   8.767   3.338  1.00  0.00    -0.308 OA
HETATM    3  C   UNL     1      62.876  10.182   5.064  1.00  0.00     0.045 A 
HETATM    4  C   UNL     1      62.254   9.736   2.962  1.00  0.00     0.079 A 
HETATM    5  C   UNL     1      62.061  10.626   3.997  1.00  0.00     0.037 A 
ENDROOT
BRANCH   4   6
HETATM    6  C   UNL     1      61.701   9.639   1.587  1.00  0.00     0.294 C 
BRANCH   6   7
HETATM    7  N   UNL     1      60.457   8.878   1.584  1.00  0.00    -0.074 N 
HETATM    8  H   UNL     1      60.437   8.261   0.772  1.00  0.00     0.274 HD
HETATM    9  H   UNL     1      59.665   9.520   1.544  1.00  0.00     0.274 HD
HETATM   10  H   UNL     1      60.399   8.320   2.436  1.00  0.00     0.274 HD
ENDBRANCH   6   7
ENDBRANCH   4   6
BRANCH   1  11
HETATM   11  C   UNL     1      64.488   8.121   5.272  1.00  0.00     0.439 C 
HETATM   12  F   UNL     1      63.941   7.377   6.268  1.00  0.00    -0.164 F 
HETATM   13  F   UNL     1      65.022   7.247   4.379  1.00  0.00    -0.164 F 
HETATM   14  F   UNL     1      65.534   8.797   5.819  1.00  0.00    -0.164 F 
ENDBRANCH   1  11
TORSDOF 3
ENDMDL
MODEL 8
REMARK VINA RESULT:      -3.8      3.314      4.207
REMARK  3 active torsions:
REMARK  status: ('A' for Active; 'I' for Inactive)
REMARK    1  A    between atoms: C_1  and  C_2 
REMARK    2  A    between atoms: C_5  and  C_11 
REMARK    3  A    between atoms: N_10  and  C_11 
ROOT
HETATM    1  C   UNL     1      64.376   8.450   4.788  1.00  0.00     0.159 A 
HETATM    2  O   UNL     1      65.610   8.700   5.325  1.00  0.00    -0.308 OA
HETATM    3  C   UNL     1      64.421   7.284   4.046  1.00  0.00     0.045 A 
HETATM    4  C   UNL     1      66.439   7.693   4.922  1.00  0.00     0.079 A 
HETATM    5  C   UNL     1      65.746   6.797   4.137  1.00  0.00     0.037 A 
ENDROOT
BRANCH   4   6
HETATM    6  C   UNL     1      67.846   7.757   5.392  1.00  0.00     0.294 C 
BRANCH   6   7
HETATM    7  N   UNL     1      68.074   6.799   6.469  1.00  0.00    -0.074 N 
HETATM    8  H   UNL     1      69.057   6.529   6.482  1.00  0.00     0.274 HD
HETATM    9  H   UNL     1      67.495   5.973   6.317  1.00  0.00     0.274 HD
HETATM   10  H   UNL     1      67.827   7.226   7.361  1.00  0.00     0.274 HD
ENDBRANCH   6   7
ENDBRANCH   4   6
BRANCH   1  11
HETATM   11  C   UNL     1      63.283   9.411   5.081  1.00  0.00     0.439 C 
HETATM   12  F   UNL     1      62.473   9.647   4.017  1.00  0.00    -0.164 F 
HETATM   13  F   UNL     1      62.486   8.968   6.090  1.00  0.00    -0.164 F 
HETATM   14  F   UNL     1      63.768  10.618   5.478  1.00  0.00    -0.164 F 
ENDBRANCH   1  11
TORSDOF 3
ENDMDL
MODEL 9
REMARK VINA RESULT:      -3.6      3.442      4.256
REMARK  3 active torsions:
REMARK  status: ('A' for Active; 'I' for Inactive)
REMARK    1  A    between atoms: C_1  and  C_2 
REMARK    2  A    between atoms: C_5  and  C_11 
REMARK    3  A    between atoms: N_10  and  C_11 
ROOT
HETATM    1  C   UNL     1      63.516   7.787   5.467  1.00  0.00     0.159 A 
HETATM    2  O   UNL     1      64.729   8.129   6.001  1.00  0.00    -0.308 OA
HETATM    3  C   UNL     1      63.228   6.471   5.778  1.00  0.00     0.045 A 
HETATM    4  C   UNL     1      65.211   7.030   6.650  1.00  0.00     0.079 A 
HETATM    5  C   UNL     1      64.317   5.987   6.541  1.00  0.00     0.037 A 
ENDROOT
BRANCH   4   6
HETATM    6  C   UNL     1      66.533   7.172   7.314  1.00  0.00     0.294 C 
BRANCH   6   7
HETATM    7  N   UNL     1      67.011   8.547   7.220  1.00  0.00    -0.074 N 
HETATM    8  H   UNL     1      67.793   8.591   6.566  1.00  0.00     0.274 HD
HETATM    9  H   UNL     1      67.318   8.864   8.139  1.00  0.00     0.274 HD
HETATM   10  H   UNL     1      66.256   9.147   6.889  1.00  0.00     0.274 HD
ENDBRANCH   6   7
ENDBRANCH   4   6
BRANCH   1  11
HETATM   11  C   UNL     1      62.775   8.822   4.703  1.00  0.00     0.439 C 
HETATM   12  F   UNL     1      62.643   9.995   5.375  1.00  0.00    -0.164 F 
HETATM   13  F   UNL     1      63.392   9.112   3.527  1.00  0.00    -0.164 F 
HETATM   14  F   UNL     1      61.519   8.410   4.386  1.00  0.00    -0.164 F 
ENDBRANCH   1  11
TORSDOF 3
ENDMDL
