MODEL 1
REMARK VINA RESULT:      -5.4      0.000      0.000
REMARK  3 active torsions:
REMARK  status: ('A' for Active; 'I' for Inactive)
REMARK    1  A    between atoms: N_1  and  C_7 
REMARK    2  A    between atoms: C_5  and  C_10 
REMARK    3  A    between atoms: C_10  and  O_16 
ROOT
HETATM    1  N   UNL     1      62.951   8.057   5.004  1.00  0.00    -0.261 N 
HETATM    2  N   UNL     1      61.984   7.294   5.579  1.00  0.00    -0.304 N 
ATOM      3  HN  UNL     1      60.975   7.440   5.546  1.00  0.00     0.186 HD
HETATM    4  C   UNL     1      64.215   7.650   5.414  1.00  0.00     0.040 C 
HETATM    5  C   UNL     1      64.036   6.483   6.144  1.00  0.00     0.006 C 
HETATM    6  C   UNL     1      62.641   6.315   6.193  1.00  0.00     0.119 C 
HETATM    7  C   UNL     1      65.481   8.403   5.198  1.00  0.00     0.071 C 
ENDROOT
BRANCH   1   8
HETATM    8  C   UNL     1      62.571   9.105   4.118  1.00  0.00     0.056 A 
HETATM    9  C   UNL     1      62.348  10.390   4.640  1.00  0.00     0.034 A 
HETATM   10  C   UNL     1      62.000  11.440   3.787  1.00  0.00     0.044 A 
HETATM   11  C   UNL     1      61.840  11.196   2.429  1.00  0.00     0.116 A 
HETATM   12  C   UNL     1      62.018   9.919   1.905  1.00  0.00     0.044 A 
HETATM   13  F   UNL     1      61.497  12.200   1.612  1.00  0.00    -0.206 F 
HETATM   14  C   UNL     1      62.384   8.868   2.748  1.00  0.00     0.034 A 
ENDBRANCH   1   8
BRANCH   5  15
HETATM   15  C   UNL     1      65.068   5.636   6.796  1.00  0.00     0.206 C 
BRANCH  15  16
HETATM   16  O   UNL     1      65.605   6.262   7.955  1.00  0.00    -0.396 OA
HETATM   17  H   UNL     1      66.299   5.702   8.334  1.00  0.00     0.209 HD
ENDBRANCH  15  16
ENDBRANCH   5  15
TORSDOF 3
ENDMDL
MODEL 2
REMARK VINA RESULT:      -5.3      3.699      5.871
REMARK  3 active torsions:
REMARK  status: ('A' for Active; 'I' for Inactive)
REMARK    1  A    between atoms: N_1  and  C_7 
REMARK    2  A    between atoms: C_5  and  C_10 
REMARK    3  A    between atoms: C_10  and  O_16 
ROOT
HETATM    1  N   UNL     1      63.422   9.073   4.874  1.00  0.00    -0.261 N 
HETATM    2  N   UNL     1      63.059  10.176   5.582  1.00  0.00    -0.304 N 
ATOM      3  HN  UNL     1      63.224  10.360   6.572  1.00  0.00     0.186 HD
HETATM    4  C   UNL     1      62.872   9.099   3.598  1.00  0.00     0.040 C 
HETATM    5  C   UNL     1      62.277  10.345   3.450  1.00  0.00     0.006 C 
HETATM    6  C   UNL     1      62.444  10.960   4.703  1.00  0.00     0.119 C 
HETATM    7  C   UNL     1      62.839   7.956   2.644  1.00  0.00     0.071 C 
ENDROOT
BRANCH   1   8
HETATM    8  C   UNL     1      64.260   8.100   5.488  1.00  0.00     0.056 A 
HETATM    9  C   UNL     1      65.655   8.254   5.404  1.00  0.00     0.034 A 
HETATM   10  C   UNL     1      66.498   7.326   6.020  1.00  0.00     0.044 A 
HETATM   11  C   UNL     1      65.950   6.234   6.681  1.00  0.00     0.116 A 
HETATM   12  C   UNL     1      64.572   6.048   6.736  1.00  0.00     0.044 A 
HETATM   13  F   UNL     1      66.757   5.339   7.264  1.00  0.00    -0.206 F 
HETATM   14  C   UNL     1      63.721   6.981   6.139  1.00  0.00     0.034 A 
ENDBRANCH   1   8
BRANCH   5  15
HETATM   15  C   UNL     1      61.560  10.889   2.268  1.00  0.00     0.206 C 
BRANCH  15  16
HETATM   16  O   UNL     1      62.101  12.139   1.856  1.00  0.00    -0.396 OA
HETATM   17  H   UNL     1      62.758  12.437   2.503  1.00  0.00     0.209 HD
ENDBRANCH  15  16
ENDBRANCH   5  15
TORSDOF 3
ENDMDL
MODEL 3
REMARK VINA RESULT:      -5.0      1.380      2.445
REMARK  3 active torsions:
REMARK  status: ('A' for Active; 'I' for Inactive)
REMARK    1  A    between atoms: N_1  and  C_7 
REMARK    2  A    between atoms: C_5  and  C_10 
REMARK    3  A    between atoms: C_10  and  O_16 
ROOT
HETATM    1  N   UNL     1      64.562   7.977   5.599  1.00  0.00    -0.261 N 
HETATM    2  N   UNL     1      65.894   8.238   5.679  1.00  0.00    -0.304 N 
ATOM      3  HN  UNL     1      66.412   8.975   5.202  1.00  0.00     0.186 HD
HETATM    4  C   UNL     1      64.248   6.788   6.246  1.00  0.00     0.040 C 
HETATM    5  C   UNL     1      65.404   6.376   6.896  1.00  0.00     0.006 C 
HETATM    6  C   UNL     1      66.372   7.322   6.516  1.00  0.00     0.119 C 
HETATM    7  C   UNL     1      62.952   6.062   6.147  1.00  0.00     0.071 C 
ENDROOT
BRANCH   1   8
HETATM    8  C   UNL     1      63.717   8.891   4.909  1.00  0.00     0.056 A 
HETATM    9  C   UNL     1      63.241   8.547   3.632  1.00  0.00     0.034 A 
HETATM   10  C   UNL     1      62.390   9.416   2.946  1.00  0.00     0.044 A 
HETATM   11  C   UNL     1      62.050  10.636   3.517  1.00  0.00     0.116 A 
HETATM   12  C   UNL     1      62.548  11.007   4.762  1.00  0.00     0.044 A 
HETATM   13  F   UNL     1      61.242  11.474   2.855  1.00  0.00    -0.206 F 
HETATM   14  C   UNL     1      63.384  10.136   5.463  1.00  0.00     0.034 A 
ENDBRANCH   1   8
BRANCH   5  15
HETATM   15  C   UNL     1      65.606   5.171   7.742  1.00  0.00     0.206 C 
BRANCH  15  16
HETATM   16  O   UNL     1      66.078   5.515   9.040  1.00  0.00    -0.396 OA
HETATM   17  H   UNL     1      67.003   5.239   9.132  1.00  0.00     0.209 HD
ENDBRANCH  15  16
ENDBRANCH   5  15
TORSDOF 3
ENDMDL
MODEL 4
REMARK VINA RESULT:      -4.8      1.299      1.980
REMARK  3 active torsions:
REMARK  status: ('A' for Active; 'I' for Inactive)
REMARK    1  A    between atoms: N_1  and  C_7 
REMARK    2  A    between atoms: C_5  and  C_10 
REMARK    3  A    between atoms: C_10  and  O_16 
ROOT
HETATM    1  N   UNL     1      63.026   7.879   4.280  1.00  0.00    -0.261 N 
HETATM    2  N   UNL     1      64.351   7.699   4.523  1.00  0.00    -0.304 N 
ATOM      3  HN  UNL     1      65.129   8.250   4.159  1.00  0.00     0.186 HD
HETATM    4  C   UNL     1      62.278   6.830   4.801  1.00  0.00     0.040 C 
HETATM    5  C   UNL     1      63.157   6.049   5.540  1.00  0.00     0.006 C 
HETATM    6  C   UNL     1      64.411   6.650   5.336  1.00  0.00     0.119 C 
HETATM    7  C   UNL     1      60.843   6.558   4.510  1.00  0.00     0.071 C 
ENDROOT
BRANCH   1   8
HETATM    8  C   UNL     1      62.602   9.039   3.571  1.00  0.00     0.056 A 
HETATM    9  C   UNL     1      62.353  10.222   4.288  1.00  0.00     0.034 A 
HETATM   10  C   UNL     1      61.962  11.379   3.612  1.00  0.00     0.044 A 
HETATM   11  C   UNL     1      61.783  11.342   2.235  1.00  0.00     0.116 A 
HETATM   12  C   UNL     1      61.986  10.167   1.518  1.00  0.00     0.044 A 
HETATM   13  F   UNL     1      61.399  12.449   1.588  1.00  0.00    -0.206 F 
HETATM   14  C   UNL     1      62.396   9.010   2.184  1.00  0.00     0.034 A 
ENDBRANCH   1   8
BRANCH   5  15
HETATM   15  C   UNL     1      62.865   4.814   6.312  1.00  0.00     0.206 C 
BRANCH  15  16
HETATM   16  O   UNL     1      64.054   4.093   6.617  1.00  0.00    -0.396 OA
HETATM   17  H   UNL     1      63.895   3.144   6.505  1.00  0.00     0.209 HD
ENDBRANCH  15  16
ENDBRANCH   5  15
TORSDOF 3
ENDMDL
MODEL 5
REMARK VINA RESULT:      -4.5      2.807      4.143
REMARK  3 active torsions:
REMARK  status: ('A' for Active; 'I' for Inactive)
REMARK    1  A    between atoms: N_1  and  C_7 
REMARK    2  A    between atoms: C_5  and  C_10 
REMARK    3  A    between atoms: C_10  and  O_16 
ROOT
HETATM    1  N   UNL     1      65.771   6.463   7.156  1.00  0.00    -0.261 N 
HETATM    2  N   UNL     1      66.206   7.109   8.270  1.00  0.00    -0.304 N 
ATOM      3  HN  UNL     1      66.000   8.068   8.552  1.00  0.00     0.186 HD
HETATM    4  C   UNL     1      66.400   5.231   7.018  1.00  0.00     0.040 C 
HETATM    5  C   UNL     1      67.135   5.032   8.179  1.00  0.00     0.006 C 
HETATM    6  C   UNL     1      66.957   6.220   8.910  1.00  0.00     0.119 C 
HETATM    7  C   UNL     1      66.368   4.372   5.803  1.00  0.00     0.071 C 
ENDROOT
BRANCH   1   8
HETATM    8  C   UNL     1      64.795   7.087   6.329  1.00  0.00     0.056 A 
HETATM    9  C   UNL     1      63.467   6.630   6.381  1.00  0.00     0.034 A 
HETATM   10  C   UNL     1      62.485   7.243   5.598  1.00  0.00     0.044 A 
HETATM   11  C   UNL     1      62.839   8.280   4.743  1.00  0.00     0.116 A 
HETATM   12  C   UNL     1      64.158   8.714   4.652  1.00  0.00     0.044 A 
HETATM   13  F   UNL     1      61.901   8.862   3.986  1.00  0.00    -0.206 F 
HETATM   14  C   UNL     1      65.141   8.119   5.444  1.00  0.00     0.034 A 
ENDBRANCH   1   8
BRANCH   5  15
HETATM   15  C   UNL     1      67.980   3.867   8.546  1.00  0.00     0.206 C 
BRANCH  15  16
HETATM   16  O   UNL     1      67.209   2.823   9.130  1.00  0.00    -0.396 OA
HETATM   17  H   UNL     1      66.323   2.816   8.738  1.00  0.00     0.209 HD
ENDBRANCH  15  16
ENDBRANCH   5  15
TORSDOF 3
ENDMDL
MODEL 6
REMARK VINA RESULT:      -4.5      2.727      3.534
REMARK  3 active torsions:
REMARK  status: ('A' for Active; 'I' for Inactive)
REMARK    1  A    between atoms: N_1  and  C_7 
REMARK    2  A    between atoms: C_5  and  C_10 
REMARK    3  A    between atoms: C_10  and  O_16 
ROOT
HETATM    1  N   UNL     1      62.225   8.689   3.653  1.00  0.00    -0.261 N 
HETATM    2  N   UNL     1      62.222   9.885   4.299  1.00  0.00    -0.304 N 
ATOM      3  HN  UNL     1      61.534  10.634   4.217  1.00  0.00     0.186 HD
HETATM    4  C   UNL     1      63.413   8.004   3.881  1.00  0.00     0.040 C 
HETATM    5  C   UNL     1      64.109   8.730   4.839  1.00  0.00     0.006 C 
HETATM    6  C   UNL     1      63.311   9.866   5.061  1.00  0.00     0.119 C 
HETATM    7  C   UNL     1      63.874   6.797   3.142  1.00  0.00     0.071 C 
ENDROOT
BRANCH   1   8
HETATM    8  C   UNL     1      61.091   8.316   2.879  1.00  0.00     0.056 A 
HETATM    9  C   UNL     1      61.065   8.640   1.511  1.00  0.00     0.034 A 
HETATM   10  C   UNL     1      59.974   8.262   0.724  1.00  0.00     0.044 A 
HETATM   11  C   UNL     1      58.902   7.600   1.310  1.00  0.00     0.116 A 
HETATM   12  C   UNL     1      58.897   7.311   2.672  1.00  0.00     0.044 A 
HETATM   13  F   UNL     1      57.852   7.246   0.559  1.00  0.00    -0.206 F 
HETATM   14  C   UNL     1      59.991   7.669   3.461  1.00  0.00     0.034 A 
ENDBRANCH   1   8
BRANCH   5  15
HETATM   15  C   UNL     1      65.431   8.426   5.445  1.00  0.00     0.206 C 
BRANCH  15  16
HETATM   16  O   UNL     1      65.296   7.689   6.654  1.00  0.00    -0.396 OA
HETATM   17  H   UNL     1      66.080   7.134   6.785  1.00  0.00     0.209 HD
ENDBRANCH  15  16
ENDBRANCH   5  15
TORSDOF 3
ENDMDL
MODEL 7
REMARK VINA RESULT:      -4.5      2.303      2.954
REMARK  3 active torsions:
REMARK  status: ('A' for Active; 'I' for Inactive)
REMARK    1  A    between atoms: N_1  and  C_7 
REMARK    2  A    between atoms: C_5  and  C_10 
REMARK    3  A    between atoms: C_10  and  O_16 
ROOT
HETATM    1  N   UNL     1      63.621   7.608   3.532  1.00  0.00    -0.261 N 
HETATM    2  N   UNL     1      64.388   6.502   3.341  1.00  0.00    -0.304 N 
ATOM      3  HN  UNL     1      64.196   5.712   2.725  1.00  0.00     0.186 HD
HETATM    4  C   UNL     1      64.113   8.381   4.577  1.00  0.00     0.040 C 
HETATM    5  C   UNL     1      65.329   7.818   4.944  1.00  0.00     0.006 C 
HETATM    6  C   UNL     1      65.441   6.675   4.133  1.00  0.00     0.119 C 
HETATM    7  C   UNL     1      63.400   9.512   5.231  1.00  0.00     0.071 C 
ENDROOT
BRANCH   1   8
HETATM    8  C   UNL     1      62.488   7.818   2.696  1.00  0.00     0.056 A 
HETATM    9  C   UNL     1      61.339   7.034   2.896  1.00  0.00     0.034 A 
HETATM   10  C   UNL     1      60.206   7.239   2.106  1.00  0.00     0.044 A 
HETATM   11  C   UNL     1      60.237   8.196   1.098  1.00  0.00     0.116 A 
HETATM   12  C   UNL     1      61.382   8.950   0.862  1.00  0.00     0.044 A 
HETATM   13  F   UNL     1      59.154   8.386   0.334  1.00  0.00    -0.206 F 
HETATM   14  C   UNL     1      62.512   8.764   1.660  1.00  0.00     0.034 A 
ENDBRANCH   1   8
BRANCH   5  15
HETATM   15  C   UNL     1      66.270   8.267   6.002  1.00  0.00     0.206 C 
BRANCH  15  16
HETATM   16  O   UNL     1      66.070   7.556   7.218  1.00  0.00    -0.396 OA
HETATM   17  H   UNL     1      65.213   7.799   7.599  1.00  0.00     0.209 HD
ENDBRANCH  15  16
ENDBRANCH   5  15
TORSDOF 3
ENDMDL
MODEL 8
REMARK VINA RESULT:      -4.5      3.741      5.837
REMARK  3 active torsions:
REMARK  status: ('A' for Active; 'I' for Inactive)
REMARK    1  A    between atoms: N_1  and  C_7 
REMARK    2  A    between atoms: C_5  and  C_10 
REMARK    3  A    between atoms: C_10  and  O_16 
ROOT
HETATM    1  N   UNL     1      64.266   7.648   4.298  1.00  0.00    -0.261 N 
HETATM    2  N   UNL     1      64.263   6.858   3.192  1.00  0.00    -0.304 N 
ATOM      3  HN  UNL     1      64.929   6.124   2.951  1.00  0.00     0.186 HD
HETATM    4  C   UNL     1      63.309   8.651   4.196  1.00  0.00     0.040 C 
HETATM    5  C   UNL     1      62.570   8.374   3.053  1.00  0.00     0.006 C 
HETATM    6  C   UNL     1      63.202   7.250   2.494  1.00  0.00     0.119 C 
HETATM    7  C   UNL     1      63.198   9.839   5.085  1.00  0.00     0.071 C 
ENDROOT
BRANCH   1   8
HETATM    8  C   UNL     1      65.186   7.368   5.347  1.00  0.00     0.056 A 
HETATM    9  C   UNL     1      64.706   6.802   6.540  1.00  0.00     0.034 A 
HETATM   10  C   UNL     1      65.593   6.495   7.575  1.00  0.00     0.044 A 
HETATM   11  C   UNL     1      66.944   6.787   7.430  1.00  0.00     0.116 A 
HETATM   12  C   UNL     1      67.426   7.386   6.270  1.00  0.00     0.044 A 
HETATM   13  F   UNL     1      67.793   6.501   8.424  1.00  0.00    -0.206 F 
HETATM   14  C   UNL     1      66.549   7.679   5.224  1.00  0.00     0.034 A 
ENDBRANCH   1   8
BRANCH   5  15
HETATM   15  C   UNL     1      61.418   9.129   2.495  1.00  0.00     0.206 C 
BRANCH  15  16
HETATM   16  O   UNL     1      60.189   8.720   3.084  1.00  0.00    -0.396 OA
HETATM   17  H   UNL     1      60.178   8.971   4.020  1.00  0.00     0.209 HD
ENDBRANCH  15  16
ENDBRANCH   5  15
TORSDOF 3
ENDMDL
MODEL 9
REMARK VINA RESULT:      -4.4      2.085      2.114
REMARK  3 active torsions:
REMARK  status: ('A' for Active; 'I' for Inactive)
REMARK    1  A    between atoms: N_1  and  C_7 
REMARK    2  A    between atoms: C_5  and  C_10 
REMARK    3  A    between atoms: C_10  and  O_16 
ROOT
HETATM    1  N   UNL     1      62.323   7.184   3.805  1.00  0.00    -0.261 N 
HETATM    2  N   UNL     1      61.250   6.589   4.391  1.00  0.00    -0.304 N 
ATOM      3  HN  UNL     1      60.341   7.006   4.590  1.00  0.00     0.186 HD
HETATM    4  C   UNL     1      63.441   6.361   3.863  1.00  0.00     0.040 C 
HETATM    5  C   UNL     1      63.006   5.139   4.358  1.00  0.00     0.006 C 
HETATM    6  C   UNL     1      61.646   5.347   4.647  1.00  0.00     0.119 C 
HETATM    7  C   UNL     1      64.839   6.773   3.558  1.00  0.00     0.071 C 
ENDROOT
BRANCH   1   8
HETATM    8  C   UNL     1      62.175   8.485   3.246  1.00  0.00     0.056 A 
HETATM    9  C   UNL     1      62.084   9.590   4.110  1.00  0.00     0.034 A 
HETATM   10  C   UNL     1      61.964  10.879   3.586  1.00  0.00     0.044 A 
HETATM   11  C   UNL     1      61.898  11.056   2.209  1.00  0.00     0.116 A 
HETATM   12  C   UNL     1      61.945   9.967   1.344  1.00  0.00     0.044 A 
HETATM   13  F   UNL     1      61.773  12.290   1.706  1.00  0.00    -0.206 F 
HETATM   14  C   UNL     1      62.083   8.677   1.860  1.00  0.00     0.034 A 
ENDBRANCH   1   8
BRANCH   5  15
HETATM   15  C   UNL     1      63.800   3.908   4.603  1.00  0.00     0.206 C 
BRANCH  15  16
HETATM   16  O   UNL     1      62.970   2.812   4.971  1.00  0.00    -0.396 OA
HETATM   17  H   UNL     1      62.062   2.980   4.675  1.00  0.00     0.209 HD
ENDBRANCH  15  16
ENDBRANCH   5  15
TORSDOF 3
ENDMDL
