MODEL 1
REMARK VINA RESULT:      -4.9      0.000      0.000
REMARK  1 active torsions:
REMARK  status: ('A' for Active; 'I' for Inactive)
REMARK       I    between atoms: C_1  and  N_2 
REMARK    1  A    between atoms: C_1  and  C_5 
ROOT
HETATM    1  N   UNL     1      67.807   6.920   6.662  1.00  0.00    -0.075 N 
HETATM    2  C   UNL     1      65.378   7.226   5.048  1.00  0.00     0.081 C 
HETATM    3  C   UNL     1      66.502   6.986   7.323  1.00  0.00     0.233 C 
HETATM    4  C   UNL     1      67.829   7.783   5.481  1.00  0.00     0.233 C 
HETATM    5  C   UNL     1      65.385   6.501   6.399  1.00  0.00     0.041 C 
HETATM    6  C   UNL     1      66.787   7.341   4.460  1.00  0.00     0.041 C 
HETATM    7  H   UNL     1      68.529   7.224   7.314  1.00  0.00     0.277 HD
HETATM    8  H   UNL     1      67.979   5.957   6.370  1.00  0.00     0.277 HD
ENDROOT
BRANCH   2   9
HETATM    9  C   UNL     1      64.697   8.599   5.153  1.00  0.00     0.224 C 
HETATM   10  N   UNL     1      63.604   8.815   4.338  1.00  0.00    -0.352 N 
HETATM   11  C   UNL     1      62.916  10.089   4.330  1.00  0.00     0.126 C 
HETATM   12  C   UNL     1      63.151   7.973   3.246  1.00  0.00     0.126 C 
HETATM   13  C   UNL     1      61.598   9.780   3.641  1.00  0.00     0.021 C 
HETATM   14  C   UNL     1      61.966   8.706   2.624  1.00  0.00     0.021 C 
HETATM   15  O   UNL     1      65.085   9.448   5.956  1.00  0.00    -0.273 OA
ENDBRANCH   2   9
TORSDOF 1
ENDMDL
MODEL 2
REMARK VINA RESULT:      -4.4      1.607      5.145
REMARK  1 active torsions:
REMARK  status: ('A' for Active; 'I' for Inactive)
REMARK       I    between atoms: C_1  and  N_2 
REMARK    1  A    between atoms: C_1  and  C_5 
ROOT
HETATM    1  N   UNL     1      62.714   8.304   3.373  1.00  0.00    -0.075 N 
HETATM    2  C   UNL     1      65.061   8.090   5.119  1.00  0.00     0.081 C 
HETATM    3  C   UNL     1      62.751   9.052   4.631  1.00  0.00     0.233 C 
HETATM    4  C   UNL     1      63.387   7.013   3.523  1.00  0.00     0.233 C 
HETATM    5  C   UNL     1      64.187   9.349   5.060  1.00  0.00     0.041 C 
HETATM    6  C   UNL     1      64.855   7.201   3.889  1.00  0.00     0.041 C 
HETATM    7  H   UNL     1      61.743   8.147   3.105  1.00  0.00     0.277 HD
HETATM    8  H   UNL     1      63.195   8.845   2.655  1.00  0.00     0.277 HD
ENDROOT
BRANCH   2   9
HETATM    9  C   UNL     1      64.832   7.312   6.422  1.00  0.00     0.224 C 
HETATM   10  N   UNL     1      65.938   6.716   6.993  1.00  0.00    -0.352 N 
HETATM   11  C   UNL     1      65.824   5.924   8.200  1.00  0.00     0.126 C 
HETATM   12  C   UNL     1      67.253   6.566   6.397  1.00  0.00     0.126 C 
HETATM   13  C   UNL     1      67.257   5.807   8.690  1.00  0.00     0.021 C 
HETATM   14  C   UNL     1      68.075   5.767   7.404  1.00  0.00     0.021 C 
HETATM   15  O   UNL     1      63.720   7.257   6.951  1.00  0.00    -0.273 OA
ENDBRANCH   2   9
TORSDOF 1
ENDMDL
MODEL 3
REMARK VINA RESULT:      -4.3      1.425      2.286
REMARK  1 active torsions:
REMARK  status: ('A' for Active; 'I' for Inactive)
REMARK       I    between atoms: C_1  and  N_2 
REMARK    1  A    between atoms: C_1  and  C_5 
ROOT
HETATM    1  N   UNL     1      66.931   5.454   6.276  1.00  0.00    -0.075 N 
HETATM    2  C   UNL     1      65.410   7.834   5.486  1.00  0.00     0.081 C 
HETATM    3  C   UNL     1      67.289   6.168   5.049  1.00  0.00     0.233 C 
HETATM    4  C   UNL     1      65.483   5.488   6.485  1.00  0.00     0.233 C 
HETATM    5  C   UNL     1      66.888   7.640   5.125  1.00  0.00     0.041 C 
HETATM    6  C   UNL     1      64.986   6.920   6.640  1.00  0.00     0.041 C 
HETATM    7  H   UNL     1      67.237   4.484   6.200  1.00  0.00     0.277 HD
HETATM    8  H   UNL     1      67.389   5.908   7.066  1.00  0.00     0.277 HD
ENDROOT
BRANCH   2   9
HETATM    9  C   UNL     1      64.506   7.649   4.259  1.00  0.00     0.224 C 
HETATM   10  N   UNL     1      63.575   8.639   4.018  1.00  0.00    -0.352 N 
HETATM   11  C   UNL     1      62.646   8.541   2.912  1.00  0.00     0.126 C 
HETATM   12  C   UNL     1      63.212   9.729   4.905  1.00  0.00     0.126 C 
HETATM   13  C   UNL     1      62.106   9.953   2.769  1.00  0.00     0.021 C 
HETATM   14  C   UNL     1      62.083  10.476   4.201  1.00  0.00     0.021 C 
HETATM   15  O   UNL     1      64.635   6.683   3.505  1.00  0.00    -0.273 OA
ENDBRANCH   2   9
TORSDOF 1
ENDMDL
MODEL 4
REMARK VINA RESULT:      -4.2      1.578      5.075
REMARK  1 active torsions:
REMARK  status: ('A' for Active; 'I' for Inactive)
REMARK       I    between atoms: C_1  and  N_2 
REMARK    1  A    between atoms: C_1  and  C_5 
ROOT
HETATM    1  N   UNL     1      60.421   8.382   3.568  1.00  0.00    -0.075 N 
HETATM    2  C   UNL     1      63.318   7.936   3.476  1.00  0.00     0.081 C 
HETATM    3  C   UNL     1      61.330   9.530   3.546  1.00  0.00     0.233 C 
HETATM    4  C   UNL     1      61.006   7.279   4.331  1.00  0.00     0.233 C 
HETATM    5  C   UNL     1      62.654   9.177   2.869  1.00  0.00     0.041 C 
HETATM    6  C   UNL     1      62.309   6.806   3.697  1.00  0.00     0.041 C 
HETATM    7  H   UNL     1      59.541   8.660   4.002  1.00  0.00     0.277 HD
HETATM    8  H   UNL     1      60.259   8.071   2.610  1.00  0.00     0.277 HD
ENDROOT
BRANCH   2   9
HETATM    9  C   UNL     1      64.069   8.281   4.770  1.00  0.00     0.224 C 
HETATM   10  N   UNL     1      65.342   7.763   4.907  1.00  0.00    -0.352 N 
HETATM   11  C   UNL     1      66.120   7.995   6.106  1.00  0.00     0.126 C 
HETATM   12  C   UNL     1      65.972   6.763   4.064  1.00  0.00     0.126 C 
HETATM   13  C   UNL     1      67.534   7.622   5.695  1.00  0.00     0.021 C 
HETATM   14  C   UNL     1      67.331   6.486   4.699  1.00  0.00     0.021 C 
HETATM   15  O   UNL     1      63.573   9.017   5.625  1.00  0.00    -0.273 OA
ENDBRANCH   2   9
TORSDOF 1
ENDMDL
MODEL 5
REMARK VINA RESULT:      -4.2      2.312      5.689
REMARK  1 active torsions:
REMARK  status: ('A' for Active; 'I' for Inactive)
REMARK       I    between atoms: C_1  and  N_2 
REMARK    1  A    between atoms: C_1  and  C_5 
ROOT
HETATM    1  N   UNL     1      59.745   8.356   1.577  1.00  0.00    -0.075 N 
HETATM    2  C   UNL     1      62.332   8.851   2.867  1.00  0.00     0.081 C 
HETATM    3  C   UNL     1      60.050   7.715   2.858  1.00  0.00     0.233 C 
HETATM    4  C   UNL     1      60.952   8.463   0.757  1.00  0.00     0.233 C 
HETATM    5  C   UNL     1      61.060   8.533   3.662  1.00  0.00     0.041 C 
HETATM    6  C   UNL     1      62.007   9.320   1.446  1.00  0.00     0.041 C 
HETATM    7  H   UNL     1      59.050   7.798   1.081  1.00  0.00     0.277 HD
HETATM    8  H   UNL     1      59.383   9.293   1.756  1.00  0.00     0.277 HD
ENDROOT
BRANCH   2   9
HETATM    9  C   UNL     1      63.300   7.659   2.860  1.00  0.00     0.224 C 
HETATM   10  N   UNL     1      64.217   7.597   3.890  1.00  0.00    -0.352 N 
HETATM   11  C   UNL     1      65.200   6.537   3.955  1.00  0.00     0.126 C 
HETATM   12  C   UNL     1      64.508   8.635   4.862  1.00  0.00     0.126 C 
HETATM   13  C   UNL     1      65.711   6.606   5.383  1.00  0.00     0.021 C 
HETATM   14  C   UNL     1      65.651   8.093   5.716  1.00  0.00     0.021 C 
HETATM   15  O   UNL     1      63.232   6.782   1.998  1.00  0.00    -0.273 OA
ENDBRANCH   2   9
TORSDOF 1
ENDMDL
MODEL 6
REMARK VINA RESULT:      -3.9      1.865      5.213
REMARK  1 active torsions:
REMARK  status: ('A' for Active; 'I' for Inactive)
REMARK       I    between atoms: C_1  and  N_2 
REMARK    1  A    between atoms: C_1  and  C_5 
ROOT
HETATM    1  N   UNL     1      61.660   7.957   3.986  1.00  0.00    -0.075 N 
HETATM    2  C   UNL     1      64.107   7.895   5.600  1.00  0.00     0.081 C 
HETATM    3  C   UNL     1      62.043   6.722   4.673  1.00  0.00     0.233 C 
HETATM    4  C   UNL     1      62.847   8.678   3.525  1.00  0.00     0.233 C 
HETATM    5  C   UNL     1      62.891   7.014   5.910  1.00  0.00     0.041 C 
HETATM    6  C   UNL     1      63.735   9.075   4.698  1.00  0.00     0.041 C 
HETATM    7  H   UNL     1      61.074   7.727   3.184  1.00  0.00     0.277 HD
HETATM    8  H   UNL     1      61.146   8.551   4.638  1.00  0.00     0.277 HD
ENDROOT
BRANCH   2   9
HETATM    9  C   UNL     1      65.257   7.070   5.004  1.00  0.00     0.224 C 
HETATM   10  N   UNL     1      66.178   6.554   5.893  1.00  0.00    -0.352 N 
HETATM   11  C   UNL     1      67.322   5.796   5.432  1.00  0.00     0.126 C 
HETATM   12  C   UNL     1      66.301   6.871   7.305  1.00  0.00     0.126 C 
HETATM   13  C   UNL     1      67.823   5.101   6.686  1.00  0.00     0.021 C 
HETATM   14  C   UNL     1      67.522   6.100   7.796  1.00  0.00     0.021 C 
HETATM   15  O   UNL     1      65.329   6.849   3.794  1.00  0.00    -0.273 OA
ENDBRANCH   2   9
TORSDOF 1
ENDMDL
MODEL 7
REMARK VINA RESULT:      -3.6      1.953      2.524
REMARK  1 active torsions:
REMARK  status: ('A' for Active; 'I' for Inactive)
REMARK       I    between atoms: C_1  and  N_2 
REMARK    1  A    between atoms: C_1  and  C_5 
ROOT
HETATM    1  N   UNL     1      65.943   6.042   5.833  1.00  0.00    -0.075 N 
HETATM    2  C   UNL     1      64.346   7.860   4.177  1.00  0.00     0.081 C 
HETATM    3  C   UNL     1      65.126   5.501   4.745  1.00  0.00     0.233 C 
HETATM    4  C   UNL     1      65.277   7.188   6.455  1.00  0.00     0.233 C 
HETATM    5  C   UNL     1      64.911   6.538   3.643  1.00  0.00     0.041 C 
HETATM    6  C   UNL     1      65.071   8.313   5.447  1.00  0.00     0.041 C 
HETATM    7  H   UNL     1      66.088   5.317   6.535  1.00  0.00     0.277 HD
HETATM    8  H   UNL     1      66.838   6.349   5.452  1.00  0.00     0.277 HD
ENDROOT
BRANCH   2   9
HETATM    9  C   UNL     1      62.828   7.773   4.394  1.00  0.00     0.224 C 
HETATM   10  N   UNL     1      62.027   8.044   3.303  1.00  0.00    -0.352 N 
HETATM   11  C   UNL     1      60.584   8.029   3.411  1.00  0.00     0.126 C 
HETATM   12  C   UNL     1      62.447   8.602   2.030  1.00  0.00     0.126 C 
HETATM   13  C   UNL     1      60.115   7.973   1.967  1.00  0.00     0.021 C 
HETATM   14  C   UNL     1      61.169   8.779   1.216  1.00  0.00     0.021 C 
HETATM   15  O   UNL     1      62.353   7.438   5.480  1.00  0.00    -0.273 OA
ENDBRANCH   2   9
TORSDOF 1
ENDMDL
MODEL 8
REMARK VINA RESULT:      -3.6      3.458      4.530
REMARK  1 active torsions:
REMARK  status: ('A' for Active; 'I' for Inactive)
REMARK       I    between atoms: C_1  and  N_2 
REMARK    1  A    between atoms: C_1  and  C_5 
ROOT
HETATM    1  N   UNL     1      59.626   5.529   5.903  1.00  0.00    -0.075 N 
HETATM    2  C   UNL     1      62.077   6.596   4.696  1.00  0.00     0.081 C 
HETATM    3  C   UNL     1      59.533   6.522   4.831  1.00  0.00     0.233 C 
HETATM    4  C   UNL     1      60.791   5.795   6.748  1.00  0.00     0.233 C 
HETATM    5  C   UNL     1      60.760   6.476   3.921  1.00  0.00     0.041 C 
HETATM    6  C   UNL     1      62.082   5.708   5.943  1.00  0.00     0.041 C 
HETATM    7  H   UNL     1      58.781   5.571   6.472  1.00  0.00     0.277 HD
HETATM    8  H   UNL     1      59.726   4.604   5.486  1.00  0.00     0.277 HD
ENDROOT
BRANCH   2   9
HETATM    9  C   UNL     1      62.389   8.059   5.045  1.00  0.00     0.224 C 
HETATM   10  N   UNL     1      62.216   8.988   4.038  1.00  0.00    -0.352 N 
HETATM   11  C   UNL     1      62.521  10.387   4.250  1.00  0.00     0.126 C 
HETATM   12  C   UNL     1      61.973   8.717   2.633  1.00  0.00     0.126 C 
HETATM   13  C   UNL     1      61.835  11.085   3.089  1.00  0.00     0.021 C 
HETATM   14  C   UNL     1      61.947  10.080   1.948  1.00  0.00     0.021 C 
HETATM   15  O   UNL     1      62.737   8.389   6.179  1.00  0.00    -0.273 OA
ENDBRANCH   2   9
TORSDOF 1
ENDMDL
MODEL 9
REMARK VINA RESULT:      -3.6     12.834     13.626
REMARK  1 active torsions:
REMARK  status: ('A' for Active; 'I' for Inactive)
REMARK       I    between atoms: C_1  and  N_2 
REMARK    1  A    between atoms: C_1  and  C_5 
ROOT
HETATM    1  N   UNL     1      59.585   0.402  12.462  1.00  0.00    -0.075 N 
HETATM    2  C   UNL     1      57.091   1.181  13.794  1.00  0.00     0.081 C 
HETATM    3  C   UNL     1      59.503   1.692  13.149  1.00  0.00     0.233 C 
HETATM    4  C   UNL     1      58.302   0.067  11.843  1.00  0.00     0.233 C 
HETATM    5  C   UNL     1      58.466   1.660  14.272  1.00  0.00     0.041 C 
HETATM    6  C   UNL     1      57.203  -0.053  12.894  1.00  0.00     0.041 C 
HETATM    7  H   UNL     1      60.303   0.452  11.740  1.00  0.00     0.277 HD
HETATM    8  H   UNL     1      59.820  -0.320  13.144  1.00  0.00     0.277 HD
ENDROOT
BRANCH   2   9
HETATM    9  C   UNL     1      56.313   2.312  13.105  1.00  0.00     0.224 C 
HETATM   10  N   UNL     1      54.996   2.480  13.483  1.00  0.00    -0.352 N 
HETATM   11  C   UNL     1      54.163   3.490  12.866  1.00  0.00     0.126 C 
HETATM   12  C   UNL     1      54.202   1.582  14.303  1.00  0.00     0.126 C 
HETATM   13  C   UNL     1      52.979   3.606  13.811  1.00  0.00     0.021 C 
HETATM   14  C   UNL     1      52.803   2.189  14.343  1.00  0.00     0.021 C 
HETATM   15  O   UNL     1      56.852   3.056  12.285  1.00  0.00    -0.273 OA
ENDBRANCH   2   9
TORSDOF 1
ENDMDL
