MODEL 1
REMARK VINA RESULT:      -5.4      0.000      0.000
REMARK  4 active torsions:
REMARK  status: ('A' for Active; 'I' for Inactive)
REMARK    1  A    between atoms: N_1  and  C_2 
REMARK    2  A    between atoms: C_2  and  C_3 
REMARK    3  A    between atoms: C_5  and  C_11 
REMARK    4  A    between atoms: N_6  and  C_11 
ROOT
HETATM    1  C   UNL     1      62.880   8.756   4.898  1.00  0.00    -0.032 A 
HETATM    2  C   UNL     1      62.363   8.512   3.616  1.00  0.00     0.017 A 
HETATM    3  C   UNL     1      61.953   9.564   2.783  1.00  0.00    -0.033 A 
HETATM    4  C   UNL     1      62.437  11.124   4.579  1.00  0.00     0.001 A 
HETATM    5  C   UNL     1      62.894  10.073   5.378  1.00  0.00     0.009 A 
HETATM    6  C   UNL     1      61.986  10.873   3.281  1.00  0.00     0.009 A 
ENDROOT
BRANCH   1   7
HETATM    7  C   UNL     1      63.453   7.619   5.724  1.00  0.00     0.273 C 
BRANCH   7   8
HETATM    8  N   UNL     1      64.898   7.769   6.012  1.00  0.00    -0.067 N 
HETATM    9  C   UNL     1      65.347   6.833   7.059  1.00  0.00     0.235 C 
HETATM   10  C   UNL     1      66.831   7.032   7.383  1.00  0.00     0.028 C 
HETATM   11  C   UNL     1      67.686   6.860   6.136  1.00  0.00     0.003 C 
HETATM   12  C   UNL     1      67.185   7.781   5.032  1.00  0.00     0.028 C 
HETATM   13  C   UNL     1      65.685   7.589   4.781  1.00  0.00     0.235 C 
HETATM   14  H   UNL     1      65.049   8.714   6.365  1.00  0.00     0.280 HD
ENDBRANCH   7   8
ENDBRANCH   1   7
BRANCH   3  15
HETATM   15  C   UNL     1      61.557   9.290   1.355  1.00  0.00     0.268 C 
BRANCH  15  16
HETATM   16  N   UNL     1      60.206   8.758   1.247  1.00  0.00    -0.075 N 
HETATM   17  H   UNL     1      59.534   9.523   1.312  1.00  0.00     0.274 HD
HETATM   18  H   UNL     1      60.040   8.094   2.003  1.00  0.00     0.274 HD
HETATM   19  H   UNL     1      60.097   8.286   0.350  1.00  0.00     0.274 HD
ENDBRANCH  15  16
ENDBRANCH   3  15
TORSDOF 4
ENDMDL
MODEL 2
REMARK VINA RESULT:      -5.3      2.017      2.689
REMARK  4 active torsions:
REMARK  status: ('A' for Active; 'I' for Inactive)
REMARK    1  A    between atoms: N_1  and  C_2 
REMARK    2  A    between atoms: C_2  and  C_3 
REMARK    3  A    between atoms: C_5  and  C_11 
REMARK    4  A    between atoms: N_6  and  C_11 
ROOT
HETATM    1  C   UNL     1      63.556   8.041   3.756  1.00  0.00    -0.032 A 
HETATM    2  C   UNL     1      63.545   9.130   4.642  1.00  0.00     0.017 A 
HETATM    3  C   UNL     1      62.727  10.247   4.414  1.00  0.00    -0.033 A 
HETATM    4  C   UNL     1      62.023   9.256   2.314  1.00  0.00     0.001 A 
HETATM    5  C   UNL     1      62.800   8.125   2.579  1.00  0.00     0.009 A 
HETATM    6  C   UNL     1      61.972  10.303   3.236  1.00  0.00     0.009 A 
ENDROOT
BRANCH   1   7
HETATM    7  C   UNL     1      64.334   6.783   4.095  1.00  0.00     0.273 C 
BRANCH   7   8
HETATM    8  N   UNL     1      65.409   7.005   5.089  1.00  0.00    -0.067 N 
HETATM    9  C   UNL     1      65.258   6.126   6.264  1.00  0.00     0.235 C 
HETATM   10  C   UNL     1      66.346   6.399   7.306  1.00  0.00     0.028 C 
HETATM   11  C   UNL     1      67.732   6.219   6.703  1.00  0.00     0.003 C 
HETATM   12  C   UNL     1      67.869   7.079   5.454  1.00  0.00     0.028 C 
HETATM   13  C   UNL     1      66.729   6.815   4.464  1.00  0.00     0.235 C 
HETATM   14  H   UNL     1      65.335   7.967   5.419  1.00  0.00     0.280 HD
ENDBRANCH   7   8
ENDBRANCH   1   7
BRANCH   3  15
HETATM   15  C   UNL     1      62.611  11.327   5.459  1.00  0.00     0.268 C 
BRANCH  15  16
HETATM   16  N   UNL     1      63.799  11.419   6.296  1.00  0.00    -0.075 N 
HETATM   17  H   UNL     1      64.366  12.211   5.993  1.00  0.00     0.274 HD
HETATM   18  H   UNL     1      64.341  10.559   6.212  1.00  0.00     0.274 HD
HETATM   19  H   UNL     1      63.521  11.552   7.268  1.00  0.00     0.274 HD
ENDBRANCH  15  16
ENDBRANCH   3  15
TORSDOF 4
ENDMDL
MODEL 3
REMARK VINA RESULT:      -5.2      2.273      3.527
REMARK  4 active torsions:
REMARK  status: ('A' for Active; 'I' for Inactive)
REMARK    1  A    between atoms: N_1  and  C_2 
REMARK    2  A    between atoms: C_2  and  C_3 
REMARK    3  A    between atoms: C_5  and  C_11 
REMARK    4  A    between atoms: N_6  and  C_11 
ROOT
HETATM    1  C   UNL     1      65.216   7.760   4.724  1.00  0.00    -0.032 A 
HETATM    2  C   UNL     1      64.703   9.009   5.108  1.00  0.00     0.017 A 
HETATM    3  C   UNL     1      63.382   9.377   4.813  1.00  0.00    -0.033 A 
HETATM    4  C   UNL     1      63.111   7.291   3.602  1.00  0.00     0.001 A 
HETATM    5  C   UNL     1      64.411   6.912   3.950  1.00  0.00     0.009 A 
HETATM    6  C   UNL     1      62.593   8.508   4.047  1.00  0.00     0.009 A 
ENDROOT
BRANCH   1   7
HETATM    7  C   UNL     1      66.596   7.323   5.179  1.00  0.00     0.273 C 
BRANCH   7   8
HETATM    8  N   UNL     1      66.574   6.460   6.383  1.00  0.00    -0.067 N 
HETATM    9  C   UNL     1      67.625   5.427   6.334  1.00  0.00     0.235 C 
HETATM   10  C   UNL     1      67.561   4.511   7.560  1.00  0.00     0.028 C 
HETATM   11  C   UNL     1      67.689   5.316   8.845  1.00  0.00     0.003 C 
HETATM   12  C   UNL     1      66.644   6.424   8.870  1.00  0.00     0.028 C 
HETATM   13  C   UNL     1      66.706   7.280   7.599  1.00  0.00     0.235 C 
HETATM   14  H   UNL     1      65.676   5.978   6.405  1.00  0.00     0.280 HD
ENDBRANCH   7   8
ENDBRANCH   1   7
BRANCH   3  15
HETATM   15  C   UNL     1      62.806  10.650   5.377  1.00  0.00     0.268 C 
BRANCH  15  16
HETATM   16  N   UNL     1      63.750  11.354   6.233  1.00  0.00    -0.075 N 
HETATM   17  H   UNL     1      63.689  12.357   6.053  1.00  0.00     0.274 HD
HETATM   18  H   UNL     1      64.696  11.030   6.034  1.00  0.00     0.274 HD
HETATM   19  H   UNL     1      63.525  11.171   7.210  1.00  0.00     0.274 HD
ENDBRANCH  15  16
ENDBRANCH   3  15
TORSDOF 4
ENDMDL
MODEL 4
REMARK VINA RESULT:      -4.9      1.594      6.174
REMARK  4 active torsions:
REMARK  status: ('A' for Active; 'I' for Inactive)
REMARK    1  A    between atoms: N_1  and  C_2 
REMARK    2  A    between atoms: C_2  and  C_3 
REMARK    3  A    between atoms: C_5  and  C_11 
REMARK    4  A    between atoms: N_6  and  C_11 
ROOT
HETATM    1  C   UNL     1      64.450   7.563   5.477  1.00  0.00    -0.032 A 
HETATM    2  C   UNL     1      64.695   6.924   6.703  1.00  0.00     0.017 A 
HETATM    3  C   UNL     1      65.997   6.803   7.214  1.00  0.00    -0.033 A 
HETATM    4  C   UNL     1      66.848   7.836   5.190  1.00  0.00     0.001 A 
HETATM    5  C   UNL     1      65.544   8.000   4.716  1.00  0.00     0.009 A 
HETATM    6  C   UNL     1      67.072   7.258   6.441  1.00  0.00     0.009 A 
ENDROOT
BRANCH   1   7
HETATM    7  C   UNL     1      63.027   7.813   5.013  1.00  0.00     0.273 C 
BRANCH   7   8
HETATM    8  N   UNL     1      62.944   8.640   3.787  1.00  0.00    -0.067 N 
HETATM    9  C   UNL     1      62.473   7.857   2.630  1.00  0.00     0.235 C 
HETATM   10  C   UNL     1      62.438   8.709   1.358  1.00  0.00     0.028 C 
HETATM   11  C   UNL     1      61.551   9.931   1.549  1.00  0.00     0.003 C 
HETATM   12  C   UNL     1      61.996  10.709   2.780  1.00  0.00     0.028 C 
HETATM   13  C   UNL     1      62.072   9.804   4.016  1.00  0.00     0.235 C 
HETATM   14  H   UNL     1      63.884   8.969   3.568  1.00  0.00     0.280 HD
ENDBRANCH   7   8
ENDBRANCH   1   7
BRANCH   3  15
HETATM   15  C   UNL     1      66.217   6.262   8.603  1.00  0.00     0.268 C 
BRANCH  15  16
HETATM   16  N   UNL     1      66.275   4.808   8.629  1.00  0.00    -0.075 N 
HETATM   17  H   UNL     1      67.139   4.494   8.186  1.00  0.00     0.274 HD
HETATM   18  H   UNL     1      65.475   4.427   8.124  1.00  0.00     0.274 HD
HETATM   19  H   UNL     1      66.252   4.484   9.596  1.00  0.00     0.274 HD
ENDBRANCH  15  16
ENDBRANCH   3  15
TORSDOF 4
ENDMDL
MODEL 5
REMARK VINA RESULT:      -4.7      2.059      2.916
REMARK  4 active torsions:
REMARK  status: ('A' for Active; 'I' for Inactive)
REMARK    1  A    between atoms: N_1  and  C_2 
REMARK    2  A    between atoms: C_2  and  C_3 
REMARK    3  A    between atoms: C_5  and  C_11 
REMARK    4  A    between atoms: N_6  and  C_11 
ROOT
HETATM    1  C   UNL     1      62.601   8.259   3.473  1.00  0.00    -0.032 A 
HETATM    2  C   UNL     1      62.783   9.244   4.456  1.00  0.00     0.017 A 
HETATM    3  C   UNL     1      62.391  10.574   4.238  1.00  0.00    -0.033 A 
HETATM    4  C   UNL     1      61.759   9.976   1.972  1.00  0.00     0.001 A 
HETATM    5  C   UNL     1      62.103   8.644   2.220  1.00  0.00     0.009 A 
HETATM    6  C   UNL     1      61.885  10.932   2.982  1.00  0.00     0.009 A 
ENDROOT
BRANCH   1   7
HETATM    7  C   UNL     1      62.896   6.803   3.780  1.00  0.00     0.273 C 
BRANCH   7   8
HETATM    8  N   UNL     1      64.108   6.609   4.609  1.00  0.00    -0.067 N 
HETATM    9  C   UNL     1      63.787   6.004   5.915  1.00  0.00     0.235 C 
HETATM   10  C   UNL     1      65.041   5.854   6.782  1.00  0.00     0.028 C 
HETATM   11  C   UNL     1      66.094   5.016   6.070  1.00  0.00     0.003 C 
HETATM   12  C   UNL     1      66.382   5.604   4.695  1.00  0.00     0.028 C 
HETATM   13  C   UNL     1      65.094   5.790   3.885  1.00  0.00     0.235 C 
HETATM   14  H   UNL     1      64.511   7.528   4.791  1.00  0.00     0.280 HD
ENDBRANCH   7   8
ENDBRANCH   1   7
BRANCH   3  15
HETATM   15  C   UNL     1      62.445  11.574   5.364  1.00  0.00     0.268 C 
BRANCH  15  16
HETATM   16  N   UNL     1      63.607  11.384   6.220  1.00  0.00    -0.075 N 
HETATM   17  H   UNL     1      63.555  10.467   6.664  1.00  0.00     0.274 HD
HETATM   18  H   UNL     1      63.624  12.109   6.936  1.00  0.00     0.274 HD
HETATM   19  H   UNL     1      64.456  11.441   5.658  1.00  0.00     0.274 HD
ENDBRANCH  15  16
ENDBRANCH   3  15
TORSDOF 4
ENDMDL
MODEL 6
REMARK VINA RESULT:      -4.7      1.602      5.799
REMARK  4 active torsions:
REMARK  status: ('A' for Active; 'I' for Inactive)
REMARK    1  A    between atoms: N_1  and  C_2 
REMARK    2  A    between atoms: C_2  and  C_3 
REMARK    3  A    between atoms: C_5  and  C_11 
REMARK    4  A    between atoms: N_6  and  C_11 
ROOT
HETATM    1  C   UNL     1      64.038   7.893   5.620  1.00  0.00    -0.032 A 
HETATM    2  C   UNL     1      65.426   8.001   5.436  1.00  0.00     0.017 A 
HETATM    3  C   UNL     1      66.284   6.925   5.707  1.00  0.00    -0.033 A 
HETATM    4  C   UNL     1      64.376   5.652   6.500  1.00  0.00     0.001 A 
HETATM    5  C   UNL     1      63.525   6.712   6.175  1.00  0.00     0.009 A 
HETATM    6  C   UNL     1      65.746   5.751   6.250  1.00  0.00     0.009 A 
ENDROOT
BRANCH   1   7
HETATM    7  C   UNL     1      63.115   9.015   5.184  1.00  0.00     0.273 C 
BRANCH   7   8
HETATM    8  N   UNL     1      62.999   9.145   3.713  1.00  0.00    -0.067 N 
HETATM    9  C   UNL     1      62.571   7.883   3.084  1.00  0.00     0.235 C 
HETATM   10  C   UNL     1      62.503   8.016   1.560  1.00  0.00     0.028 C 
HETATM   11  C   UNL     1      61.559   9.139   1.156  1.00  0.00     0.003 C 
HETATM   12  C   UNL     1      61.962  10.432   1.853  1.00  0.00     0.028 C 
HETATM   13  C   UNL     1      62.074  10.238   3.370  1.00  0.00     0.235 C 
HETATM   14  H   UNL     1      63.925   9.368   3.346  1.00  0.00     0.280 HD
ENDBRANCH   7   8
ENDBRANCH   1   7
BRANCH   3  15
HETATM   15  C   UNL     1      67.744   7.011   5.346  1.00  0.00     0.268 C 
BRANCH  15  16
HETATM   16  N   UNL     1      68.006   8.017   4.327  1.00  0.00    -0.075 N 
HETATM   17  H   UNL     1      67.125   8.299   3.895  1.00  0.00     0.274 HD
HETATM   18  H   UNL     1      68.625   7.628   3.616  1.00  0.00     0.274 HD
HETATM   19  H   UNL     1      68.449   8.829   4.756  1.00  0.00     0.274 HD
ENDBRANCH  15  16
ENDBRANCH   3  15
TORSDOF 4
ENDMDL
MODEL 7
REMARK VINA RESULT:      -4.6      2.404      6.148
REMARK  4 active torsions:
REMARK  status: ('A' for Active; 'I' for Inactive)
REMARK    1  A    between atoms: N_1  and  C_2 
REMARK    2  A    between atoms: C_2  and  C_3 
REMARK    3  A    between atoms: C_5  and  C_11 
REMARK    4  A    between atoms: N_6  and  C_11 
ROOT
HETATM    1  C   UNL     1      63.354   7.552   3.166  1.00  0.00    -0.032 A 
HETATM    2  C   UNL     1      62.789   8.688   3.766  1.00  0.00     0.017 A 
HETATM    3  C   UNL     1      63.445   9.367   4.804  1.00  0.00    -0.033 A 
HETATM    4  C   UNL     1      65.189   7.679   4.756  1.00  0.00     0.001 A 
HETATM    5  C   UNL     1      64.553   7.043   3.686  1.00  0.00     0.009 A 
HETATM    6  C   UNL     1      64.647   8.846   5.299  1.00  0.00     0.009 A 
ENDROOT
BRANCH   1   7
HETATM    7  C   UNL     1      62.701   6.920   1.951  1.00  0.00     0.273 C 
BRANCH   7   8
HETATM    8  N   UNL     1      61.253   7.210   1.842  1.00  0.00    -0.067 N 
HETATM    9  C   UNL     1      60.900   7.745   0.514  1.00  0.00     0.235 C 
HETATM   10  C   UNL     1      59.410   8.088   0.430  1.00  0.00     0.028 C 
HETATM   11  C   UNL     1      58.555   6.867   0.737  1.00  0.00     0.003 C 
HETATM   12  C   UNL     1      58.959   6.275   2.081  1.00  0.00     0.028 C 
HETATM   13  C   UNL     1      60.467   6.002   2.142  1.00  0.00     0.235 C 
HETATM   14  H   UNL     1      61.027   7.930   2.529  1.00  0.00     0.280 HD
ENDBRANCH   7   8
ENDBRANCH   1   7
BRANCH   3  15
HETATM   15  C   UNL     1      62.899  10.674   5.319  1.00  0.00     0.268 C 
BRANCH  15  16
HETATM   16  N   UNL     1      63.806  11.325   6.252  1.00  0.00    -0.075 N 
HETATM   17  H   UNL     1      63.952  10.721   7.062  1.00  0.00     0.274 HD
HETATM   18  H   UNL     1      63.403  12.211   6.557  1.00  0.00     0.274 HD
HETATM   19  H   UNL     1      64.700  11.499   5.793  1.00  0.00     0.274 HD
ENDBRANCH  15  16
ENDBRANCH   3  15
TORSDOF 4
ENDMDL
MODEL 8
REMARK VINA RESULT:      -4.6      2.102      5.900
REMARK  4 active torsions:
REMARK  status: ('A' for Active; 'I' for Inactive)
REMARK    1  A    between atoms: N_1  and  C_2 
REMARK    2  A    between atoms: C_2  and  C_3 
REMARK    3  A    between atoms: C_5  and  C_11 
REMARK    4  A    between atoms: N_6  and  C_11 
ROOT
HETATM    1  C   UNL     1      64.936   7.445   4.805  1.00  0.00    -0.032 A 
HETATM    2  C   UNL     1      65.457   6.313   4.158  1.00  0.00     0.017 A 
HETATM    3  C   UNL     1      66.779   5.895   4.370  1.00  0.00    -0.033 A 
HETATM    4  C   UNL     1      67.127   7.841   5.779  1.00  0.00     0.001 A 
HETATM    5  C   UNL     1      65.792   8.216   5.603  1.00  0.00     0.009 A 
HETATM    6  C   UNL     1      67.613   6.677   5.181  1.00  0.00     0.009 A 
ENDROOT
BRANCH   1   7
HETATM    7  C   UNL     1      63.465   7.794   4.676  1.00  0.00     0.273 C 
BRANCH   7   8
HETATM    8  N   UNL     1      63.179   8.746   3.578  1.00  0.00    -0.067 N 
HETATM    9  C   UNL     1      62.622   8.065   2.395  1.00  0.00     0.235 C 
HETATM   10  C   UNL     1      62.377   9.053   1.249  1.00  0.00     0.028 C 
HETATM   11  C   UNL     1      61.442  10.170   1.688  1.00  0.00     0.003 C 
HETATM   12  C   UNL     1      61.983  10.835   2.947  1.00  0.00     0.028 C 
HETATM   13  C   UNL     1      62.268   9.804   4.046  1.00  0.00     0.235 C 
HETATM   14  H   UNL     1      64.062   9.171   3.296  1.00  0.00     0.280 HD
ENDBRANCH   7   8
ENDBRANCH   1   7
BRANCH   3  15
HETATM   15  C   UNL     1      67.263   4.590   3.796  1.00  0.00     0.268 C 
BRANCH  15  16
HETATM   16  N   UNL     1      67.558   4.685   2.373  1.00  0.00    -0.075 N 
HETATM   17  H   UNL     1      66.948   5.382   1.946  1.00  0.00     0.274 HD
HETATM   18  H   UNL     1      67.401   3.779   1.932  1.00  0.00     0.274 HD
HETATM   19  H   UNL     1      68.531   4.962   2.245  1.00  0.00     0.274 HD
ENDBRANCH  15  16
ENDBRANCH   3  15
TORSDOF 4
ENDMDL
MODEL 9
REMARK VINA RESULT:      -4.4      1.517      2.309
REMARK  4 active torsions:
REMARK  status: ('A' for Active; 'I' for Inactive)
REMARK    1  A    between atoms: N_1  and  C_2 
REMARK    2  A    between atoms: C_2  and  C_3 
REMARK    3  A    between atoms: C_5  and  C_11 
REMARK    4  A    between atoms: N_6  and  C_11 
ROOT
HETATM    1  C   UNL     1      62.618   7.789   4.677  1.00  0.00    -0.032 A 
HETATM    2  C   UNL     1      62.764   8.795   3.709  1.00  0.00     0.017 A 
HETATM    3  C   UNL     1      61.788   9.006   2.723  1.00  0.00    -0.033 A 
HETATM    4  C   UNL     1      60.565   7.091   3.577  1.00  0.00     0.001 A 
HETATM    5  C   UNL     1      61.517   6.926   4.588  1.00  0.00     0.009 A 
HETATM    6  C   UNL     1      60.691   8.137   2.662  1.00  0.00     0.009 A 
ENDROOT
BRANCH   1   7
HETATM    7  C   UNL     1      63.610   7.673   5.819  1.00  0.00     0.273 C 
BRANCH   7   8
HETATM    8  N   UNL     1      64.922   7.123   5.407  1.00  0.00    -0.067 N 
HETATM    9  C   UNL     1      65.998   8.123   5.534  1.00  0.00     0.235 C 
HETATM   10  C   UNL     1      67.340   7.558   5.058  1.00  0.00     0.028 C 
HETATM   11  C   UNL     1      67.707   6.304   5.838  1.00  0.00     0.003 C 
HETATM   12  C   UNL     1      66.571   5.294   5.761  1.00  0.00     0.028 C 
HETATM   13  C   UNL     1      65.238   5.917   6.191  1.00  0.00     0.235 C 
HETATM   14  H   UNL     1      64.858   6.869   4.421  1.00  0.00     0.280 HD
ENDBRANCH   7   8
ENDBRANCH   1   7
BRANCH   3  15
HETATM   15  C   UNL     1      61.887  10.193   1.800  1.00  0.00     0.268 C 
BRANCH  15  16
HETATM   16  N   UNL     1      61.632  11.452   2.486  1.00  0.00    -0.075 N 
HETATM   17  H   UNL     1      60.720  11.411   2.942  1.00  0.00     0.274 HD
HETATM   18  H   UNL     1      61.641  12.215   1.809  1.00  0.00     0.274 HD
HETATM   19  H   UNL     1      62.355  11.610   3.186  1.00  0.00     0.274 HD
ENDBRANCH  15  16
ENDBRANCH   3  15
TORSDOF 4
ENDMDL
