MODEL 1
REMARK VINA RESULT:      -3.8      0.000      0.000
REMARK  2 active torsions:
REMARK  status: ('A' for Active; 'I' for Inactive)
REMARK    1  A    between atoms: N_1  and  C_2 
REMARK    2  A    between atoms: C_7  and  C_8 
ROOT
HETATM    1  C   UNL     1      63.239  10.660   5.038  1.00  0.00     0.183 C 
HETATM    2  C   UNL     1      62.030  11.107   4.211  1.00  0.00     0.033 C 
HETATM    3  C   UNL     1      63.351   9.133   5.127  1.00  0.00     0.033 C 
HETATM    4  C   UNL     1      63.278   8.469   3.748  1.00  0.00     0.006 C 
HETATM    5  C   UNL     1      62.016  10.432   2.840  1.00  0.00     0.006 C 
HETATM    6  C   UNL     1      62.038   8.899   2.944  1.00  0.00    -0.015 C 
ENDROOT
BRANCH   1   7
HETATM    7  N   UNL     1      63.151  11.226   6.382  1.00  0.00    -0.075 N 
HETATM    8  H   UNL     1      62.884  12.209   6.320  1.00  0.00     0.274 HD
HETATM    9  H   UNL     1      64.057  11.150   6.844  1.00  0.00     0.274 HD
HETATM   10  H   UNL     1      62.450  10.718   6.922  1.00  0.00     0.274 HD
ENDBRANCH   1   7
BRANCH   6  11
HETATM   11  C   UNL     1      60.753   8.295   3.554  1.00  0.00     0.000 C 
HETATM   12  C   UNL     1      60.796   6.781   3.715  1.00  0.00     0.005 C 
ENDBRANCH   6  11
TORSDOF 2
ENDMDL
MODEL 2
REMARK VINA RESULT:      -3.6      2.789      4.344
REMARK  2 active torsions:
REMARK  status: ('A' for Active; 'I' for Inactive)
REMARK    1  A    between atoms: N_1  and  C_2 
REMARK    2  A    between atoms: C_7  and  C_8 
ROOT
HETATM    1  C   UNL     1      60.307   7.395   2.085  1.00  0.00     0.183 C 
HETATM    2  C   UNL     1      60.787   7.713   3.505  1.00  0.00     0.033 C 
HETATM    3  C   UNL     1      60.585   8.541   1.105  1.00  0.00     0.033 C 
HETATM    4  C   UNL     1      62.043   9.008   1.165  1.00  0.00     0.006 C 
HETATM    5  C   UNL     1      62.251   8.152   3.510  1.00  0.00     0.006 C 
HETATM    6  C   UNL     1      62.500   9.360   2.593  1.00  0.00    -0.015 C 
ENDROOT
BRANCH   1   7
HETATM    7  N   UNL     1      58.876   7.100   2.105  1.00  0.00    -0.075 N 
HETATM    8  H   UNL     1      58.464   7.353   1.206  1.00  0.00     0.274 HD
HETATM    9  H   UNL     1      58.427   7.637   2.847  1.00  0.00     0.274 HD
HETATM   10  H   UNL     1      58.736   6.103   2.273  1.00  0.00     0.274 HD
ENDBRANCH   1   7
BRANCH   6  11
HETATM   11  C   UNL     1      61.826  10.663   3.077  1.00  0.00     0.000 C 
HETATM   12  C   UNL     1      61.803  11.774   2.036  1.00  0.00     0.005 C 
ENDBRANCH   6  11
TORSDOF 2
ENDMDL
MODEL 3
REMARK VINA RESULT:      -3.6      1.162      2.424
REMARK  2 active torsions:
REMARK  status: ('A' for Active; 'I' for Inactive)
REMARK    1  A    between atoms: N_1  and  C_2 
REMARK    2  A    between atoms: C_7  and  C_8 
ROOT
HETATM    1  C   UNL     1      62.837  10.091   5.429  1.00  0.00     0.183 C 
HETATM    2  C   UNL     1      63.463   8.714   5.188  1.00  0.00     0.033 C 
HETATM    3  C   UNL     1      62.143  10.643   4.177  1.00  0.00     0.033 C 
HETATM    4  C   UNL     1      61.169   9.630   3.566  1.00  0.00     0.006 C 
HETATM    5  C   UNL     1      62.445   7.738   4.598  1.00  0.00     0.006 C 
HETATM    6  C   UNL     1      61.823   8.262   3.294  1.00  0.00    -0.015 C 
ENDROOT
BRANCH   1   7
HETATM    7  N   UNL     1      63.866  11.028   5.874  1.00  0.00    -0.075 N 
HETATM    8  H   UNL     1      64.340  10.648   6.694  1.00  0.00     0.274 HD
HETATM    9  H   UNL     1      63.435  11.920   6.114  1.00  0.00     0.274 HD
HETATM   10  H   UNL     1      64.546  11.169   5.126  1.00  0.00     0.274 HD
ENDBRANCH   1   7
BRANCH   6  11
HETATM   11  C   UNL     1      62.819   8.356   2.118  1.00  0.00     0.000 C 
HETATM   12  C   UNL     1      62.210   8.889   0.829  1.00  0.00     0.005 C 
ENDBRANCH   6  11
TORSDOF 2
ENDMDL
MODEL 4
REMARK VINA RESULT:      -3.5      1.903      2.524
REMARK  2 active torsions:
REMARK  status: ('A' for Active; 'I' for Inactive)
REMARK    1  A    between atoms: N_1  and  C_2 
REMARK    2  A    between atoms: C_7  and  C_8 
ROOT
HETATM    1  C   UNL     1      62.153  10.655   2.312  1.00  0.00     0.183 C 
HETATM    2  C   UNL     1      61.709   9.488   1.424  1.00  0.00     0.033 C 
HETATM    3  C   UNL     1      62.013  10.337   3.806  1.00  0.00     0.033 C 
HETATM    4  C   UNL     1      62.676   9.005   4.174  1.00  0.00     0.006 C 
HETATM    5  C   UNL     1      62.415   8.192   1.821  1.00  0.00     0.006 C 
HETATM    6  C   UNL     1      62.192   7.835   3.299  1.00  0.00    -0.015 C 
ENDROOT
BRANCH   1   7
HETATM    7  N   UNL     1      61.369  11.845   1.987  1.00  0.00    -0.075 N 
HETATM    8  H   UNL     1      61.984  12.658   1.949  1.00  0.00     0.274 HD
HETATM    9  H   UNL     1      60.658  11.991   2.704  1.00  0.00     0.274 HD
HETATM   10  H   UNL     1      60.918  11.719   1.080  1.00  0.00     0.274 HD
ENDBRANCH   1   7
BRANCH   6  11
HETATM   11  C   UNL     1      60.732   7.462   3.640  1.00  0.00     0.000 C 
HETATM   12  C   UNL     1      60.594   6.514   4.823  1.00  0.00     0.005 C 
ENDBRANCH   6  11
TORSDOF 2
ENDMDL
MODEL 5
REMARK VINA RESULT:      -3.4      2.276      2.885
REMARK  2 active torsions:
REMARK  status: ('A' for Active; 'I' for Inactive)
REMARK    1  A    between atoms: N_1  and  C_2 
REMARK    2  A    between atoms: C_7  and  C_8 
ROOT
HETATM    1  C   UNL     1      62.151   9.608   3.025  1.00  0.00     0.183 C 
HETATM    2  C   UNL     1      62.070  10.010   1.550  1.00  0.00     0.033 C 
HETATM    3  C   UNL     1      61.112   8.543   3.397  1.00  0.00     0.033 C 
HETATM    4  C   UNL     1      61.144   7.349   2.439  1.00  0.00     0.006 C 
HETATM    5  C   UNL     1      62.127   8.785   0.638  1.00  0.00     0.006 C 
HETATM    6  C   UNL     1      61.023   7.765   0.961  1.00  0.00    -0.015 C 
ENDROOT
BRANCH   1   7
HETATM    7  N   UNL     1      61.968  10.789   3.867  1.00  0.00    -0.075 N 
HETATM    8  H   UNL     1      61.751  10.497   4.820  1.00  0.00     0.274 HD
HETATM    9  H   UNL     1      61.201  11.353   3.501  1.00  0.00     0.274 HD
HETATM   10  H   UNL     1      62.826  11.342   3.869  1.00  0.00     0.274 HD
ENDBRANCH   1   7
BRANCH   6  11
HETATM   11  C   UNL     1      59.596   8.267   0.649  1.00  0.00     0.000 C 
HETATM   12  C   UNL     1      58.498   7.272   0.998  1.00  0.00     0.005 C 
ENDBRANCH   6  11
TORSDOF 2
ENDMDL
MODEL 6
REMARK VINA RESULT:      -3.4      2.078      3.108
REMARK  2 active torsions:
REMARK  status: ('A' for Active; 'I' for Inactive)
REMARK    1  A    between atoms: N_1  and  C_2 
REMARK    2  A    between atoms: C_7  and  C_8 
ROOT
HETATM    1  C   UNL     1      61.527  10.505   2.143  1.00  0.00     0.183 C 
HETATM    2  C   UNL     1      61.834  10.149   3.600  1.00  0.00     0.033 C 
HETATM    3  C   UNL     1      62.148   9.509   1.156  1.00  0.00     0.033 C 
HETATM    4  C   UNL     1      61.809   8.059   1.513  1.00  0.00     0.006 C 
HETATM    5  C   UNL     1      61.459   8.700   3.908  1.00  0.00     0.006 C 
HETATM    6  C   UNL     1      62.159   7.704   2.969  1.00  0.00    -0.015 C 
ENDROOT
BRANCH   1   7
HETATM    7  N   UNL     1      62.012  11.853   1.853  1.00  0.00    -0.075 N 
HETATM    8  H   UNL     1      62.228  12.332   2.729  1.00  0.00     0.274 HD
HETATM    9  H   UNL     1      61.294  12.373   1.350  1.00  0.00     0.274 HD
HETATM   10  H   UNL     1      62.856  11.796   1.282  1.00  0.00     0.274 HD
ENDBRANCH   1   7
BRANCH   6  11
HETATM   11  C   UNL     1      63.690   7.632   3.163  1.00  0.00     0.000 C 
HETATM   12  C   UNL     1      64.124   7.425   4.607  1.00  0.00     0.005 C 
ENDBRANCH   6  11
TORSDOF 2
ENDMDL
MODEL 7
REMARK VINA RESULT:      -3.3      4.684      5.913
REMARK  2 active torsions:
REMARK  status: ('A' for Active; 'I' for Inactive)
REMARK    1  A    between atoms: N_1  and  C_2 
REMARK    2  A    between atoms: C_7  and  C_8 
ROOT
HETATM    1  C   UNL     1      66.892   5.564   7.440  1.00  0.00     0.183 C 
HETATM    2  C   UNL     1      66.133   6.883   7.616  1.00  0.00     0.033 C 
HETATM    3  C   UNL     1      66.966   5.126   5.972  1.00  0.00     0.033 C 
HETATM    4  C   UNL     1      67.476   6.248   5.063  1.00  0.00     0.006 C 
HETATM    5  C   UNL     1      66.695   7.972   6.703  1.00  0.00     0.006 C 
HETATM    6  C   UNL     1      66.680   7.556   5.223  1.00  0.00    -0.015 C 
ENDROOT
BRANCH   1   7
HETATM    7  N   UNL     1      66.250   4.518   8.234  1.00  0.00    -0.075 N 
HETATM    8  H   UNL     1      65.913   3.780   7.615  1.00  0.00     0.274 HD
HETATM    9  H   UNL     1      65.464   4.915   8.749  1.00  0.00     0.274 HD
HETATM   10  H   UNL     1      66.925   4.127   8.892  1.00  0.00     0.274 HD
ENDBRANCH   1   7
BRANCH   6  11
HETATM   11  C   UNL     1      65.262   7.411   4.628  1.00  0.00     0.000 C 
HETATM   12  C   UNL     1      64.370   8.626   4.843  1.00  0.00     0.005 C 
ENDBRANCH   6  11
TORSDOF 2
ENDMDL
MODEL 8
REMARK VINA RESULT:      -3.2      2.308      3.527
REMARK  2 active torsions:
REMARK  status: ('A' for Active; 'I' for Inactive)
REMARK    1  A    between atoms: N_1  and  C_2 
REMARK    2  A    between atoms: C_7  and  C_8 
ROOT
HETATM    1  C   UNL     1      61.185   8.999   3.284  1.00  0.00     0.183 C 
HETATM    2  C   UNL     1      62.229  10.093   3.531  1.00  0.00     0.033 C 
HETATM    3  C   UNL     1      61.688   7.610   3.698  1.00  0.00     0.033 C 
HETATM    4  C   UNL     1      62.251   7.604   5.122  1.00  0.00     0.006 C 
HETATM    5  C   UNL     1      62.741  10.054   4.970  1.00  0.00     0.006 C 
HETATM    6  C   UNL     1      63.326   8.683   5.345  1.00  0.00    -0.015 C 
ENDROOT
BRANCH   1   7
HETATM    7  N   UNL     1      60.812   8.986   1.871  1.00  0.00    -0.075 N 
HETATM    8  H   UNL     1      60.224   9.796   1.667  1.00  0.00     0.274 HD
HETATM    9  H   UNL     1      60.296   8.131   1.662  1.00  0.00     0.274 HD
HETATM   10  H   UNL     1      61.654   9.026   1.295  1.00  0.00     0.274 HD
ENDBRANCH   1   7
BRANCH   6  11
HETATM   11  C   UNL     1      64.624   8.328   4.587  1.00  0.00     0.000 C 
HETATM   12  C   UNL     1      65.816   8.051   5.493  1.00  0.00     0.005 C 
ENDBRANCH   6  11
TORSDOF 2
ENDMDL
MODEL 9
REMARK VINA RESULT:      -3.2      3.700      4.820
REMARK  2 active torsions:
REMARK  status: ('A' for Active; 'I' for Inactive)
REMARK    1  A    between atoms: N_1  and  C_2 
REMARK    2  A    between atoms: C_7  and  C_8 
ROOT
HETATM    1  C   UNL     1      66.888   6.956   7.184  1.00  0.00     0.183 C 
HETATM    2  C   UNL     1      67.181   8.052   6.156  1.00  0.00     0.033 C 
HETATM    3  C   UNL     1      65.437   6.464   7.115  1.00  0.00     0.033 C 
HETATM    4  C   UNL     1      65.026   6.086   5.688  1.00  0.00     0.006 C 
HETATM    5  C   UNL     1      66.772   7.616   4.749  1.00  0.00     0.006 C 
HETATM    6  C   UNL     1      65.291   7.211   4.672  1.00  0.00    -0.015 C 
ENDROOT
BRANCH   1   7
HETATM    7  N   UNL     1      67.175   7.454   8.528  1.00  0.00    -0.075 N 
HETATM    8  H   UNL     1      66.779   6.816   9.219  1.00  0.00     0.274 HD
HETATM    9  H   UNL     1      66.763   8.379   8.644  1.00  0.00     0.274 HD
HETATM   10  H   UNL     1      68.185   7.512   8.661  1.00  0.00     0.274 HD
ENDBRANCH   1   7
BRANCH   6  11
HETATM   11  C   UNL     1      64.310   8.385   4.886  1.00  0.00     0.000 C 
HETATM   12  C   UNL     1      63.341   8.603   3.731  1.00  0.00     0.005 C 
ENDBRANCH   6  11
TORSDOF 2
ENDMDL
