MODEL 1
REMARK VINA RESULT:      -5.9      0.000      0.000
REMARK  1 active torsions:
REMARK  status: ('A' for Active; 'I' for Inactive)
REMARK       I    between atoms: C_1  and  N_2 
REMARK    1  A    between atoms: C_1  and  C_3 
ROOT
HETATM    1  C   UNL     1      64.374   8.838   5.041  1.00  0.00     0.225 C 
HETATM    2  N   UNL     1      63.170   8.945   4.348  1.00  0.00    -0.352 N 
HETATM    3  O   UNL     1      64.746   9.751   5.786  1.00  0.00    -0.273 OA
HETATM    4  C   UNL     1      62.501  10.243   4.390  1.00  0.00     0.125 C 
HETATM    5  C   UNL     1      62.443   7.825   3.755  1.00  0.00     0.125 C 
HETATM    6  C   UNL     1      62.701   7.709   2.255  1.00  0.00     0.020 C 
HETATM    7  C   UNL     1      61.642  10.581   3.172  1.00  0.00     0.020 C 
HETATM    8  C   UNL     1      62.304  10.235   1.839  1.00  0.00     0.002 C 
HETATM    9  C   UNL     1      62.039   8.793   1.404  1.00  0.00     0.002 C 
ENDROOT
BRANCH   1  10
HETATM   10  C   UNL     1      65.229   7.578   4.846  1.00  0.00     0.103 C 
HETATM   11  C   UNL     1      66.725   7.899   4.991  1.00  0.00     0.246 C 
HETATM   12  N   UNL     1      67.174   8.092   6.366  1.00  0.00    -0.074 N 
HETATM   13  C   UNL     1      66.830   6.971   7.230  1.00  0.00     0.232 C 
HETATM   14  H   UNL     1      66.738   8.937   6.736  1.00  0.00     0.277 HD
HETATM   15  H   UNL     1      68.191   8.168   6.350  1.00  0.00     0.277 HD
HETATM   16  C   UNL     1      65.333   6.663   7.214  1.00  0.00     0.028 C 
HETATM   17  C   UNL     1      64.805   6.455   5.795  1.00  0.00     0.017 C 
ENDBRANCH   1  10
TORSDOF 1
ENDMDL
MODEL 2
REMARK VINA RESULT:      -4.9      2.075      6.041
REMARK  1 active torsions:
REMARK  status: ('A' for Active; 'I' for Inactive)
REMARK       I    between atoms: C_1  and  N_2 
REMARK    1  A    between atoms: C_1  and  C_3 
ROOT
HETATM    1  C   UNL     1      64.769   6.696   6.383  1.00  0.00     0.225 C 
HETATM    2  N   UNL     1      66.073   6.441   6.805  1.00  0.00    -0.352 N 
HETATM    3  O   UNL     1      63.986   7.306   7.119  1.00  0.00    -0.273 OA
HETATM    4  C   UNL     1      66.382   6.740   8.201  1.00  0.00     0.125 C 
HETATM    5  C   UNL     1      67.183   6.086   5.924  1.00  0.00     0.125 C 
HETATM    6  C   UNL     1      67.441   4.581   5.913  1.00  0.00     0.020 C 
HETATM    7  C   UNL     1      67.479   5.884   8.831  1.00  0.00     0.020 C 
HETATM    8  C   UNL     1      67.364   4.397   8.496  1.00  0.00     0.002 C 
HETATM    9  C   UNL     1      68.072   4.028   7.191  1.00  0.00     0.002 C 
ENDROOT
BRANCH   1  10
HETATM   10  C   UNL     1      64.328   6.193   5.001  1.00  0.00     0.103 C 
HETATM   11  C   UNL     1      62.873   5.699   5.034  1.00  0.00     0.246 C 
HETATM   12  N   UNL     1      61.872   6.760   5.058  1.00  0.00    -0.074 N 
HETATM   13  C   UNL     1      62.038   7.713   3.970  1.00  0.00     0.232 C 
HETATM   14  H   UNL     1      61.947   7.259   5.945  1.00  0.00     0.277 HD
HETATM   15  H   UNL     1      60.957   6.323   4.949  1.00  0.00     0.277 HD
HETATM   16  C   UNL     1      63.439   8.324   3.943  1.00  0.00     0.028 C 
HETATM   17  C   UNL     1      64.532   7.257   3.921  1.00  0.00     0.017 C 
ENDBRANCH   1  10
TORSDOF 1
ENDMDL
MODEL 3
REMARK VINA RESULT:      -4.7      1.954      2.512
REMARK  1 active torsions:
REMARK  status: ('A' for Active; 'I' for Inactive)
REMARK       I    between atoms: C_1  and  N_2 
REMARK    1  A    between atoms: C_1  and  C_3 
ROOT
HETATM    1  C   UNL     1      64.834   6.593   6.306  1.00  0.00     0.225 C 
HETATM    2  N   UNL     1      63.810   6.513   5.363  1.00  0.00    -0.352 N 
HETATM    3  O   UNL     1      64.630   7.127   7.402  1.00  0.00    -0.273 OA
HETATM    4  C   UNL     1      62.588   7.258   5.655  1.00  0.00     0.125 C 
HETATM    5  C   UNL     1      63.794   5.602   4.221  1.00  0.00     0.125 C 
HETATM    6  C   UNL     1      64.226   6.298   2.933  1.00  0.00     0.020 C 
HETATM    7  C   UNL     1      61.803   7.739   4.437  1.00  0.00     0.020 C 
HETATM    8  C   UNL     1      62.681   8.337   3.338  1.00  0.00     0.002 C 
HETATM    9  C   UNL     1      63.207   7.284   2.362  1.00  0.00     0.002 C 
ENDROOT
BRANCH   1  10
HETATM   10  C   UNL     1      66.214   6.021   5.949  1.00  0.00     0.103 C 
HETATM   11  C   UNL     1      67.334   6.983   6.373  1.00  0.00     0.246 C 
HETATM   12  N   UNL     1      67.617   6.992   7.804  1.00  0.00    -0.074 N 
HETATM   13  C   UNL     1      67.891   5.661   8.330  1.00  0.00     0.232 C 
HETATM   14  H   UNL     1      66.809   7.378   8.295  1.00  0.00     0.277 HD
HETATM   15  H   UNL     1      68.452   7.559   7.950  1.00  0.00     0.277 HD
HETATM   16  C   UNL     1      66.761   4.676   8.032  1.00  0.00     0.028 C 
HETATM   17  C   UNL     1      66.419   4.627   6.544  1.00  0.00     0.017 C 
ENDBRANCH   1  10
TORSDOF 1
ENDMDL
MODEL 4
REMARK VINA RESULT:      -4.4      1.861      5.480
REMARK  1 active torsions:
REMARK  status: ('A' for Active; 'I' for Inactive)
REMARK       I    between atoms: C_1  and  N_2 
REMARK    1  A    between atoms: C_1  and  C_3 
ROOT
HETATM    1  C   UNL     1      63.356   8.105   3.703  1.00  0.00     0.225 C 
HETATM    2  N   UNL     1      64.523   7.603   4.274  1.00  0.00    -0.352 N 
HETATM    3  O   UNL     1      63.055   9.295   3.846  1.00  0.00    -0.273 OA
HETATM    4  C   UNL     1      65.236   8.485   5.196  1.00  0.00     0.125 C 
HETATM    5  C   UNL     1      65.181   6.359   3.880  1.00  0.00     0.125 C 
HETATM    6  C   UNL     1      64.837   5.211   4.826  1.00  0.00     0.020 C 
HETATM    7  C   UNL     1      66.037   7.784   6.291  1.00  0.00     0.020 C 
HETATM    8  C   UNL     1      65.292   6.623   6.949  1.00  0.00     0.002 C 
HETATM    9  C   UNL     1      65.486   5.300   6.207  1.00  0.00     0.002 C 
ENDROOT
BRANCH   1  10
HETATM   10  C   UNL     1      62.451   7.150   2.911  1.00  0.00     0.103 C 
HETATM   11  C   UNL     1      60.968   7.447   3.179  1.00  0.00     0.246 C 
HETATM   12  N   UNL     1      60.453   8.631   2.499  1.00  0.00    -0.074 N 
HETATM   13  C   UNL     1      60.692   8.601   1.062  1.00  0.00     0.232 C 
HETATM   14  H   UNL     1      60.909   9.456   2.889  1.00  0.00     0.277 HD
HETATM   15  H   UNL     1      59.444   8.655   2.643  1.00  0.00     0.277 HD
HETATM   16  C   UNL     1      62.170   8.411   0.724  1.00  0.00     0.028 C 
HETATM   17  C   UNL     1      62.766   7.185   1.414  1.00  0.00     0.017 C 
ENDBRANCH   1  10
TORSDOF 1
ENDMDL
MODEL 5
REMARK VINA RESULT:      -4.4      1.915      5.513
REMARK  1 active torsions:
REMARK  status: ('A' for Active; 'I' for Inactive)
REMARK       I    between atoms: C_1  and  N_2 
REMARK    1  A    between atoms: C_1  and  C_3 
ROOT
HETATM    1  C   UNL     1      63.615   7.110   4.943  1.00  0.00     0.225 C 
HETATM    2  N   UNL     1      64.742   7.221   5.755  1.00  0.00    -0.352 N 
HETATM    3  O   UNL     1      62.645   6.440   5.314  1.00  0.00    -0.273 OA
HETATM    4  C   UNL     1      64.792   6.357   6.932  1.00  0.00     0.125 C 
HETATM    5  C   UNL     1      65.769   8.253   5.627  1.00  0.00     0.125 C 
HETATM    6  C   UNL     1      66.995   7.744   4.874  1.00  0.00     0.020 C 
HETATM    7  C   UNL     1      66.191   5.961   7.401  1.00  0.00     0.020 C 
HETATM    8  C   UNL     1      67.128   5.561   6.262  1.00  0.00     0.002 C 
HETATM    9  C   UNL     1      67.864   6.756   5.654  1.00  0.00     0.002 C 
ENDROOT
BRANCH   1  10
HETATM   10  C   UNL     1      63.612   7.822   3.582  1.00  0.00     0.103 C 
HETATM   11  C   UNL     1      63.106   6.886   2.473  1.00  0.00     0.246 C 
HETATM   12  N   UNL     1      61.661   6.683   2.463  1.00  0.00    -0.074 N 
HETATM   13  C   UNL     1      60.919   7.935   2.420  1.00  0.00     0.232 C 
HETATM   14  H   UNL     1      61.397   6.174   3.307  1.00  0.00     0.277 HD
HETATM   15  H   UNL     1      61.430   6.159   1.619  1.00  0.00     0.277 HD
HETATM   16  C   UNL     1      61.301   8.875   3.564  1.00  0.00     0.028 C 
HETATM   17  C   UNL     1      62.807   9.122   3.626  1.00  0.00     0.017 C 
ENDBRANCH   1  10
TORSDOF 1
ENDMDL
MODEL 6
REMARK VINA RESULT:      -4.4      2.613      5.461
REMARK  1 active torsions:
REMARK  status: ('A' for Active; 'I' for Inactive)
REMARK       I    between atoms: C_1  and  N_2 
REMARK    1  A    between atoms: C_1  and  C_3 
ROOT
HETATM    1  C   UNL     1      61.548   7.763   4.292  1.00  0.00     0.225 C 
HETATM    2  N   UNL     1      61.814   7.005   5.430  1.00  0.00    -0.352 N 
HETATM    3  O   UNL     1      60.403   7.805   3.826  1.00  0.00    -0.273 OA
HETATM    4  C   UNL     1      60.746   6.127   5.900  1.00  0.00     0.125 C 
HETATM    5  C   UNL     1      62.989   7.163   6.285  1.00  0.00     0.125 C 
HETATM    6  C   UNL     1      64.064   6.126   5.971  1.00  0.00     0.020 C 
HETATM    7  C   UNL     1      61.203   4.868   6.636  1.00  0.00     0.020 C 
HETATM    8  C   UNL     1      62.379   4.159   5.966  1.00  0.00     0.002 C 
HETATM    9  C   UNL     1      63.734   4.703   6.420  1.00  0.00     0.002 C 
ENDROOT
BRANCH   1  10
HETATM   10  C   UNL     1      62.701   8.527   3.625  1.00  0.00     0.103 C 
HETATM   11  C   UNL     1      62.415   8.767   2.135  1.00  0.00     0.246 C 
HETATM   12  N   UNL     1      61.449   9.827   1.866  1.00  0.00    -0.074 N 
HETATM   13  C   UNL     1      61.807  11.087   2.503  1.00  0.00     0.232 C 
HETATM   14  H   UNL     1      60.535   9.533   2.214  1.00  0.00     0.277 HD
HETATM   15  H   UNL     1      61.436   9.984   0.859  1.00  0.00     0.277 HD
HETATM   16  C   UNL     1      62.006  10.939   4.012  1.00  0.00     0.028 C 
HETATM   17  C   UNL     1      63.007   9.837   4.354  1.00  0.00     0.017 C 
ENDBRANCH   1  10
TORSDOF 1
ENDMDL
MODEL 7
REMARK VINA RESULT:      -4.3      2.946      3.837
REMARK  1 active torsions:
REMARK  status: ('A' for Active; 'I' for Inactive)
REMARK       I    between atoms: C_1  and  N_2 
REMARK    1  A    between atoms: C_1  and  C_3 
ROOT
HETATM    1  C   UNL     1      61.830   7.226   5.022  1.00  0.00     0.225 C 
HETATM    2  N   UNL     1      60.674   6.640   4.512  1.00  0.00    -0.352 N 
HETATM    3  O   UNL     1      62.118   7.096   6.217  1.00  0.00    -0.273 OA
HETATM    4  C   UNL     1      59.747   6.062   5.482  1.00  0.00     0.125 C 
HETATM    5  C   UNL     1      60.416   6.392   3.095  1.00  0.00     0.125 C 
HETATM    6  C   UNL     1      59.522   7.467   2.484  1.00  0.00     0.020 C 
HETATM    7  C   UNL     1      58.276   6.059   5.068  1.00  0.00     0.020 C 
HETATM    8  C   UNL     1      57.816   7.370   4.431  1.00  0.00     0.002 C 
HETATM    9  C   UNL     1      58.058   7.411   2.921  1.00  0.00     0.002 C 
ENDROOT
BRANCH   1  10
HETATM   10  C   UNL     1      62.723   8.043   4.077  1.00  0.00     0.103 C 
HETATM   11  C   UNL     1      63.327   9.256   4.802  1.00  0.00     0.246 C 
HETATM   12  N   UNL     1      64.430   8.938   5.702  1.00  0.00    -0.074 N 
HETATM   13  C   UNL     1      65.490   8.185   5.047  1.00  0.00     0.232 C 
HETATM   14  H   UNL     1      64.068   8.385   6.480  1.00  0.00     0.277 HD
HETATM   15  H   UNL     1      64.831   9.820   6.022  1.00  0.00     0.277 HD
HETATM   16  C   UNL     1      64.972   6.905   4.391  1.00  0.00     0.028 C 
HETATM   17  C   UNL     1      63.810   7.177   3.437  1.00  0.00     0.017 C 
ENDBRANCH   1  10
TORSDOF 1
ENDMDL
MODEL 8
REMARK VINA RESULT:      -4.2      1.961      5.598
REMARK  1 active torsions:
REMARK  status: ('A' for Active; 'I' for Inactive)
REMARK       I    between atoms: C_1  and  N_2 
REMARK    1  A    between atoms: C_1  and  C_3 
ROOT
HETATM    1  C   UNL     1      64.286   6.914   4.454  1.00  0.00     0.225 C 
HETATM    2  N   UNL     1      65.129   6.121   5.229  1.00  0.00    -0.352 N 
HETATM    3  O   UNL     1      64.398   6.924   3.223  1.00  0.00    -0.273 OA
HETATM    4  C   UNL     1      66.250   5.486   4.541  1.00  0.00     0.125 C 
HETATM    5  C   UNL     1      64.870   5.726   6.612  1.00  0.00     0.125 C 
HETATM    6  C   UNL     1      65.631   6.602   7.604  1.00  0.00     0.020 C 
HETATM    7  C   UNL     1      67.488   5.227   5.398  1.00  0.00     0.020 C 
HETATM    8  C   UNL     1      67.862   6.398   6.305  1.00  0.00     0.002 C 
HETATM    9  C   UNL     1      67.139   6.357   7.652  1.00  0.00     0.002 C 
ENDROOT
BRANCH   1  10
HETATM   10  C   UNL     1      63.233   7.782   5.159  1.00  0.00     0.103 C 
HETATM   11  C   UNL     1      63.200   9.199   4.567  1.00  0.00     0.246 C 
HETATM   12  N   UNL     1      62.536   9.300   3.272  1.00  0.00    -0.074 N 
HETATM   13  C   UNL     1      61.189   8.748   3.287  1.00  0.00     0.232 C 
HETATM   14  H   UNL     1      63.089   8.794   2.580  1.00  0.00     0.277 HD
HETATM   15  H   UNL     1      62.461  10.291   3.041  1.00  0.00     0.277 HD
HETATM   16  C   UNL     1      61.162   7.298   3.771  1.00  0.00     0.028 C 
HETATM   17  C   UNL     1      61.849   7.130   5.125  1.00  0.00     0.017 C 
ENDBRANCH   1  10
TORSDOF 1
ENDMDL
MODEL 9
REMARK VINA RESULT:      -4.0      2.383      5.721
REMARK  1 active torsions:
REMARK  status: ('A' for Active; 'I' for Inactive)
REMARK       I    between atoms: C_1  and  N_2 
REMARK    1  A    between atoms: C_1  and  C_3 
ROOT
HETATM    1  C   UNL     1      63.388   7.061   2.597  1.00  0.00     0.225 C 
HETATM    2  N   UNL     1      64.271   6.694   3.611  1.00  0.00    -0.352 N 
HETATM    3  O   UNL     1      63.363   6.429   1.535  1.00  0.00    -0.273 OA
HETATM    4  C   UNL     1      65.275   5.688   3.275  1.00  0.00     0.125 C 
HETATM    5  C   UNL     1      64.147   7.090   5.012  1.00  0.00     0.125 C 
HETATM    6  C   UNL     1      65.057   8.268   5.352  1.00  0.00     0.020 C 
HETATM    7  C   UNL     1      66.586   5.780   4.055  1.00  0.00     0.020 C 
HETATM    8  C   UNL     1      67.117   7.206   4.196  1.00  0.00     0.002 C 
HETATM    9  C   UNL     1      66.547   7.932   5.415  1.00  0.00     0.002 C 
ENDROOT
BRANCH   1  10
HETATM   10  C   UNL     1      62.465   8.268   2.821  1.00  0.00     0.103 C 
HETATM   11  C   UNL     1      62.324   9.099   1.537  1.00  0.00     0.246 C 
HETATM   12  N   UNL     1      61.449   8.513   0.527  1.00  0.00    -0.074 N 
HETATM   13  C   UNL     1      60.127   8.193   1.048  1.00  0.00     0.232 C 
HETATM   14  H   UNL     1      61.880   7.656   0.179  1.00  0.00     0.277 HD
HETATM   15  H   UNL     1      61.329   9.202  -0.215  1.00  0.00     0.277 HD
HETATM   16  C   UNL     1      60.191   7.278   2.271  1.00  0.00     0.028 C 
HETATM   17  C   UNL     1      61.099   7.841   3.363  1.00  0.00     0.017 C 
ENDBRANCH   1  10
TORSDOF 1
ENDMDL
