MODEL 1
REMARK VINA RESULT:      -5.6      0.000      0.000
REMARK  4 active torsions:
REMARK  status: ('A' for Active; 'I' for Inactive)
REMARK    1  A    between atoms: N_1  and  C_2 
REMARK    2  A    between atoms: C_2  and  C_3 
REMARK    3  A    between atoms: C_7  and  C_14 
REMARK    4  A    between atoms: N_8  and  C_14 
ROOT
HETATM    1  C   UNL     1      63.787   8.645   4.367  1.00  0.00    -0.032 A 
HETATM    2  C   UNL     1      63.084   8.432   3.169  1.00  0.00     0.017 A 
HETATM    3  C   UNL     1      62.147   9.362   2.700  1.00  0.00    -0.033 A 
HETATM    4  C   UNL     1      62.503  10.670   4.717  1.00  0.00     0.001 A 
HETATM    5  C   UNL     1      63.473   9.763   5.148  1.00  0.00     0.009 A 
HETATM    6  C   UNL     1      61.858  10.477   3.493  1.00  0.00     0.009 A 
ENDROOT
BRANCH   1   7
HETATM    7  C   UNL     1      64.921   7.712   4.748  1.00  0.00     0.273 C 
BRANCH   7   8
HETATM    8  N   UNL     1      65.268   7.825   6.175  1.00  0.00    -0.067 N 
HETATM    9  C   UNL     1      64.810   6.689   6.987  1.00  0.00     0.235 C 
HETATM   10  C   UNL     1      65.615   5.404   6.784  1.00  0.00     0.032 C 
HETATM   11  C   UNL     1      67.128   5.628   6.908  1.00  0.00    -0.015 C 
HETATM   12  C   UNL     1      67.584   6.866   6.127  1.00  0.00     0.032 C 
HETATM   13  C   UNL     1      67.887   4.392   6.427  1.00  0.00     0.010 C 
HETATM   14  C   UNL     1      66.693   8.076   6.397  1.00  0.00     0.235 C 
HETATM   15  H   UNL     1      64.753   8.646   6.495  1.00  0.00     0.280 HD
ENDBRANCH   7   8
ENDBRANCH   1   7
BRANCH   3  16
HETATM   16  C   UNL     1      61.570   9.211   1.316  1.00  0.00     0.268 C 
BRANCH  16  17
HETATM   17  N   UNL     1      60.183   8.767   1.328  1.00  0.00    -0.075 N 
HETATM   18  H   UNL     1      59.583   9.518   0.985  1.00  0.00     0.274 HD
HETATM   19  H   UNL     1      59.912   8.525   2.281  1.00  0.00     0.274 HD
HETATM   20  H   UNL     1      60.082   7.949   0.728  1.00  0.00     0.274 HD
ENDBRANCH  16  17
ENDBRANCH   3  16
TORSDOF 4
ENDMDL
MODEL 2
REMARK VINA RESULT:      -5.2      1.724      6.575
REMARK  4 active torsions:
REMARK  status: ('A' for Active; 'I' for Inactive)
REMARK    1  A    between atoms: N_1  and  C_2 
REMARK    2  A    between atoms: C_2  and  C_3 
REMARK    3  A    between atoms: C_7  and  C_14 
REMARK    4  A    between atoms: N_8  and  C_14 
ROOT
HETATM    1  C   UNL     1      65.756   7.514   5.386  1.00  0.00    -0.032 A 
HETATM    2  C   UNL     1      65.856   7.020   6.698  1.00  0.00     0.017 A 
HETATM    3  C   UNL     1      66.713   5.957   7.011  1.00  0.00    -0.033 A 
HETATM    4  C   UNL     1      67.272   5.771   4.653  1.00  0.00     0.001 A 
HETATM    5  C   UNL     1      66.456   6.866   4.362  1.00  0.00     0.009 A 
HETATM    6  C   UNL     1      67.411   5.333   5.972  1.00  0.00     0.009 A 
ENDROOT
BRANCH   1   7
HETATM    7  C   UNL     1      64.961   8.778   5.120  1.00  0.00     0.273 C 
BRANCH   7   8
HETATM    8  N   UNL     1      63.537   8.613   5.461  1.00  0.00    -0.067 N 
HETATM    9  C   UNL     1      62.784   9.876   5.483  1.00  0.00     0.235 C 
HETATM   10  C   UNL     1      62.494  10.460   4.099  1.00  0.00     0.032 C 
HETATM   11  C   UNL     1      61.872   9.434   3.143  1.00  0.00    -0.015 C 
HETATM   12  C   UNL     1      62.611   8.092   3.190  1.00  0.00     0.032 C 
HETATM   13  C   UNL     1      61.861   9.980   1.716  1.00  0.00     0.010 C 
HETATM   14  C   UNL     1      62.860   7.624   4.622  1.00  0.00     0.235 C 
HETATM   15  H   UNL     1      63.547   8.257   6.418  1.00  0.00     0.280 HD
ENDBRANCH   7   8
ENDBRANCH   1   7
BRANCH   3  16
HETATM   16  C   UNL     1      66.958   5.592   8.453  1.00  0.00     0.268 C 
BRANCH  16  17
HETATM   17  N   UNL     1      68.075   6.322   9.038  1.00  0.00    -0.075 N 
HETATM   18  H   UNL     1      68.807   5.664   9.306  1.00  0.00     0.274 HD
HETATM   19  H   UNL     1      67.754   6.829   9.863  1.00  0.00     0.274 HD
HETATM   20  H   UNL     1      68.444   6.983   8.355  1.00  0.00     0.274 HD
ENDBRANCH  16  17
ENDBRANCH   3  16
TORSDOF 4
ENDMDL
MODEL 3
REMARK VINA RESULT:      -5.0      1.928      2.622
REMARK  4 active torsions:
REMARK  status: ('A' for Active; 'I' for Inactive)
REMARK    1  A    between atoms: N_1  and  C_2 
REMARK    2  A    between atoms: C_2  and  C_3 
REMARK    3  A    between atoms: C_7  and  C_14 
REMARK    4  A    between atoms: N_8  and  C_14 
ROOT
HETATM    1  C   UNL     1      64.805   7.572   4.525  1.00  0.00    -0.032 A 
HETATM    2  C   UNL     1      64.329   8.853   4.849  1.00  0.00     0.017 A 
HETATM    3  C   UNL     1      63.117   9.331   4.332  1.00  0.00    -0.033 A 
HETATM    4  C   UNL     1      62.917   7.288   3.032  1.00  0.00     0.001 A 
HETATM    5  C   UNL     1      64.099   6.801   3.594  1.00  0.00     0.009 A 
HETATM    6  C   UNL     1      62.423   8.537   3.413  1.00  0.00     0.009 A 
ENDROOT
BRANCH   1   7
HETATM    7  C   UNL     1      66.022   7.020   5.242  1.00  0.00     0.273 C 
BRANCH   7   8
HETATM    8  N   UNL     1      65.737   6.724   6.657  1.00  0.00    -0.067 N 
HETATM    9  C   UNL     1      65.002   5.466   6.862  1.00  0.00     0.235 C 
HETATM   10  C   UNL     1      65.843   4.205   6.657  1.00  0.00     0.032 C 
HETATM   11  C   UNL     1      67.159   4.237   7.444  1.00  0.00    -0.015 C 
HETATM   12  C   UNL     1      67.877   5.584   7.294  1.00  0.00     0.032 C 
HETATM   13  C   UNL     1      68.073   3.099   6.992  1.00  0.00     0.010 C 
HETATM   14  C   UNL     1      66.932   6.765   7.501  1.00  0.00     0.235 C 
HETATM   15  H   UNL     1      65.119   7.480   6.953  1.00  0.00     0.280 HD
ENDBRANCH   7   8
ENDBRANCH   1   7
BRANCH   3  16
HETATM   16  C   UNL     1      62.531  10.614   4.864  1.00  0.00     0.268 C 
BRANCH  16  17
HETATM   17  N   UNL     1      63.270  11.144   6.001  1.00  0.00    -0.075 N 
HETATM   18  H   UNL     1      62.716  11.868   6.459  1.00  0.00     0.274 HD
HETATM   19  H   UNL     1      64.150  11.545   5.677  1.00  0.00     0.274 HD
HETATM   20  H   UNL     1      63.462  10.392   6.662  1.00  0.00     0.274 HD
ENDBRANCH  16  17
ENDBRANCH   3  16
TORSDOF 4
ENDMDL
MODEL 4
REMARK VINA RESULT:      -4.9      2.340      6.288
REMARK  4 active torsions:
REMARK  status: ('A' for Active; 'I' for Inactive)
REMARK    1  A    between atoms: N_1  and  C_2 
REMARK    2  A    between atoms: C_2  and  C_3 
REMARK    3  A    between atoms: C_7  and  C_14 
REMARK    4  A    between atoms: N_8  and  C_14 
ROOT
HETATM    1  C   UNL     1      62.236   9.227   2.842  1.00  0.00    -0.032 A 
HETATM    2  C   UNL     1      63.166   8.434   3.533  1.00  0.00     0.017 A 
HETATM    3  C   UNL     1      63.678   8.830   4.776  1.00  0.00    -0.033 A 
HETATM    4  C   UNL     1      62.434  10.908   4.577  1.00  0.00     0.001 A 
HETATM    5  C   UNL     1      61.890  10.479   3.364  1.00  0.00     0.009 A 
HETATM    6  C   UNL     1      63.309  10.080   5.284  1.00  0.00     0.009 A 
ENDROOT
BRANCH   1   7
HETATM    7  C   UNL     1      61.568   8.684   1.593  1.00  0.00     0.273 C 
BRANCH   7   8
HETATM    8  N   UNL     1      60.125   8.466   1.794  1.00  0.00    -0.067 N 
HETATM    9  C   UNL     1      59.421   8.015   0.584  1.00  0.00     0.235 C 
HETATM   10  C   UNL     1      59.695   6.561   0.200  1.00  0.00     0.032 C 
HETATM   11  C   UNL     1      59.501   5.592   1.373  1.00  0.00    -0.015 C 
HETATM   12  C   UNL     1      60.165   6.111   2.654  1.00  0.00     0.032 C 
HETATM   13  C   UNL     1      60.049   4.211   1.016  1.00  0.00     0.010 C 
HETATM   14  C   UNL     1      59.834   7.578   2.920  1.00  0.00     0.235 C 
HETATM   15  H   UNL     1      59.760   9.391   2.023  1.00  0.00     0.280 HD
ENDBRANCH   7   8
ENDBRANCH   1   7
BRANCH   3  16
HETATM   16  C   UNL     1      64.505   7.864   5.588  1.00  0.00     0.268 C 
BRANCH  16  17
HETATM   17  N   UNL     1      65.700   8.478   6.149  1.00  0.00    -0.075 N 
HETATM   18  H   UNL     1      65.976   9.274   5.573  1.00  0.00     0.274 HD
HETATM   19  H   UNL     1      66.456   7.794   6.167  1.00  0.00     0.274 HD
HETATM   20  H   UNL     1      65.506   8.795   7.098  1.00  0.00     0.274 HD
ENDBRANCH  16  17
ENDBRANCH   3  16
TORSDOF 4
ENDMDL
MODEL 5
REMARK VINA RESULT:      -4.8      4.604      6.606
REMARK  4 active torsions:
REMARK  status: ('A' for Active; 'I' for Inactive)
REMARK    1  A    between atoms: N_1  and  C_2 
REMARK    2  A    between atoms: C_2  and  C_3 
REMARK    3  A    between atoms: C_7  and  C_14 
REMARK    4  A    between atoms: N_8  and  C_14 
ROOT
HETATM    1  C   UNL     1      61.149   7.871   2.981  1.00  0.00    -0.032 A 
HETATM    2  C   UNL     1      61.423   9.066   3.668  1.00  0.00     0.017 A 
HETATM    3  C   UNL     1      61.853  10.214   2.989  1.00  0.00    -0.033 A 
HETATM    4  C   UNL     1      61.881   8.929   0.927  1.00  0.00     0.001 A 
HETATM    5  C   UNL     1      61.402   7.806   1.606  1.00  0.00     0.009 A 
HETATM    6  C   UNL     1      62.088  10.127   1.613  1.00  0.00     0.009 A 
ENDROOT
BRANCH   1   7
HETATM    7  C   UNL     1      60.514   6.709   3.721  1.00  0.00     0.273 C 
BRANCH   7   8
HETATM    8  N   UNL     1      59.238   6.300   3.107  1.00  0.00    -0.067 N 
HETATM    9  C   UNL     1      58.630   5.119   3.737  1.00  0.00     0.235 C 
HETATM   10  C   UNL     1      58.007   5.388   5.108  1.00  0.00     0.032 C 
HETATM   11  C   UNL     1      57.054   6.590   5.099  1.00  0.00    -0.015 C 
HETATM   12  C   UNL     1      57.662   7.791   4.364  1.00  0.00     0.032 C 
HETATM   13  C   UNL     1      56.682   6.981   6.528  1.00  0.00     0.010 C 
HETATM   14  C   UNL     1      58.270   7.394   3.020  1.00  0.00     0.235 C 
HETATM   15  H   UNL     1      59.492   6.031   2.155  1.00  0.00     0.280 HD
ENDBRANCH   7   8
ENDBRANCH   1   7
BRANCH   3  16
HETATM   16  C   UNL     1      61.932  11.531   3.719  1.00  0.00     0.268 C 
BRANCH  16  17
HETATM   17  N   UNL     1      62.581  11.418   5.018  1.00  0.00    -0.075 N 
HETATM   18  H   UNL     1      62.006  10.847   5.637  1.00  0.00     0.274 HD
HETATM   19  H   UNL     1      62.696  12.347   5.422  1.00  0.00     0.274 HD
HETATM   20  H   UNL     1      63.496  10.982   4.904  1.00  0.00     0.274 HD
ENDBRANCH  16  17
ENDBRANCH   3  16
TORSDOF 4
ENDMDL
MODEL 6
REMARK VINA RESULT:      -4.6      1.775      6.223
REMARK  4 active torsions:
REMARK  status: ('A' for Active; 'I' for Inactive)
REMARK    1  A    between atoms: N_1  and  C_2 
REMARK    2  A    between atoms: C_2  and  C_3 
REMARK    3  A    between atoms: C_7  and  C_14 
REMARK    4  A    between atoms: N_8  and  C_14 
ROOT
HETATM    1  C   UNL     1      65.239   6.992   4.753  1.00  0.00    -0.032 A 
HETATM    2  C   UNL     1      65.228   5.878   5.608  1.00  0.00     0.017 A 
HETATM    3  C   UNL     1      65.963   5.868   6.801  1.00  0.00    -0.033 A 
HETATM    4  C   UNL     1      66.856   8.051   6.216  1.00  0.00     0.001 A 
HETATM    5  C   UNL     1      66.077   8.072   5.056  1.00  0.00     0.009 A 
HETATM    6  C   UNL     1      66.784   6.963   7.089  1.00  0.00     0.009 A 
ENDROOT
BRANCH   1   7
HETATM    7  C   UNL     1      64.293   7.039   3.569  1.00  0.00     0.273 C 
BRANCH   7   8
HETATM    8  N   UNL     1      62.886   7.149   3.995  1.00  0.00    -0.067 N 
HETATM    9  C   UNL     1      62.615   8.318   4.844  1.00  0.00     0.235 C 
HETATM   10  C   UNL     1      62.604   9.651   4.095  1.00  0.00     0.032 C 
HETATM   11  C   UNL     1      61.707   9.624   2.851  1.00  0.00    -0.015 C 
HETATM   12  C   UNL     1      61.935   8.358   2.016  1.00  0.00     0.032 C 
HETATM   13  C   UNL     1      61.946  10.869   1.999  1.00  0.00     0.010 C 
HETATM   14  C   UNL     1      61.946   7.096   2.875  1.00  0.00     0.235 C 
HETATM   15  H   UNL     1      62.733   6.321   4.572  1.00  0.00     0.280 HD
ENDBRANCH   7   8
ENDBRANCH   1   7
BRANCH   3  16
HETATM   16  C   UNL     1      65.763   4.753   7.796  1.00  0.00     0.268 C 
BRANCH  16  17
HETATM   17  N   UNL     1      64.758   3.789   7.368  1.00  0.00    -0.075 N 
HETATM   18  H   UNL     1      65.118   3.248   6.582  1.00  0.00     0.274 HD
HETATM   19  H   UNL     1      63.914   4.284   7.081  1.00  0.00     0.274 HD
HETATM   20  H   UNL     1      64.538   3.162   8.141  1.00  0.00     0.274 HD
ENDBRANCH  16  17
ENDBRANCH   3  16
TORSDOF 4
ENDMDL
MODEL 7
REMARK VINA RESULT:      -4.5      1.825      6.418
REMARK  4 active torsions:
REMARK  status: ('A' for Active; 'I' for Inactive)
REMARK    1  A    between atoms: N_1  and  C_2 
REMARK    2  A    between atoms: C_2  and  C_3 
REMARK    3  A    between atoms: C_7  and  C_14 
REMARK    4  A    between atoms: N_8  and  C_14 
ROOT
HETATM    1  C   UNL     1      63.654   6.455   6.414  1.00  0.00    -0.032 A 
HETATM    2  C   UNL     1      64.867   6.666   7.092  1.00  0.00     0.017 A 
HETATM    3  C   UNL     1      65.712   5.599   7.421  1.00  0.00    -0.033 A 
HETATM    4  C   UNL     1      64.054   4.067   6.519  1.00  0.00     0.001 A 
HETATM    5  C   UNL     1      63.245   5.143   6.149  1.00  0.00     0.009 A 
HETATM    6  C   UNL     1      65.286   4.297   7.136  1.00  0.00     0.009 A 
ENDROOT
BRANCH   1   7
HETATM    7  C   UNL     1      62.857   7.645   5.915  1.00  0.00     0.273 C 
BRANCH   7   8
HETATM    8  N   UNL     1      63.684   8.561   5.109  1.00  0.00    -0.067 N 
HETATM    9  C   UNL     1      64.176   7.966   3.858  1.00  0.00     0.235 C 
HETATM   10  C   UNL     1      63.109   7.806   2.774  1.00  0.00     0.032 C 
HETATM   11  C   UNL     1      62.319   9.097   2.526  1.00  0.00    -0.015 C 
HETATM   12  C   UNL     1      61.882   9.756   3.840  1.00  0.00     0.032 C 
HETATM   13  C   UNL     1      61.100   8.812   1.650  1.00  0.00     0.010 C 
HETATM   14  C   UNL     1      63.027   9.842   4.848  1.00  0.00     0.235 C 
HETATM   15  H   UNL     1      64.501   8.742   5.694  1.00  0.00     0.280 HD
ENDBRANCH   7   8
ENDBRANCH   1   7
BRANCH   3  16
HETATM   16  C   UNL     1      67.095   5.875   7.953  1.00  0.00     0.268 C 
BRANCH  16  17
HETATM   17  N   UNL     1      67.314   7.283   8.253  1.00  0.00    -0.075 N 
HETATM   18  H   UNL     1      66.970   7.489   9.191  1.00  0.00     0.274 HD
HETATM   19  H   UNL     1      66.813   7.856   7.574  1.00  0.00     0.274 HD
HETATM   20  H   UNL     1      68.311   7.490   8.203  1.00  0.00     0.274 HD
ENDBRANCH  16  17
ENDBRANCH   3  16
TORSDOF 4
ENDMDL
MODEL 8
REMARK VINA RESULT:      -4.5      2.878      6.516
REMARK  4 active torsions:
REMARK  status: ('A' for Active; 'I' for Inactive)
REMARK    1  A    between atoms: N_1  and  C_2 
REMARK    2  A    between atoms: C_2  and  C_3 
REMARK    3  A    between atoms: C_7  and  C_14 
REMARK    4  A    between atoms: N_8  and  C_14 
ROOT
HETATM    1  C   UNL     1      62.065   8.788   3.302  1.00  0.00    -0.032 A 
HETATM    2  C   UNL     1      63.242   8.239   3.836  1.00  0.00     0.017 A 
HETATM    3  C   UNL     1      63.979   8.912   4.819  1.00  0.00    -0.033 A 
HETATM    4  C   UNL     1      62.433  10.778   4.637  1.00  0.00     0.001 A 
HETATM    5  C   UNL     1      61.677  10.075   3.696  1.00  0.00     0.009 A 
HETATM    6  C   UNL     1      63.566  10.191   5.205  1.00  0.00     0.009 A 
ENDROOT
BRANCH   1   7
HETATM    7  C   UNL     1      61.199   7.954   2.378  1.00  0.00     0.273 C 
BRANCH   7   8
HETATM    8  N   UNL     1      60.769   6.697   3.015  1.00  0.00    -0.067 N 
HETATM    9  C   UNL     1      59.753   6.883   4.062  1.00  0.00     0.235 C 
HETATM   10  C   UNL     1      58.357   7.217   3.533  1.00  0.00     0.032 C 
HETATM   11  C   UNL     1      57.889   6.245   2.443  1.00  0.00    -0.015 C 
HETATM   12  C   UNL     1      58.985   5.990   1.401  1.00  0.00     0.032 C 
HETATM   13  C   UNL     1      56.629   6.779   1.764  1.00  0.00     0.010 C 
HETATM   14  C   UNL     1      60.334   5.688   2.049  1.00  0.00     0.235 C 
HETATM   15  H   UNL     1      61.610   6.348   3.476  1.00  0.00     0.280 HD
ENDBRANCH   7   8
ENDBRANCH   1   7
BRANCH   3  16
HETATM   16  C   UNL     1      65.111   8.206   5.522  1.00  0.00     0.268 C 
BRANCH  16  17
HETATM   17  N   UNL     1      64.663   7.410   6.656  1.00  0.00    -0.075 N 
HETATM   18  H   UNL     1      64.599   6.430   6.379  1.00  0.00     0.274 HD
HETATM   19  H   UNL     1      63.746   7.738   6.959  1.00  0.00     0.274 HD
HETATM   20  H   UNL     1      65.329   7.505   7.422  1.00  0.00     0.274 HD
ENDBRANCH  16  17
ENDBRANCH   3  16
TORSDOF 4
ENDMDL
MODEL 9
REMARK VINA RESULT:      -4.4      1.959      3.108
REMARK  4 active torsions:
REMARK  status: ('A' for Active; 'I' for Inactive)
REMARK    1  A    between atoms: N_1  and  C_2 
REMARK    2  A    between atoms: C_2  and  C_3 
REMARK    3  A    between atoms: C_7  and  C_14 
REMARK    4  A    between atoms: N_8  and  C_14 
ROOT
HETATM    1  C   UNL     1      62.256   8.432   2.909  1.00  0.00    -0.032 A 
HETATM    2  C   UNL     1      60.952   8.089   3.305  1.00  0.00     0.017 A 
HETATM    3  C   UNL     1      59.940   7.869   2.362  1.00  0.00    -0.033 A 
HETATM    4  C   UNL     1      61.503   8.484   0.606  1.00  0.00     0.001 A 
HETATM    5  C   UNL     1      62.518   8.649   1.551  1.00  0.00     0.009 A 
HETATM    6  C   UNL     1      60.228   8.081   1.010  1.00  0.00     0.009 A 
ENDROOT
BRANCH   1   7
HETATM    7  C   UNL     1      63.365   8.482   3.943  1.00  0.00     0.273 C 
BRANCH   7   8
HETATM    8  N   UNL     1      63.580   7.172   4.580  1.00  0.00    -0.067 N 
HETATM    9  C   UNL     1      64.440   6.269   3.801  1.00  0.00     0.235 C 
HETATM   10  C   UNL     1      65.924   6.641   3.819  1.00  0.00     0.032 C 
HETATM   11  C   UNL     1      66.461   6.865   5.238  1.00  0.00    -0.015 C 
HETATM   12  C   UNL     1      65.515   7.737   6.072  1.00  0.00     0.032 C 
HETATM   13  C   UNL     1      67.851   7.496   5.185  1.00  0.00     0.010 C 
HETATM   14  C   UNL     1      64.062   7.280   5.958  1.00  0.00     0.235 C 
HETATM   15  H   UNL     1      62.652   6.748   4.606  1.00  0.00     0.280 HD
ENDBRANCH   7   8
ENDBRANCH   1   7
BRANCH   3  16
HETATM   16  C   UNL     1      58.616   7.297   2.803  1.00  0.00     0.268 C 
BRANCH  16  17
HETATM   17  N   UNL     1      58.066   7.979   3.967  1.00  0.00    -0.075 N 
HETATM   18  H   UNL     1      58.043   7.336   4.758  1.00  0.00     0.274 HD
HETATM   19  H   UNL     1      57.119   8.295   3.758  1.00  0.00     0.274 HD
HETATM   20  H   UNL     1      58.650   8.782   4.197  1.00  0.00     0.274 HD
ENDBRANCH  16  17
ENDBRANCH   3  16
TORSDOF 4
ENDMDL
