MODEL 1
REMARK VINA RESULT:      -4.7      0.000      0.000
REMARK  1 active torsions:
REMARK  status: ('A' for Active; 'I' for Inactive)
REMARK       I    between atoms: C_1  and  N_2 
REMARK    1  A    between atoms: C_1  and  C_3 
ROOT
HETATM    1  C   UNL     1      64.592   7.854   5.446  1.00  0.00     0.277 C 
HETATM    2  N   UNL     1      65.627   8.598   6.203  1.00  0.00    -0.062 N 
HETATM    3  C   UNL     1      66.657   7.725   6.780  1.00  0.00     0.233 C 
HETATM    4  C   UNL     1      63.947   6.786   6.367  1.00  0.00     0.043 C 
HETATM    5  C   UNL     1      66.027   6.708   7.733  1.00  0.00     0.027 C 
HETATM    6  C   UNL     1      65.011   5.865   6.967  1.00  0.00     0.004 C 
HETATM    7  H   UNL     1      65.171   9.106   6.961  1.00  0.00     0.278 HD
HETATM    8  H   UNL     1      66.091   9.224   5.547  1.00  0.00     0.278 HD
ENDROOT
BRANCH   1   9
HETATM    9  C   UNL     1      63.557   8.860   4.968  1.00  0.00     0.250 C 
HETATM   10  N   UNL     1      63.076   8.874   3.687  1.00  0.00    -0.350 N 
HETATM   11  C   UNL     1      62.206   9.898   3.168  1.00  0.00     0.126 C 
HETATM   12  C   UNL     1      63.177   7.754   2.762  1.00  0.00     0.126 C 
HETATM   13  C   UNL     1      61.344   9.144   2.175  1.00  0.00     0.021 C 
HETATM   14  C   UNL     1      62.374   8.218   1.545  1.00  0.00     0.021 C 
HETATM   15  O   UNL     1      63.188   9.728   5.742  1.00  0.00    -0.271 OA
ENDBRANCH   1   9
TORSDOF 1
ENDMDL
MODEL 2
REMARK VINA RESULT:      -4.7      1.134      5.175
REMARK  1 active torsions:
REMARK  status: ('A' for Active; 'I' for Inactive)
REMARK       I    between atoms: C_1  and  N_2 
REMARK    1  A    between atoms: C_1  and  C_3 
ROOT
HETATM    1  C   UNL     1      63.595   8.650   4.453  1.00  0.00     0.277 C 
HETATM    2  N   UNL     1      63.083   7.626   3.512  1.00  0.00    -0.062 N 
HETATM    3  C   UNL     1      62.678   8.184   2.216  1.00  0.00     0.233 C 
HETATM    4  C   UNL     1      62.523   9.755   4.647  1.00  0.00     0.043 C 
HETATM    5  C   UNL     1      61.580   9.233   2.403  1.00  0.00     0.027 C 
HETATM    6  C   UNL     1      62.101  10.351   3.303  1.00  0.00     0.004 C 
HETATM    7  H   UNL     1      62.274   7.172   3.936  1.00  0.00     0.278 HD
HETATM    8  H   UNL     1      63.841   6.968   3.337  1.00  0.00     0.278 HD
ENDROOT
BRANCH   1   9
HETATM    9  C   UNL     1      63.907   7.955   5.768  1.00  0.00     0.250 C 
HETATM   10  N   UNL     1      65.130   7.405   6.043  1.00  0.00    -0.350 N 
HETATM   11  C   UNL     1      65.411   6.618   7.217  1.00  0.00     0.126 C 
HETATM   12  C   UNL     1      66.354   7.732   5.326  1.00  0.00     0.126 C 
HETATM   13  C   UNL     1      66.863   6.943   7.506  1.00  0.00     0.021 C 
HETATM   14  C   UNL     1      67.438   6.976   6.098  1.00  0.00     0.021 C 
HETATM   15  O   UNL     1      63.011   7.828   6.587  1.00  0.00    -0.271 OA
ENDBRANCH   1   9
TORSDOF 1
ENDMDL
MODEL 3
REMARK VINA RESULT:      -4.7      1.737      2.496
REMARK  1 active torsions:
REMARK  status: ('A' for Active; 'I' for Inactive)
REMARK       I    between atoms: C_1  and  N_2 
REMARK    1  A    between atoms: C_1  and  C_3 
ROOT
HETATM    1  C   UNL     1      65.424   7.983   5.350  1.00  0.00     0.277 C 
HETATM    2  N   UNL     1      64.950   7.214   6.526  1.00  0.00    -0.062 N 
HETATM    3  C   UNL     1      66.017   6.920   7.491  1.00  0.00     0.233 C 
HETATM    4  C   UNL     1      66.583   7.214   4.663  1.00  0.00     0.043 C 
HETATM    5  C   UNL     1      67.133   6.112   6.827  1.00  0.00     0.027 C 
HETATM    6  C   UNL     1      67.705   6.911   5.658  1.00  0.00     0.004 C 
HETATM    7  H   UNL     1      64.558   6.332   6.198  1.00  0.00     0.278 HD
HETATM    8  H   UNL     1      64.256   7.788   7.004  1.00  0.00     0.278 HD
ENDROOT
BRANCH   1   9
HETATM    9  C   UNL     1      64.247   8.155   4.405  1.00  0.00     0.250 C 
HETATM   10  N   UNL     1      63.355   9.188   4.513  1.00  0.00    -0.350 N 
HETATM   11  C   UNL     1      62.154   9.298   3.726  1.00  0.00     0.126 C 
HETATM   12  C   UNL     1      63.611  10.417   5.251  1.00  0.00     0.126 C 
HETATM   13  C   UNL     1      61.989  10.796   3.561  1.00  0.00     0.021 C 
HETATM   14  C   UNL     1      62.388  11.284   4.945  1.00  0.00     0.021 C 
HETATM   15  O   UNL     1      64.054   7.303   3.553  1.00  0.00    -0.271 OA
ENDBRANCH   1   9
TORSDOF 1
ENDMDL
MODEL 4
REMARK VINA RESULT:      -4.7      1.639      4.912
REMARK  1 active torsions:
REMARK  status: ('A' for Active; 'I' for Inactive)
REMARK       I    between atoms: C_1  and  N_2 
REMARK    1  A    between atoms: C_1  and  C_3 
ROOT
HETATM    1  C   UNL     1      63.554   8.816   5.179  1.00  0.00     0.277 C 
HETATM    2  N   UNL     1      63.749  10.248   5.509  1.00  0.00    -0.062 N 
HETATM    3  C   UNL     1      62.555  11.065   5.258  1.00  0.00     0.233 C 
HETATM    4  C   UNL     1      63.105   8.683   3.700  1.00  0.00     0.043 C 
HETATM    5  C   UNL     1      62.146  10.979   3.787  1.00  0.00     0.027 C 
HETATM    6  C   UNL     1      61.855   9.523   3.430  1.00  0.00     0.004 C 
HETATM    7  H   UNL     1      64.514  10.610   4.940  1.00  0.00     0.278 HD
HETATM    8  H   UNL     1      63.953  10.305   6.506  1.00  0.00     0.278 HD
ENDROOT
BRANCH   1   9
HETATM    9  C   UNL     1      64.877   8.104   5.413  1.00  0.00     0.250 C 
HETATM   10  N   UNL     1      64.960   6.871   6.002  1.00  0.00    -0.350 N 
HETATM   11  C   UNL     1      66.200   6.237   6.366  1.00  0.00     0.126 C 
HETATM   12  C   UNL     1      63.842   5.944   6.119  1.00  0.00     0.126 C 
HETATM   13  C   UNL     1      65.901   4.764   6.170  1.00  0.00     0.021 C 
HETATM   14  C   UNL     1      64.480   4.683   6.707  1.00  0.00     0.021 C 
HETATM   15  O   UNL     1      65.911   8.684   5.122  1.00  0.00    -0.271 OA
ENDBRANCH   1   9
TORSDOF 1
ENDMDL
MODEL 5
REMARK VINA RESULT:      -4.6      1.844      5.622
REMARK  1 active torsions:
REMARK  status: ('A' for Active; 'I' for Inactive)
REMARK       I    between atoms: C_1  and  N_2 
REMARK    1  A    between atoms: C_1  and  C_3 
ROOT
HETATM    1  C   UNL     1      64.722   7.291   5.667  1.00  0.00     0.277 C 
HETATM    2  N   UNL     1      63.769   8.424   5.729  1.00  0.00    -0.062 N 
HETATM    3  C   UNL     1      62.641   8.280   4.801  1.00  0.00     0.233 C 
HETATM    4  C   UNL     1      65.233   7.125   4.212  1.00  0.00     0.043 C 
HETATM    5  C   UNL     1      63.142   8.174   3.360  1.00  0.00     0.027 C 
HETATM    6  C   UNL     1      64.066   6.964   3.237  1.00  0.00     0.004 C 
HETATM    7  H   UNL     1      64.270   9.282   5.499  1.00  0.00     0.278 HD
HETATM    8  H   UNL     1      63.385   8.447   6.674  1.00  0.00     0.278 HD
ENDROOT
BRANCH   1   9
HETATM    9  C   UNL     1      65.869   7.599   6.617  1.00  0.00     0.250 C 
HETATM   10  N   UNL     1      66.336   6.694   7.531  1.00  0.00    -0.350 N 
HETATM   11  C   UNL     1      67.321   7.003   8.536  1.00  0.00     0.126 C 
HETATM   12  C   UNL     1      66.089   5.260   7.464  1.00  0.00     0.126 C 
HETATM   13  C   UNL     1      68.073   5.697   8.692  1.00  0.00     0.021 C 
HETATM   14  C   UNL     1      66.931   4.695   8.610  1.00  0.00     0.021 C 
HETATM   15  O   UNL     1      66.350   8.721   6.605  1.00  0.00    -0.271 OA
ENDBRANCH   1   9
TORSDOF 1
ENDMDL
MODEL 6
REMARK VINA RESULT:      -4.2      1.893      2.510
REMARK  1 active torsions:
REMARK  status: ('A' for Active; 'I' for Inactive)
REMARK       I    between atoms: C_1  and  N_2 
REMARK    1  A    between atoms: C_1  and  C_3 
ROOT
HETATM    1  C   UNL     1      65.749   6.547   6.629  1.00  0.00     0.277 C 
HETATM    2  N   UNL     1      66.926   6.083   5.857  1.00  0.00    -0.062 N 
HETATM    3  C   UNL     1      67.598   4.929   6.466  1.00  0.00     0.233 C 
HETATM    4  C   UNL     1      66.181   6.874   8.083  1.00  0.00     0.043 C 
HETATM    5  C   UNL     1      68.075   5.271   7.879  1.00  0.00     0.027 C 
HETATM    6  C   UNL     1      66.874   5.674   8.731  1.00  0.00     0.004 C 
HETATM    7  H   UNL     1      67.594   6.851   5.794  1.00  0.00     0.278 HD
HETATM    8  H   UNL     1      66.591   5.791   4.939  1.00  0.00     0.278 HD
ENDROOT
BRANCH   1   9
HETATM    9  C   UNL     1      65.195   7.780   5.934  1.00  0.00     0.250 C 
HETATM   10  N   UNL     1      64.138   7.728   5.066  1.00  0.00    -0.350 N 
HETATM   11  C   UNL     1      63.685   8.851   4.285  1.00  0.00     0.126 C 
HETATM   12  C   UNL     1      63.194   6.622   4.991  1.00  0.00     0.126 C 
HETATM   13  C   UNL     1      62.190   8.618   4.188  1.00  0.00     0.021 C 
HETATM   14  C   UNL     1      62.146   7.111   3.988  1.00  0.00     0.021 C 
HETATM   15  O   UNL     1      65.757   8.849   6.109  1.00  0.00    -0.271 OA
ENDBRANCH   1   9
TORSDOF 1
ENDMDL
MODEL 7
REMARK VINA RESULT:      -3.7      3.081      3.936
REMARK  1 active torsions:
REMARK  status: ('A' for Active; 'I' for Inactive)
REMARK       I    between atoms: C_1  and  N_2 
REMARK    1  A    between atoms: C_1  and  C_3 
ROOT
HETATM    1  C   UNL     1      64.910   6.375   6.023  1.00  0.00     0.277 C 
HETATM    2  N   UNL     1      65.205   7.119   4.775  1.00  0.00    -0.062 N 
HETATM    3  C   UNL     1      66.587   6.944   4.313  1.00  0.00     0.233 C 
HETATM    4  C   UNL     1      65.912   6.802   7.128  1.00  0.00     0.043 C 
HETATM    5  C   UNL     1      67.574   7.419   5.380  1.00  0.00     0.027 C 
HETATM    6  C   UNL     1      67.356   6.616   6.660  1.00  0.00     0.004 C 
HETATM    7  H   UNL     1      65.043   8.111   4.944  1.00  0.00     0.278 HD
HETATM    8  H   UNL     1      64.592   6.749   4.049  1.00  0.00     0.278 HD
ENDROOT
BRANCH   1   9
HETATM    9  C   UNL     1      63.481   6.698   6.427  1.00  0.00     0.250 C 
HETATM   10  N   UNL     1      62.465   5.783   6.352  1.00  0.00    -0.350 N 
HETATM   11  C   UNL     1      61.081   6.099   6.590  1.00  0.00     0.126 C 
HETATM   12  C   UNL     1      62.666   4.343   6.260  1.00  0.00     0.126 C 
HETATM   13  C   UNL     1      60.537   4.820   7.196  1.00  0.00     0.021 C 
HETATM   14  C   UNL     1      61.248   3.775   6.348  1.00  0.00     0.021 C 
HETATM   15  O   UNL     1      63.217   7.838   6.773  1.00  0.00    -0.271 OA
ENDBRANCH   1   9
TORSDOF 1
ENDMDL
MODEL 8
REMARK VINA RESULT:      -3.7      3.303      4.784
REMARK  1 active torsions:
REMARK  status: ('A' for Active; 'I' for Inactive)
REMARK       I    between atoms: C_1  and  N_2 
REMARK    1  A    between atoms: C_1  and  C_3 
ROOT
HETATM    1  C   UNL     1      61.059   8.455   3.929  1.00  0.00     0.277 C 
HETATM    2  N   UNL     1      62.112   7.521   4.392  1.00  0.00    -0.062 N 
HETATM    3  C   UNL     1      62.929   8.068   5.483  1.00  0.00     0.233 C 
HETATM    4  C   UNL     1      61.710   9.797   3.502  1.00  0.00     0.043 C 
HETATM    5  C   UNL     1      63.616   9.361   5.042  1.00  0.00     0.027 C 
HETATM    6  C   UNL     1      62.555  10.381   4.635  1.00  0.00     0.004 C 
HETATM    7  H   UNL     1      62.724   7.308   3.605  1.00  0.00     0.278 HD
HETATM    8  H   UNL     1      61.645   6.689   4.750  1.00  0.00     0.278 HD
ENDROOT
BRANCH   1   9
HETATM    9  C   UNL     1      60.341   7.800   2.760  1.00  0.00     0.250 C 
HETATM   10  N   UNL     1      59.085   7.268   2.867  1.00  0.00    -0.350 N 
HETATM   11  C   UNL     1      58.439   6.517   1.821  1.00  0.00     0.126 C 
HETATM   12  C   UNL     1      58.150   7.585   3.938  1.00  0.00     0.126 C 
HETATM   13  C   UNL     1      56.975   6.862   2.006  1.00  0.00     0.021 C 
HETATM   14  C   UNL     1      56.868   6.860   3.524  1.00  0.00     0.021 C 
HETATM   15  O   UNL     1      60.936   7.689   1.700  1.00  0.00    -0.271 OA
ENDBRANCH   1   9
TORSDOF 1
ENDMDL
MODEL 9
REMARK VINA RESULT:      -3.6     12.351     13.421
REMARK  1 active torsions:
REMARK  status: ('A' for Active; 'I' for Inactive)
REMARK       I    between atoms: C_1  and  N_2 
REMARK    1  A    between atoms: C_1  and  C_3 
ROOT
HETATM    1  C   UNL     1      56.638   2.285  13.274  1.00  0.00     0.277 C 
HETATM    2  N   UNL     1      57.172   1.502  14.414  1.00  0.00    -0.062 N 
HETATM    3  C   UNL     1      58.616   1.683  14.612  1.00  0.00     0.233 C 
HETATM    4  C   UNL     1      57.415   1.914  11.984  1.00  0.00     0.043 C 
HETATM    5  C   UNL     1      59.385   1.262  13.359  1.00  0.00     0.027 C 
HETATM    6  C   UNL     1      58.920   2.107  12.176  1.00  0.00     0.004 C 
HETATM    7  H   UNL     1      56.990   0.514  14.242  1.00  0.00     0.278 HD
HETATM    8  H   UNL     1      56.706   1.836  15.257  1.00  0.00     0.278 HD
ENDROOT
BRANCH   1   9
HETATM    9  C   UNL     1      55.161   1.954  13.137  1.00  0.00     0.250 C 
HETATM   10  N   UNL     1      54.170   2.808  13.538  1.00  0.00    -0.350 N 
HETATM   11  C   UNL     1      52.771   2.466  13.554  1.00  0.00     0.126 C 
HETATM   12  C   UNL     1      54.363   4.233  13.771  1.00  0.00     0.126 C 
HETATM   13  C   UNL     1      52.092   3.785  13.244  1.00  0.00     0.021 C 
HETATM   14  C   UNL     1      52.949   4.747  14.052  1.00  0.00     0.021 C 
HETATM   15  O   UNL     1      54.848   0.854  12.710  1.00  0.00    -0.271 OA
ENDBRANCH   1   9
TORSDOF 1
ENDMDL
