MODEL 1
REMARK VINA RESULT:      -6.1      0.000      0.000
REMARK  1 active torsions:
REMARK  status: ('A' for Active; 'I' for Inactive)
REMARK    1  A    between atoms: C_1  and  C_6 
ROOT
HETATM    1  C   UNL     1      63.240   7.894   4.422  1.00  0.00     0.055 A 
HETATM    2  C   UNL     1      62.758   9.090   3.822  1.00  0.00     0.011 A 
HETATM    3  N   UNL     1      62.627   7.909   1.709  1.00  0.00    -0.359 N 
ATOM      4  HN  UNL     1      62.408   7.913   0.713  1.00  0.00     0.166 HD
HETATM    5  C   UNL     1      62.465   9.020   2.441  1.00  0.00     0.043 A 
HETATM    6  C   UNL     1      63.402   6.740   3.643  1.00  0.00     0.043 A 
HETATM    7  C   UNL     1      63.083   6.785   2.300  1.00  0.00     0.006 A 
HETATM    8  C   UNL     1      62.539  10.332   4.478  1.00  0.00     0.057 A 
HETATM    9  C   UNL     1      61.973  10.141   1.782  1.00  0.00     0.033 A 
HETATM   10  C   UNL     1      62.040  11.433   3.790  1.00  0.00     0.117 A 
HETATM   11  C   UNL     1      61.751  11.347   2.443  1.00  0.00     0.044 A 
HETATM   12  F   UNL     1      61.834  12.583   4.441  1.00  0.00    -0.206 F 
HETATM   13  C   UNL     1      63.223   5.576   1.427  1.00  0.00     0.068 C 
ENDROOT
BRANCH   1  14
HETATM   14  C   UNL     1      63.565   7.815   5.879  1.00  0.00     0.210 C 
HETATM   15  O   UNL     1      62.810   7.593   6.804  1.00  0.00    -0.644 OA
HETATM   16  O   UNL     1      64.876   8.013   6.127  1.00  0.00    -0.644 OA
ENDBRANCH   1  14
TORSDOF 1
ENDMDL
MODEL 2
REMARK VINA RESULT:      -5.6      2.727      3.987
REMARK  1 active torsions:
REMARK  status: ('A' for Active; 'I' for Inactive)
REMARK    1  A    between atoms: C_1  and  C_6 
ROOT
HETATM    1  C   UNL     1      62.626   9.770   4.129  1.00  0.00     0.055 A 
HETATM    2  C   UNL     1      63.617   8.755   4.235  1.00  0.00     0.011 A 
HETATM    3  N   UNL     1      62.598   7.643   2.337  1.00  0.00    -0.359 N 
ATOM      4  HN  UNL     1      62.582   6.862   1.681  1.00  0.00     0.166 HD
HETATM    5  C   UNL     1      63.541   7.709   3.287  1.00  0.00     0.043 A 
HETATM    6  C   UNL     1      61.648   9.687   3.129  1.00  0.00     0.043 A 
HETATM    7  C   UNL     1      61.669   8.618   2.254  1.00  0.00     0.006 A 
HETATM    8  C   UNL     1      64.669   8.702   5.189  1.00  0.00     0.057 A 
HETATM    9  C   UNL     1      64.482   6.687   3.311  1.00  0.00     0.033 A 
HETATM   10  C   UNL     1      65.598   7.667   5.181  1.00  0.00     0.117 A 
HETATM   11  C   UNL     1      65.516   6.656   4.244  1.00  0.00     0.044 A 
HETATM   12  F   UNL     1      66.584   7.654   6.086  1.00  0.00    -0.206 F 
HETATM   13  C   UNL     1      60.657   8.491   1.157  1.00  0.00     0.068 C 
ENDROOT
BRANCH   1  14
HETATM   14  C   UNL     1      62.600  10.948   5.048  1.00  0.00     0.210 C 
HETATM   15  O   UNL     1      63.068  11.037   6.166  1.00  0.00    -0.644 OA
HETATM   16  O   UNL     1      61.977  12.013   4.505  1.00  0.00    -0.644 OA
ENDBRANCH   1  14
TORSDOF 1
ENDMDL
MODEL 3
REMARK VINA RESULT:      -5.4      1.099      1.450
REMARK  1 active torsions:
REMARK  status: ('A' for Active; 'I' for Inactive)
REMARK    1  A    between atoms: C_1  and  C_6 
ROOT
HETATM    1  C   UNL     1      64.039   7.577   4.325  1.00  0.00     0.055 A 
HETATM    2  C   UNL     1      63.254   8.429   3.500  1.00  0.00     0.011 A 
HETATM    3  N   UNL     1      63.255   6.694   1.806  1.00  0.00    -0.359 N 
ATOM      4  HN  UNL     1      62.973   6.369   0.881  1.00  0.00     0.166 HD
HETATM    5  C   UNL     1      62.891   7.910   2.236  1.00  0.00     0.043 A 
HETATM    6  C   UNL     1      64.411   6.307   3.861  1.00  0.00     0.043 A 
HETATM    7  C   UNL     1      63.998   5.902   2.607  1.00  0.00     0.006 A 
HETATM    8  C   UNL     1      62.799   9.735   3.830  1.00  0.00     0.057 A 
HETATM    9  C   UNL     1      62.109   8.673   1.376  1.00  0.00     0.033 A 
HETATM   10  C   UNL     1      62.013  10.468   2.948  1.00  0.00     0.117 A 
HETATM   11  C   UNL     1      61.660   9.946   1.720  1.00  0.00     0.044 A 
HETATM   12  F   UNL     1      61.592  11.690   3.296  1.00  0.00    -0.206 F 
HETATM   13  C   UNL     1      64.353   4.549   2.071  1.00  0.00     0.068 C 
ENDROOT
BRANCH   1  14
HETATM   14  C   UNL     1      64.474   7.984   5.696  1.00  0.00     0.210 C 
HETATM   15  O   UNL     1      65.401   8.707   6.003  1.00  0.00    -0.644 OA
HETATM   16  O   UNL     1      63.693   7.460   6.662  1.00  0.00    -0.644 OA
ENDBRANCH   1  14
TORSDOF 1
ENDMDL
MODEL 4
REMARK VINA RESULT:      -5.3      2.511      3.517
REMARK  1 active torsions:
REMARK  status: ('A' for Active; 'I' for Inactive)
REMARK    1  A    between atoms: C_1  and  C_6 
ROOT
HETATM    1  C   UNL     1      63.257   9.438   4.422  1.00  0.00     0.055 A 
HETATM    2  C   UNL     1      62.740   8.757   3.286  1.00  0.00     0.011 A 
HETATM    3  N   UNL     1      64.424   7.045   3.617  1.00  0.00    -0.359 N 
ATOM      4  HN  UNL     1      64.857   6.170   3.322  1.00  0.00     0.166 HD
HETATM    5  C   UNL     1      63.382   7.546   2.940  1.00  0.00     0.043 A 
HETATM    6  C   UNL     1      64.347   8.900   5.121  1.00  0.00     0.043 A 
HETATM    7  C   UNL     1      64.896   7.707   4.693  1.00  0.00     0.006 A 
HETATM    8  C   UNL     1      61.644   9.174   2.481  1.00  0.00     0.057 A 
HETATM    9  C   UNL     1      62.926   6.810   1.852  1.00  0.00     0.033 A 
HETATM   10  C   UNL     1      61.210   8.410   1.403  1.00  0.00     0.117 A 
HETATM   11  C   UNL     1      61.842   7.225   1.082  1.00  0.00     0.044 A 
HETATM   12  F   UNL     1      60.168   8.825   0.674  1.00  0.00    -0.206 F 
HETATM   13  C   UNL     1      66.051   7.081   5.414  1.00  0.00     0.068 C 
ENDROOT
BRANCH   1  14
HETATM   14  C   UNL     1      62.661  10.716   4.917  1.00  0.00     0.210 C 
HETATM   15  O   UNL     1      61.924  11.478   4.324  1.00  0.00    -0.644 OA
HETATM   16  O   UNL     1      63.016  10.993   6.188  1.00  0.00    -0.644 OA
ENDBRANCH   1  14
TORSDOF 1
ENDMDL
MODEL 5
REMARK VINA RESULT:      -5.2      2.443      3.376
REMARK  1 active torsions:
REMARK  status: ('A' for Active; 'I' for Inactive)
REMARK    1  A    between atoms: C_1  and  C_6 
ROOT
HETATM    1  C   UNL     1      63.239   7.323   3.491  1.00  0.00     0.055 A 
HETATM    2  C   UNL     1      62.862   8.679   3.699  1.00  0.00     0.011 A 
HETATM    3  N   UNL     1      63.806   8.538   5.928  1.00  0.00    -0.359 N 
ATOM      4  HN  UNL     1      64.011   8.979   6.824  1.00  0.00     0.166 HD
HETATM    5  C   UNL     1      63.187   9.229   4.961  1.00  0.00     0.043 A 
HETATM    6  C   UNL     1      63.888   6.615   4.512  1.00  0.00     0.043 A 
HETATM    7  C   UNL     1      64.156   7.254   5.707  1.00  0.00     0.006 A 
HETATM    8  C   UNL     1      62.205   9.523   2.763  1.00  0.00     0.057 A 
HETATM    9  C   UNL     1      62.868  10.553   5.238  1.00  0.00     0.033 A 
HETATM   10  C   UNL     1      61.906  10.846   3.071  1.00  0.00     0.117 A 
HETATM   11  C   UNL     1      62.236  11.371   4.305  1.00  0.00     0.044 A 
HETATM   12  F   UNL     1      61.298  11.617   2.163  1.00  0.00    -0.206 F 
HETATM   13  C   UNL     1      64.862   6.548   6.824  1.00  0.00     0.068 C 
ENDROOT
BRANCH   1  14
HETATM   14  C   UNL     1      62.983   6.621   2.196  1.00  0.00     0.210 C 
HETATM   15  O   UNL     1      61.953   6.592   1.551  1.00  0.00    -0.644 OA
HETATM   16  O   UNL     1      64.070   5.968   1.738  1.00  0.00    -0.644 OA
ENDBRANCH   1  14
TORSDOF 1
ENDMDL
MODEL 6
REMARK VINA RESULT:      -5.0      2.414      3.993
REMARK  1 active torsions:
REMARK  status: ('A' for Active; 'I' for Inactive)
REMARK    1  A    between atoms: C_1  and  C_6 
ROOT
HETATM    1  C   UNL     1      63.301   8.533   4.583  1.00  0.00     0.055 A 
HETATM    2  C   UNL     1      63.034   8.098   3.256  1.00  0.00     0.011 A 
HETATM    3  N   UNL     1      62.059  10.271   2.802  1.00  0.00    -0.359 N 
ATOM      4  HN  UNL     1      61.599  10.909   2.153  1.00  0.00     0.166 HD
HETATM    5  C   UNL     1      62.404   9.038   2.408  1.00  0.00     0.043 A 
HETATM    6  C   UNL     1      62.937   9.827   4.979  1.00  0.00     0.043 A 
HETATM    7  C   UNL     1      62.325  10.663   4.065  1.00  0.00     0.006 A 
HETATM    8  C   UNL     1      63.345   6.824   2.709  1.00  0.00     0.057 A 
HETATM    9  C   UNL     1      62.122   8.697   1.090  1.00  0.00     0.033 A 
HETATM   10  C   UNL     1      63.055   6.518   1.384  1.00  0.00     0.117 A 
HETATM   11  C   UNL     1      62.447   7.448   0.565  1.00  0.00     0.044 A 
HETATM   12  F   UNL     1      63.373   5.313   0.897  1.00  0.00    -0.206 F 
HETATM   13  C   UNL     1      61.930  12.061   4.432  1.00  0.00     0.068 C 
ENDROOT
BRANCH   1  14
HETATM   14  C   UNL     1      63.986   7.655   5.581  1.00  0.00     0.210 C 
HETATM   15  O   UNL     1      65.062   7.101   5.476  1.00  0.00    -0.644 OA
HETATM   16  O   UNL     1      63.273   7.510   6.716  1.00  0.00    -0.644 OA
ENDBRANCH   1  14
TORSDOF 1
ENDMDL
MODEL 7
REMARK VINA RESULT:      -5.0      2.499      3.223
REMARK  1 active torsions:
REMARK  status: ('A' for Active; 'I' for Inactive)
REMARK    1  A    between atoms: C_1  and  C_6 
ROOT
HETATM    1  C   UNL     1      63.063   8.008   5.031  1.00  0.00     0.055 A 
HETATM    2  C   UNL     1      62.326   8.139   3.822  1.00  0.00     0.011 A 
HETATM    3  N   UNL     1      60.652   6.650   4.750  1.00  0.00    -0.359 N 
ATOM      4  HN  UNL     1      59.770   6.147   4.648  1.00  0.00     0.166 HD
HETATM    5  C   UNL     1      61.109   7.422   3.754  1.00  0.00     0.043 A 
HETATM    6  C   UNL     1      62.571   7.198   6.064  1.00  0.00     0.043 A 
HETATM    7  C   UNL     1      61.367   6.543   5.888  1.00  0.00     0.006 A 
HETATM    8  C   UNL     1      62.692   8.921   2.693  1.00  0.00     0.057 A 
HETATM    9  C   UNL     1      60.320   7.510   2.613  1.00  0.00     0.033 A 
HETATM   10  C   UNL     1      61.876   8.991   1.569  1.00  0.00     0.117 A 
HETATM   11  C   UNL     1      60.686   8.292   1.520  1.00  0.00     0.044 A 
HETATM   12  F   UNL     1      62.245   9.747   0.529  1.00  0.00    -0.206 F 
HETATM   13  C   UNL     1      60.788   5.679   6.967  1.00  0.00     0.068 C 
ENDROOT
BRANCH   1  14
HETATM   14  C   UNL     1      64.354   8.728   5.252  1.00  0.00     0.210 C 
HETATM   15  O   UNL     1      64.522   9.836   5.722  1.00  0.00    -0.644 OA
HETATM   16  O   UNL     1      65.424   8.000   4.873  1.00  0.00    -0.644 OA
ENDBRANCH   1  14
TORSDOF 1
ENDMDL
MODEL 8
REMARK VINA RESULT:      -4.9      2.760      4.073
REMARK  1 active torsions:
REMARK  status: ('A' for Active; 'I' for Inactive)
REMARK    1  A    between atoms: C_1  and  C_6 
ROOT
HETATM    1  C   UNL     1      62.390   8.820   4.396  1.00  0.00     0.055 A 
HETATM    2  C   UNL     1      61.673   7.806   3.702  1.00  0.00     0.011 A 
HETATM    3  N   UNL     1      61.085   9.453   2.023  1.00  0.00    -0.359 N 
ATOM      4  HN  UNL     1      60.603   9.690   1.155  1.00  0.00     0.166 HD
HETATM    5  C   UNL     1      61.039   8.202   2.501  1.00  0.00     0.043 A 
HETATM    6  C   UNL     1      62.429  10.123   3.880  1.00  0.00     0.043 A 
HETATM    7  C   UNL     1      61.773  10.398   2.697  1.00  0.00     0.006 A 
HETATM    8  C   UNL     1      61.545   6.446   4.095  1.00  0.00     0.057 A 
HETATM    9  C   UNL     1      60.333   7.268   1.754  1.00  0.00     0.033 A 
HETATM   10  C   UNL     1      60.835   5.536   3.320  1.00  0.00     0.117 A 
HETATM   11  C   UNL     1      60.228   5.935   2.147  1.00  0.00     0.044 A 
HETATM   12  F   UNL     1      60.745   4.260   3.713  1.00  0.00    -0.206 F 
HETATM   13  C   UNL     1      61.797  11.769   2.094  1.00  0.00     0.068 C 
ENDROOT
BRANCH   1  14
HETATM   14  C   UNL     1      63.129   8.539   5.664  1.00  0.00     0.210 C 
HETATM   15  O   UNL     1      62.711   8.003   6.671  1.00  0.00    -0.644 OA
HETATM   16  O   UNL     1      64.414   8.943   5.613  1.00  0.00    -0.644 OA
ENDBRANCH   1  14
TORSDOF 1
ENDMDL
MODEL 9
REMARK VINA RESULT:      -4.9      3.008      4.156
REMARK  1 active torsions:
REMARK  status: ('A' for Active; 'I' for Inactive)
REMARK    1  A    between atoms: C_1  and  C_6 
ROOT
HETATM    1  C   UNL     1      61.936   9.181   3.842  1.00  0.00     0.055 A 
HETATM    2  C   UNL     1      62.987   8.435   4.442  1.00  0.00     0.011 A 
HETATM    3  N   UNL     1      61.712   6.416   4.029  1.00  0.00    -0.359 N 
ATOM      4  HN  UNL     1      61.625   5.402   4.101  1.00  0.00     0.166 HD
HETATM    5  C   UNL     1      62.804   7.035   4.498  1.00  0.00     0.043 A 
HETATM    6  C   UNL     1      60.801   8.519   3.354  1.00  0.00     0.043 A 
HETATM    7  C   UNL     1      60.728   7.143   3.461  1.00  0.00     0.006 A 
HETATM    8  C   UNL     1      64.194   8.963   4.977  1.00  0.00     0.057 A 
HETATM    9  C   UNL     1      63.793   6.232   5.055  1.00  0.00     0.033 A 
HETATM   10  C   UNL     1      65.166   8.130   5.521  1.00  0.00     0.117 A 
HETATM   11  C   UNL     1      64.976   6.763   5.562  1.00  0.00     0.044 A 
HETATM   12  F   UNL     1      66.296   8.658   6.004  1.00  0.00    -0.206 F 
HETATM   13  C   UNL     1      59.546   6.384   2.942  1.00  0.00     0.068 C 
ENDROOT
BRANCH   1  14
HETATM   14  C   UNL     1      62.006  10.667   3.691  1.00  0.00     0.210 C 
HETATM   15  O   UNL     1      62.063  11.506   4.568  1.00  0.00    -0.644 OA
HETATM   16  O   UNL     1      62.014  11.056   2.400  1.00  0.00    -0.644 OA
ENDBRANCH   1  14
TORSDOF 1
ENDMDL
