MODEL 1
REMARK VINA RESULT:      -5.4      0.000      0.000
REMARK  3 active torsions:
REMARK  status: ('A' for Active; 'I' for Inactive)
REMARK    1  A    between atoms: C_1  and  N_2 
REMARK    2  A    between atoms: C_3  and  C_6 
REMARK    3  A    between atoms: C_6  and  O_10 
ROOT
HETATM    1  C   UNL     1      62.802   9.398   4.035  1.00  0.00     0.090 A 
HETATM    2  C   UNL     1      62.511  10.696   4.497  1.00  0.00     0.004 A 
HETATM    3  N   UNL     1      62.586   9.056   2.743  1.00  0.00    -0.356 N 
ATOM      4  HN  UNL     1      62.808   8.118   2.409  1.00  0.00     0.166 HD
HETATM    5  C   UNL     1      61.955  11.625   3.602  1.00  0.00     0.014 A 
HETATM    6  C   UNL     1      62.069   9.982   1.905  1.00  0.00     0.089 A 
HETATM    7  C   UNL     1      61.728  11.264   2.286  1.00  0.00     0.018 A 
ENDROOT
BRANCH   1   8
HETATM    8  N   UNL     1      63.389   8.463   4.890  1.00  0.00    -0.269 NA
HETATM    9  C   UNL     1      64.827   8.233   4.691  1.00  0.00     0.097 C 
HETATM   10  C   UNL     1      65.366   7.638   5.997  1.00  0.00     0.015 C 
HETATM   11  C   UNL     1      64.605   6.374   6.407  1.00  0.00     0.002 C 
HETATM   12  C   UNL     1      63.088   6.582   6.373  1.00  0.00     0.015 C 
HETATM   13  C   UNL     1      62.641   7.210   5.050  1.00  0.00     0.097 C 
ENDBRANCH   1   8
BRANCH   2  14
HETATM   14  C   UNL     1      62.857  11.168   5.889  1.00  0.00     0.206 C 
BRANCH  14  15
HETATM   15  O   UNL     1      64.265  11.305   6.064  1.00  0.00    -0.396 OA
HETATM   16  H   UNL     1      64.443  11.982   6.735  1.00  0.00     0.209 HD
ENDBRANCH  14  15
ENDBRANCH   2  14
TORSDOF 3
ENDMDL
MODEL 2
REMARK VINA RESULT:      -4.6      2.106      3.215
REMARK  3 active torsions:
REMARK  status: ('A' for Active; 'I' for Inactive)
REMARK    1  A    between atoms: C_1  and  N_2 
REMARK    2  A    between atoms: C_3  and  C_6 
REMARK    3  A    between atoms: C_6  and  O_10 
ROOT
HETATM    1  C   UNL     1      63.930   8.659   4.983  1.00  0.00     0.090 A 
HETATM    2  C   UNL     1      63.146   8.458   3.830  1.00  0.00     0.004 A 
HETATM    3  N   UNL     1      63.821   9.798   5.707  1.00  0.00    -0.356 N 
ATOM      4  HN  UNL     1      64.381   9.936   6.548  1.00  0.00     0.166 HD
HETATM    5  C   UNL     1      62.272   9.478   3.418  1.00  0.00     0.014 A 
HETATM    6  C   UNL     1      62.954  10.749   5.292  1.00  0.00     0.089 A 
HETATM    7  C   UNL     1      62.174  10.643   4.158  1.00  0.00     0.018 A 
ENDROOT
BRANCH   1   8
HETATM    8  N   UNL     1      64.781   7.651   5.439  1.00  0.00    -0.269 NA
HETATM    9  C   UNL     1      64.272   6.845   6.558  1.00  0.00     0.097 C 
HETATM   10  C   UNL     1      65.051   5.525   6.546  1.00  0.00     0.015 C 
HETATM   11  C   UNL     1      66.564   5.754   6.608  1.00  0.00     0.002 C 
HETATM   12  C   UNL     1      67.030   6.786   5.578  1.00  0.00     0.015 C 
HETATM   13  C   UNL     1      66.178   8.057   5.636  1.00  0.00     0.097 C 
ENDBRANCH   1   8
BRANCH   2  14
HETATM   14  C   UNL     1      63.131   7.157   3.066  1.00  0.00     0.206 C 
BRANCH  14  15
HETATM   15  O   UNL     1      64.450   6.663   2.840  1.00  0.00    -0.396 OA
HETATM   16  H   UNL     1      64.830   6.360   3.678  1.00  0.00     0.209 HD
ENDBRANCH  14  15
ENDBRANCH   2  14
TORSDOF 3
ENDMDL
MODEL 3
REMARK VINA RESULT:      -4.6      1.891      2.847
REMARK  3 active torsions:
REMARK  status: ('A' for Active; 'I' for Inactive)
REMARK    1  A    between atoms: C_1  and  N_2 
REMARK    2  A    between atoms: C_3  and  C_6 
REMARK    3  A    between atoms: C_6  and  O_10 
ROOT
HETATM    1  C   UNL     1      62.864   9.142   3.849  1.00  0.00     0.090 A 
HETATM    2  C   UNL     1      62.503   8.751   2.545  1.00  0.00     0.004 A 
HETATM    3  N   UNL     1      62.597  10.392   4.297  1.00  0.00    -0.356 N 
ATOM      4  HN  UNL     1      62.849  10.669   5.246  1.00  0.00     0.166 HD
HETATM    5  C   UNL     1      61.894   9.692   1.699  1.00  0.00     0.014 A 
HETATM    6  C   UNL     1      61.991  11.264   3.462  1.00  0.00     0.089 A 
HETATM    7  C   UNL     1      61.634  10.969   2.162  1.00  0.00     0.018 A 
ENDROOT
BRANCH   1   8
HETATM    8  N   UNL     1      63.438   8.220   4.727  1.00  0.00    -0.269 NA
HETATM    9  C   UNL     1      62.551   7.708   5.782  1.00  0.00     0.097 C 
HETATM   10  C   UNL     1      63.152   6.382   6.263  1.00  0.00     0.015 C 
HETATM   11  C   UNL     1      64.604   6.546   6.722  1.00  0.00     0.002 C 
HETATM   12  C   UNL     1      65.450   7.300   5.692  1.00  0.00     0.015 C 
HETATM   13  C   UNL     1      64.760   8.592   5.243  1.00  0.00     0.097 C 
ENDBRANCH   1   8
BRANCH   2  14
HETATM   14  C   UNL     1      62.655   7.335   2.043  1.00  0.00     0.206 C 
BRANCH  14  15
HETATM   15  O   UNL     1      63.934   6.796   2.368  1.00  0.00    -0.396 OA
HETATM   16  H   UNL     1      63.904   6.401   3.253  1.00  0.00     0.209 HD
ENDBRANCH  14  15
ENDBRANCH   2  14
TORSDOF 3
ENDMDL
MODEL 4
REMARK VINA RESULT:      -4.5      1.138      1.422
REMARK  3 active torsions:
REMARK  status: ('A' for Active; 'I' for Inactive)
REMARK    1  A    between atoms: C_1  and  N_2 
REMARK    2  A    between atoms: C_3  and  C_6 
REMARK    3  A    between atoms: C_6  and  O_10 
ROOT
HETATM    1  C   UNL     1      62.871   8.440   3.417  1.00  0.00     0.090 A 
HETATM    2  C   UNL     1      62.344   9.745   3.442  1.00  0.00     0.004 A 
HETATM    3  N   UNL     1      62.878   7.715   2.273  1.00  0.00    -0.356 N 
ATOM      4  HN  UNL     1      63.272   6.774   2.255  1.00  0.00     0.166 HD
HETATM    5  C   UNL     1      61.786  10.273   2.266  1.00  0.00     0.014 A 
HETATM    6  C   UNL     1      62.352   8.264   1.155  1.00  0.00     0.089 A 
HETATM    7  C   UNL     1      61.788   9.523   1.104  1.00  0.00     0.018 A 
ENDROOT
BRANCH   1   8
HETATM    8  N   UNL     1      63.466   7.899   4.559  1.00  0.00    -0.269 NA
HETATM    9  C   UNL     1      64.916   7.677   4.478  1.00  0.00     0.097 C 
HETATM   10  C   UNL     1      65.437   7.613   5.919  1.00  0.00     0.015 C 
HETATM   11  C   UNL     1      64.709   6.547   6.742  1.00  0.00     0.002 C 
HETATM   12  C   UNL     1      63.188   6.662   6.613  1.00  0.00     0.015 C 
HETATM   13  C   UNL     1      62.759   6.754   5.146  1.00  0.00     0.097 C 
ENDBRANCH   1   8
BRANCH   2  14
HETATM   14  C   UNL     1      62.433  10.642   4.653  1.00  0.00     0.206 C 
BRANCH  14  15
HETATM   15  O   UNL     1      62.168  12.003   4.321  1.00  0.00    -0.396 OA
HETATM   16  H   UNL     1      62.902  12.356   3.796  1.00  0.00     0.209 HD
ENDBRANCH  14  15
ENDBRANCH   2  14
TORSDOF 3
ENDMDL
MODEL 5
REMARK VINA RESULT:      -4.4      3.122      6.144
REMARK  3 active torsions:
REMARK  status: ('A' for Active; 'I' for Inactive)
REMARK    1  A    between atoms: C_1  and  N_2 
REMARK    2  A    between atoms: C_3  and  C_6 
REMARK    3  A    between atoms: C_6  and  O_10 
ROOT
HETATM    1  C   UNL     1      65.973   6.460   6.909  1.00  0.00     0.090 A 
HETATM    2  C   UNL     1      67.094   5.722   6.482  1.00  0.00     0.004 A 
HETATM    3  N   UNL     1      65.855   6.861   8.197  1.00  0.00    -0.356 N 
ATOM      4  HN  UNL     1      65.048   7.405   8.501  1.00  0.00     0.166 HD
HETATM    5  C   UNL     1      68.075   5.373   7.425  1.00  0.00     0.014 A 
HETATM    6  C   UNL     1      66.829   6.524   9.071  1.00  0.00     0.089 A 
HETATM    7  C   UNL     1      67.942   5.778   8.740  1.00  0.00     0.018 A 
ENDROOT
BRANCH   1   8
HETATM    8  N   UNL     1      64.998   6.854   5.989  1.00  0.00    -0.269 NA
HETATM    9  C   UNL     1      64.956   8.291   5.683  1.00  0.00     0.097 C 
HETATM   10  C   UNL     1      64.249   8.436   4.330  1.00  0.00     0.015 C 
HETATM   11  C   UNL     1      62.866   7.780   4.335  1.00  0.00     0.002 C 
HETATM   12  C   UNL     1      62.910   6.353   4.888  1.00  0.00     0.015 C 
HETATM   13  C   UNL     1      63.661   6.295   6.222  1.00  0.00     0.097 C 
ENDBRANCH   1   8
BRANCH   2  14
HETATM   14  C   UNL     1      67.338   5.367   5.035  1.00  0.00     0.206 C 
BRANCH  14  15
HETATM   15  O   UNL     1      67.669   6.517   4.259  1.00  0.00    -0.396 OA
HETATM   16  H   UNL     1      67.351   6.397   3.351  1.00  0.00     0.209 HD
ENDBRANCH  14  15
ENDBRANCH   2  14
TORSDOF 3
ENDMDL
MODEL 6
REMARK VINA RESULT:      -4.2      1.839      4.357
REMARK  3 active torsions:
REMARK  status: ('A' for Active; 'I' for Inactive)
REMARK    1  A    between atoms: C_1  and  N_2 
REMARK    2  A    between atoms: C_3  and  C_6 
REMARK    3  A    between atoms: C_6  and  O_10 
ROOT
HETATM    1  C   UNL     1      63.684   7.833   3.717  1.00  0.00     0.090 A 
HETATM    2  C   UNL     1      64.081   8.764   4.696  1.00  0.00     0.004 A 
HETATM    3  N   UNL     1      64.449   6.753   3.434  1.00  0.00    -0.356 N 
ATOM      4  HN  UNL     1      64.153   6.074   2.732  1.00  0.00     0.166 HD
HETATM    5  C   UNL     1      65.309   8.575   5.351  1.00  0.00     0.014 A 
HETATM    6  C   UNL     1      65.615   6.593   4.100  1.00  0.00     0.089 A 
HETATM    7  C   UNL     1      66.090   7.474   5.050  1.00  0.00     0.018 A 
ENDROOT
BRANCH   1   8
HETATM    8  N   UNL     1      62.452   7.972   3.073  1.00  0.00    -0.269 NA
HETATM    9  C   UNL     1      61.435   6.971   3.421  1.00  0.00     0.097 C 
HETATM   10  C   UNL     1      60.073   7.579   3.067  1.00  0.00     0.015 C 
HETATM   11  C   UNL     1      60.007   8.020   1.602  1.00  0.00     0.002 C 
HETATM   12  C   UNL     1      61.216   8.873   1.206  1.00  0.00     0.015 C 
HETATM   13  C   UNL     1      62.530   8.208   1.626  1.00  0.00     0.097 C 
ENDBRANCH   1   8
BRANCH   2  14
HETATM   14  C   UNL     1      63.204   9.908   5.142  1.00  0.00     0.206 C 
BRANCH  14  15
HETATM   15  O   UNL     1      63.946  10.893   5.858  1.00  0.00    -0.396 OA
HETATM   16  H   UNL     1      63.339  11.558   6.218  1.00  0.00     0.209 HD
ENDBRANCH  14  15
ENDBRANCH   2  14
TORSDOF 3
ENDMDL
MODEL 7
REMARK VINA RESULT:      -4.2      2.066      2.731
REMARK  3 active torsions:
REMARK  status: ('A' for Active; 'I' for Inactive)
REMARK    1  A    between atoms: C_1  and  N_2 
REMARK    2  A    between atoms: C_3  and  C_6 
REMARK    3  A    between atoms: C_6  and  O_10 
ROOT
HETATM    1  C   UNL     1      64.307   7.264   4.064  1.00  0.00     0.090 A 
HETATM    2  C   UNL     1      63.388   8.328   4.138  1.00  0.00     0.004 A 
HETATM    3  N   UNL     1      64.343   6.451   2.982  1.00  0.00    -0.356 N 
ATOM      4  HN  UNL     1      65.019   5.688   2.926  1.00  0.00     0.166 HD
HETATM    5  C   UNL     1      62.477   8.511   3.084  1.00  0.00     0.014 A 
HETATM    6  C   UNL     1      63.466   6.670   1.978  1.00  0.00     0.089 A 
HETATM    7  C   UNL     1      62.515   7.670   1.986  1.00  0.00     0.018 A 
ENDROOT
BRANCH   1   8
HETATM    8  N   UNL     1      65.249   7.077   5.079  1.00  0.00    -0.269 NA
HETATM    9  C   UNL     1      66.632   6.864   4.632  1.00  0.00     0.097 C 
HETATM   10  C   UNL     1      67.541   7.217   5.815  1.00  0.00     0.015 C 
HETATM   11  C   UNL     1      67.183   6.415   7.069  1.00  0.00     0.002 C 
HETATM   12  C   UNL     1      65.683   6.465   7.373  1.00  0.00     0.015 C 
HETATM   13  C   UNL     1      64.852   6.133   6.130  1.00  0.00     0.097 C 
ENDBRANCH   1   8
BRANCH   2  14
HETATM   14  C   UNL     1      63.395   9.341   5.257  1.00  0.00     0.206 C 
BRANCH  14  15
HETATM   15  O   UNL     1      64.717   9.775   5.567  1.00  0.00    -0.396 OA
HETATM   16  H   UNL     1      65.352   9.308   5.002  1.00  0.00     0.209 HD
ENDBRANCH  14  15
ENDBRANCH   2  14
TORSDOF 3
ENDMDL
MODEL 8
REMARK VINA RESULT:      -4.1      2.648      5.557
REMARK  3 active torsions:
REMARK  status: ('A' for Active; 'I' for Inactive)
REMARK    1  A    between atoms: C_1  and  N_2 
REMARK    2  A    between atoms: C_3  and  C_6 
REMARK    3  A    between atoms: C_6  and  O_10 
ROOT
HETATM    1  C   UNL     1      65.421   6.880   6.110  1.00  0.00     0.090 A 
HETATM    2  C   UNL     1      66.572   6.434   5.432  1.00  0.00     0.004 A 
HETATM    3  N   UNL     1      65.411   6.996   7.459  1.00  0.00    -0.356 N 
ATOM      4  HN  UNL     1      64.580   7.331   7.947  1.00  0.00     0.166 HD
HETATM    5  C   UNL     1      67.703   6.071   6.183  1.00  0.00     0.014 A 
HETATM    6  C   UNL     1      66.525   6.658   8.147  1.00  0.00     0.089 A 
HETATM    7  C   UNL     1      67.680   6.183   7.561  1.00  0.00     0.018 A 
ENDROOT
BRANCH   1   8
HETATM    8  N   UNL     1      64.293   7.283   5.391  1.00  0.00    -0.269 NA
HETATM    9  C   UNL     1      64.181   8.726   5.138  1.00  0.00     0.097 C 
HETATM   10  C   UNL     1      63.242   8.895   3.938  1.00  0.00     0.015 C 
HETATM   11  C   UNL     1      61.889   8.217   4.172  1.00  0.00     0.002 C 
HETATM   12  C   UNL     1      62.047   6.777   4.667  1.00  0.00     0.015 C 
HETATM   13  C   UNL     1      63.026   6.696   5.843  1.00  0.00     0.097 C 
ENDBRANCH   1   8
BRANCH   2  14
HETATM   14  C   UNL     1      66.681   6.415   3.927  1.00  0.00     0.206 C 
BRANCH  14  15
HETATM   15  O   UNL     1      65.560   5.769   3.326  1.00  0.00    -0.396 OA
HETATM   16  H   UNL     1      65.434   4.897   3.731  1.00  0.00     0.209 HD
ENDBRANCH  14  15
ENDBRANCH   2  14
TORSDOF 3
ENDMDL
MODEL 9
REMARK VINA RESULT:      -4.1      2.796      5.803
REMARK  3 active torsions:
REMARK  status: ('A' for Active; 'I' for Inactive)
REMARK    1  A    between atoms: C_1  and  N_2 
REMARK    2  A    between atoms: C_3  and  C_6 
REMARK    3  A    between atoms: C_6  and  O_10 
ROOT
HETATM    1  C   UNL     1      65.717   5.914   6.232  1.00  0.00     0.090 A 
HETATM    2  C   UNL     1      66.966   6.536   6.422  1.00  0.00     0.004 A 
HETATM    3  N   UNL     1      65.467   4.686   6.746  1.00  0.00    -0.356 N 
ATOM      4  HN  UNL     1      64.557   4.243   6.617  1.00  0.00     0.166 HD
HETATM    5  C   UNL     1      67.968   5.844   7.123  1.00  0.00     0.014 A 
HETATM    6  C   UNL     1      66.449   4.060   7.433  1.00  0.00     0.089 A 
HETATM    7  C   UNL     1      67.708   4.587   7.636  1.00  0.00     0.018 A 
ENDROOT
BRANCH   1   8
HETATM    8  N   UNL     1      64.688   6.589   5.571  1.00  0.00    -0.269 NA
HETATM    9  C   UNL     1      63.419   6.690   6.305  1.00  0.00     0.097 C 
HETATM   10  C   UNL     1      62.647   7.867   5.698  1.00  0.00     0.015 C 
HETATM   11  C   UNL     1      62.459   7.709   4.187  1.00  0.00     0.002 C 
HETATM   12  C   UNL     1      63.772   7.367   3.478  1.00  0.00     0.015 C 
HETATM   13  C   UNL     1      64.492   6.204   4.168  1.00  0.00     0.097 C 
ENDBRANCH   1   8
BRANCH   2  14
HETATM   14  C   UNL     1      67.250   7.953   5.987  1.00  0.00     0.206 C 
BRANCH  14  15
HETATM   15  O   UNL     1      66.266   8.862   6.476  1.00  0.00    -0.396 OA
HETATM   16  H   UNL     1      65.385   8.470   6.374  1.00  0.00     0.209 HD
ENDBRANCH  14  15
ENDBRANCH   2  14
TORSDOF 3
ENDMDL
