MODEL 1
REMARK VINA RESULT:      -5.4      0.000      0.000
REMARK  3 active torsions:
REMARK  status: ('A' for Active; 'I' for Inactive)
REMARK    1  A    between atoms: C_3  and  C_7 
REMARK    2  A    between atoms: C_5  and  C_11 
REMARK    3  A    between atoms: C_11  and  N_12 
ROOT
HETATM    1  N   UNL     1      65.245   8.014   6.215  1.00  0.00    -0.351 N 
ATOM      2  HN  UNL     1      65.704   8.925   6.249  1.00  0.00     0.166 HD
HETATM    3  C   UNL     1      64.122   7.758   5.507  1.00  0.00     0.084 A 
HETATM    4  S   UNL     1      63.671   6.143   5.656  1.00  0.00    -0.081 SA
HETATM    5  C   UNL     1      65.691   6.913   6.878  1.00  0.00     0.042 A 
HETATM    6  C   UNL     1      64.951   5.753   6.668  1.00  0.00     0.078 A 
ENDROOT
BRANCH   3   7
HETATM    7  C   UNL     1      63.386   8.781   4.737  1.00  0.00    -0.001 A 
HETATM    8  C   UNL     1      62.958   8.525   3.423  1.00  0.00     0.038 A 
HETATM    9  C   UNL     1      62.244   9.495   2.708  1.00  0.00     0.035 A 
HETATM   10 CL   UNL     1      61.671   9.150   1.086  1.00  0.00    -0.084 Cl
HETATM   11  C   UNL     1      61.979  10.737   3.291  1.00  0.00     0.024 A 
HETATM   12  C   UNL     1      62.412  11.004   4.592  1.00  0.00     0.003 A 
HETATM   13  C   UNL     1      63.099  10.028   5.319  1.00  0.00     0.014 A 
ENDBRANCH   3   7
BRANCH   5  14
HETATM   14  C   UNL     1      66.873   6.960   7.797  1.00  0.00     0.286 C 
BRANCH  14  15
HETATM   15  N   UNL     1      68.075   6.534   7.082  1.00  0.00    -0.074 N 
HETATM   16  H   UNL     1      67.809   6.107   6.195  1.00  0.00     0.274 HD
HETATM   17  H   UNL     1      68.584   5.856   7.648  1.00  0.00     0.274 HD
HETATM   18  H   UNL     1      68.669   7.344   6.905  1.00  0.00     0.274 HD
ENDBRANCH  14  15
ENDBRANCH   5  14
TORSDOF 3
ENDMDL
MODEL 2
REMARK VINA RESULT:      -5.2      3.338      5.940
REMARK  3 active torsions:
REMARK  status: ('A' for Active; 'I' for Inactive)
REMARK    1  A    between atoms: C_3  and  C_7 
REMARK    2  A    between atoms: C_5  and  C_11 
REMARK    3  A    between atoms: C_11  and  N_12 
ROOT
HETATM    1  N   UNL     1      64.346   9.013   5.729  1.00  0.00    -0.351 N 
ATOM      2  HN  UNL     1      64.764   9.388   6.580  1.00  0.00     0.166 HD
HETATM    3  C   UNL     1      64.702   7.838   5.163  1.00  0.00     0.084 A 
HETATM    4  S   UNL     1      63.778   7.524   3.792  1.00  0.00    -0.081 SA
HETATM    5  C   UNL     1      63.361   9.637   5.027  1.00  0.00     0.042 A 
HETATM    6  C   UNL     1      62.892   8.942   3.916  1.00  0.00     0.078 A 
ENDROOT
BRANCH   3   7
HETATM    7  C   UNL     1      65.785   6.975   5.678  1.00  0.00    -0.001 A 
HETATM    8  C   UNL     1      66.171   7.030   7.028  1.00  0.00     0.038 A 
HETATM    9  C   UNL     1      67.186   6.194   7.510  1.00  0.00     0.035 A 
HETATM   10 CL   UNL     1      67.628   6.233   9.208  1.00  0.00    -0.084 Cl
HETATM   11  C   UNL     1      67.842   5.319   6.639  1.00  0.00     0.024 A 
HETATM   12  C   UNL     1      67.474   5.269   5.293  1.00  0.00     0.003 A 
HETATM   13  C   UNL     1      66.441   6.079   4.814  1.00  0.00     0.014 A 
ENDBRANCH   3   7
BRANCH   5  14
HETATM   14  C   UNL     1      62.849  10.993   5.405  1.00  0.00     0.286 C 
BRANCH  14  15
HETATM   15  N   UNL     1      63.731  11.596   6.402  1.00  0.00    -0.074 N 
HETATM   16  H   UNL     1      63.775  12.604   6.253  1.00  0.00     0.274 HD
HETATM   17  H   UNL     1      64.665  11.198   6.315  1.00  0.00     0.274 HD
HETATM   18  H   UNL     1      63.366  11.407   7.336  1.00  0.00     0.274 HD
ENDBRANCH  14  15
ENDBRANCH   5  14
TORSDOF 3
ENDMDL
MODEL 3
REMARK VINA RESULT:      -5.2      1.560      2.273
REMARK  3 active torsions:
REMARK  status: ('A' for Active; 'I' for Inactive)
REMARK    1  A    between atoms: C_3  and  C_7 
REMARK    2  A    between atoms: C_5  and  C_11 
REMARK    3  A    between atoms: C_11  and  N_12 
ROOT
HETATM    1  N   UNL     1      65.071   7.801   4.760  1.00  0.00    -0.351 N 
ATOM      2  HN  UNL     1      65.734   8.239   4.121  1.00  0.00     0.166 HD
HETATM    3  C   UNL     1      63.747   7.683   4.514  1.00  0.00     0.084 A 
HETATM    4  S   UNL     1      62.969   6.877   5.770  1.00  0.00    -0.081 SA
HETATM    5  C   UNL     1      65.414   7.265   5.963  1.00  0.00     0.042 A 
HETATM    6  C   UNL     1      64.370   6.674   6.669  1.00  0.00     0.078 A 
ENDROOT
BRANCH   3   7
HETATM    7  C   UNL     1      63.085   8.227   3.311  1.00  0.00    -0.001 A 
HETATM    8  C   UNL     1      62.685   9.573   3.254  1.00  0.00     0.038 A 
HETATM    9  C   UNL     1      62.075  10.083   2.101  1.00  0.00     0.035 A 
HETATM   10 CL   UNL     1      61.623  11.777   2.019  1.00  0.00    -0.084 Cl
HETATM   11  C   UNL     1      61.833   9.244   1.009  1.00  0.00     0.024 A 
HETATM   12  C   UNL     1      62.215   7.902   1.064  1.00  0.00     0.003 A 
HETATM   13  C   UNL     1      62.851   7.396   2.201  1.00  0.00     0.014 A 
ENDBRANCH   3   7
BRANCH   5  14
HETATM   14  C   UNL     1      66.810   7.343   6.502  1.00  0.00     0.286 C 
BRANCH  14  15
HETATM   15  N   UNL     1      66.994   8.600   7.223  1.00  0.00    -0.074 N 
HETATM   16  H   UNL     1      67.317   9.319   6.576  1.00  0.00     0.274 HD
HETATM   17  H   UNL     1      67.687   8.470   7.960  1.00  0.00     0.274 HD
HETATM   18  H   UNL     1      66.107   8.887   7.636  1.00  0.00     0.274 HD
ENDBRANCH  14  15
ENDBRANCH   5  14
TORSDOF 3
ENDMDL
MODEL 4
REMARK VINA RESULT:      -5.1      1.909      2.431
REMARK  3 active torsions:
REMARK  status: ('A' for Active; 'I' for Inactive)
REMARK    1  A    between atoms: C_3  and  C_7 
REMARK    2  A    between atoms: C_5  and  C_11 
REMARK    3  A    between atoms: C_11  and  N_12 
ROOT
HETATM    1  N   UNL     1      65.075   7.252   6.901  1.00  0.00    -0.351 N 
ATOM      2  HN  UNL     1      64.169   7.296   7.368  1.00  0.00     0.166 HD
HETATM    3  C   UNL     1      65.302   7.698   5.645  1.00  0.00     0.084 A 
HETATM    4  S   UNL     1      66.918   7.497   5.216  1.00  0.00    -0.081 SA
HETATM    5  C   UNL     1      66.200   6.739   7.469  1.00  0.00     0.042 A 
HETATM    6  C   UNL     1      67.347   6.811   6.685  1.00  0.00     0.078 A 
ENDROOT
BRANCH   3   7
HETATM    7  C   UNL     1      64.250   8.252   4.768  1.00  0.00    -0.001 A 
HETATM    8  C   UNL     1      63.695   9.518   5.021  1.00  0.00     0.038 A 
HETATM    9  C   UNL     1      62.712  10.043   4.173  1.00  0.00     0.035 A 
HETATM   10 CL   UNL     1      62.058  11.645   4.467  1.00  0.00    -0.084 Cl
HETATM   11  C   UNL     1      62.256   9.294   3.084  1.00  0.00     0.024 A 
HETATM   12  C   UNL     1      62.793   8.029   2.835  1.00  0.00     0.003 A 
HETATM   13  C   UNL     1      63.796   7.514   3.661  1.00  0.00     0.014 A 
ENDBRANCH   3   7
BRANCH   5  14
HETATM   14  C   UNL     1      66.190   6.108   8.828  1.00  0.00     0.286 C 
BRANCH  14  15
HETATM   15  N   UNL     1      66.519   4.689   8.718  1.00  0.00    -0.074 N 
HETATM   16  H   UNL     1      65.987   4.274   7.953  1.00  0.00     0.274 HD
HETATM   17  H   UNL     1      66.284   4.217   9.591  1.00  0.00     0.274 HD
HETATM   18  H   UNL     1      67.517   4.585   8.533  1.00  0.00     0.274 HD
ENDBRANCH  14  15
ENDBRANCH   5  14
TORSDOF 3
ENDMDL
MODEL 5
REMARK VINA RESULT:      -4.3      3.684      5.243
REMARK  3 active torsions:
REMARK  status: ('A' for Active; 'I' for Inactive)
REMARK    1  A    between atoms: C_3  and  C_7 
REMARK    2  A    between atoms: C_5  and  C_11 
REMARK    3  A    between atoms: C_11  and  N_12 
ROOT
HETATM    1  N   UNL     1      61.285   9.759   3.680  1.00  0.00    -0.351 N 
ATOM      2  HN  UNL     1      60.512  10.414   3.561  1.00  0.00     0.166 HD
HETATM    3  C   UNL     1      61.316   8.518   3.143  1.00  0.00     0.084 A 
HETATM    4  S   UNL     1      62.758   7.735   3.518  1.00  0.00    -0.081 SA
HETATM    5  C   UNL     1      62.409  10.031   4.398  1.00  0.00     0.042 A 
HETATM    6  C   UNL     1      63.368   9.022   4.404  1.00  0.00     0.078 A 
ENDROOT
BRANCH   3   7
HETATM    7  C   UNL     1      60.207   7.934   2.363  1.00  0.00    -0.001 A 
HETATM    8  C   UNL     1      59.007   7.554   2.989  1.00  0.00     0.038 A 
HETATM    9  C   UNL     1      57.954   7.018   2.237  1.00  0.00     0.035 A 
HETATM   10 CL   UNL     1      56.441   6.592   3.018  1.00  0.00    -0.084 Cl
HETATM   11  C   UNL     1      58.104   6.831   0.860  1.00  0.00     0.024 A 
HETATM   12  C   UNL     1      59.298   7.193   0.233  1.00  0.00     0.003 A 
HETATM   13  C   UNL     1      60.341   7.756   0.975  1.00  0.00     0.014 A 
ENDBRANCH   3   7
BRANCH   5  14
HETATM   14  C   UNL     1      62.579  11.310   5.158  1.00  0.00     0.286 C 
BRANCH  14  15
HETATM   15  N   UNL     1      63.688  11.183   6.102  1.00  0.00    -0.074 N 
HETATM   16  H   UNL     1      63.750  10.218   6.425  1.00  0.00     0.274 HD
HETATM   17  H   UNL     1      63.528  11.799   6.898  1.00  0.00     0.274 HD
HETATM   18  H   UNL     1      64.559  11.444   5.639  1.00  0.00     0.274 HD
ENDBRANCH  14  15
ENDBRANCH   5  14
TORSDOF 3
ENDMDL
MODEL 6
REMARK VINA RESULT:      -4.3      3.585      6.075
REMARK  3 active torsions:
REMARK  status: ('A' for Active; 'I' for Inactive)
REMARK    1  A    between atoms: C_3  and  C_7 
REMARK    2  A    between atoms: C_5  and  C_11 
REMARK    3  A    between atoms: C_11  and  N_12 
ROOT
HETATM    1  N   UNL     1      63.718   7.771   3.419  1.00  0.00    -0.351 N 
ATOM      2  HN  UNL     1      64.103   6.978   2.905  1.00  0.00     0.166 HD
HETATM    3  C   UNL     1      64.236   8.249   4.573  1.00  0.00     0.084 A 
HETATM    4  S   UNL     1      63.364   9.582   5.118  1.00  0.00    -0.081 SA
HETATM    5  C   UNL     1      62.621   8.472   3.025  1.00  0.00     0.042 A 
HETATM    6  C   UNL     1      62.279   9.548   3.840  1.00  0.00     0.078 A 
ENDROOT
BRANCH   3   7
HETATM    7  C   UNL     1      65.394   7.647   5.264  1.00  0.00    -0.001 A 
HETATM    8  C   UNL     1      65.278   7.167   6.580  1.00  0.00     0.038 A 
HETATM    9  C   UNL     1      66.377   6.581   7.220  1.00  0.00     0.035 A 
HETATM   10 CL   UNL     1      66.211   5.939   8.845  1.00  0.00    -0.084 Cl
HETATM   11  C   UNL     1      67.607   6.497   6.560  1.00  0.00     0.024 A 
HETATM   12  C   UNL     1      67.733   6.985   5.258  1.00  0.00     0.003 A 
HETATM   13  C   UNL     1      66.631   7.543   4.604  1.00  0.00     0.014 A 
ENDBRANCH   3   7
BRANCH   5  14
HETATM   14  C   UNL     1      61.818   8.087   1.820  1.00  0.00     0.286 C 
BRANCH  14  15
HETATM   15  N   UNL     1      60.776   9.082   1.579  1.00  0.00    -0.074 N 
HETATM   16  H   UNL     1      59.957   8.627   1.178  1.00  0.00     0.274 HD
HETATM   17  H   UNL     1      61.123   9.789   0.931  1.00  0.00     0.274 HD
HETATM   18  H   UNL     1      60.520   9.526   2.461  1.00  0.00     0.274 HD
ENDBRANCH  14  15
ENDBRANCH   5  14
TORSDOF 3
ENDMDL
MODEL 7
REMARK VINA RESULT:      -4.3      4.244      6.267
REMARK  3 active torsions:
REMARK  status: ('A' for Active; 'I' for Inactive)
REMARK    1  A    between atoms: C_3  and  C_7 
REMARK    2  A    between atoms: C_5  and  C_11 
REMARK    3  A    between atoms: C_11  and  N_12 
ROOT
HETATM    1  N   UNL     1      59.784   8.032   2.689  1.00  0.00    -0.351 N 
ATOM      2  HN  UNL     1      59.379   8.019   3.626  1.00  0.00     0.166 HD
HETATM    3  C   UNL     1      61.019   8.501   2.404  1.00  0.00     0.084 A 
HETATM    4  S   UNL     1      61.365   8.332   0.766  1.00  0.00    -0.081 SA
HETATM    5  C   UNL     1      59.144   7.577   1.578  1.00  0.00     0.042 A 
HETATM    6  C   UNL     1      59.883   7.639   0.400  1.00  0.00     0.078 A 
ENDROOT
BRANCH   3   7
HETATM    7  C   UNL     1      61.918   9.109   3.407  1.00  0.00    -0.001 A 
HETATM    8  C   UNL     1      63.009   8.391   3.927  1.00  0.00     0.038 A 
HETATM    9  C   UNL     1      63.865   8.984   4.863  1.00  0.00     0.035 A 
HETATM   10 CL   UNL     1      65.254   8.098   5.470  1.00  0.00    -0.084 Cl
HETATM   11  C   UNL     1      63.620  10.286   5.308  1.00  0.00     0.024 A 
HETATM   12  C   UNL     1      62.530  11.000   4.806  1.00  0.00     0.003 A 
HETATM   13  C   UNL     1      61.690  10.424   3.849  1.00  0.00     0.014 A 
ENDBRANCH   3   7
BRANCH   5  14
HETATM   14  C   UNL     1      57.731   7.081   1.619  1.00  0.00     0.286 C 
BRANCH  14  15
HETATM   15  N   UNL     1      57.193   7.223   2.970  1.00  0.00    -0.074 N 
HETATM   16  H   UNL     1      56.649   6.395   3.209  1.00  0.00     0.274 HD
HETATM   17  H   UNL     1      56.595   8.048   3.012  1.00  0.00     0.274 HD
HETATM   18  H   UNL     1      57.963   7.327   3.632  1.00  0.00     0.274 HD
ENDBRANCH  14  15
ENDBRANCH   5  14
TORSDOF 3
ENDMDL
MODEL 8
REMARK VINA RESULT:      -4.2      9.419     11.063
REMARK  3 active torsions:
REMARK  status: ('A' for Active; 'I' for Inactive)
REMARK    1  A    between atoms: C_3  and  C_7 
REMARK    2  A    between atoms: C_5  and  C_11 
REMARK    3  A    between atoms: C_11  and  N_12 
ROOT
HETATM    1  N   UNL     1      58.647   4.334  10.029  1.00  0.00    -0.351 N 
ATOM      2  HN  UNL     1      58.435   5.091  10.679  1.00  0.00     0.166 HD
HETATM    3  C   UNL     1      58.584   3.022  10.347  1.00  0.00     0.084 A 
HETATM    4  S   UNL     1      58.965   2.060   9.019  1.00  0.00    -0.081 SA
HETATM    5  C   UNL     1      59.026   4.526   8.736  1.00  0.00     0.042 A 
HETATM    6  C   UNL     1      59.227   3.363   7.998  1.00  0.00     0.078 A 
ENDROOT
BRANCH   3   7
HETATM    7  C   UNL     1      58.255   2.520  11.697  1.00  0.00    -0.001 A 
HETATM    8  C   UNL     1      56.948   2.623  12.206  1.00  0.00     0.038 A 
HETATM    9  C   UNL     1      56.643   2.127  13.479  1.00  0.00     0.035 A 
HETATM   10 CL   UNL     1      54.999   2.215  14.088  1.00  0.00    -0.084 Cl
HETATM   11  C   UNL     1      57.646   1.552  14.264  1.00  0.00     0.024 A 
HETATM   12  C   UNL     1      58.949   1.458  13.771  1.00  0.00     0.003 A 
HETATM   13  C   UNL     1      59.253   1.925  12.489  1.00  0.00     0.014 A 
ENDBRANCH   3   7
BRANCH   5  14
HETATM   14  C   UNL     1      59.248   5.893   8.165  1.00  0.00     0.286 C 
BRANCH  14  15
HETATM   15  N   UNL     1      58.592   6.894   9.003  1.00  0.00    -0.074 N 
HETATM   16  H   UNL     1      59.133   7.758   8.988  1.00  0.00     0.274 HD
HETATM   17  H   UNL     1      58.530   6.547   9.960  1.00  0.00     0.274 HD
HETATM   18  H   UNL     1      57.653   7.074   8.645  1.00  0.00     0.274 HD
ENDBRANCH  14  15
ENDBRANCH   5  14
TORSDOF 3
ENDMDL
MODEL 9
REMARK VINA RESULT:      -4.1      4.078      5.073
REMARK  3 active torsions:
REMARK  status: ('A' for Active; 'I' for Inactive)
REMARK    1  A    between atoms: C_3  and  C_7 
REMARK    2  A    between atoms: C_5  and  C_11 
REMARK    3  A    between atoms: C_11  and  N_12 
ROOT
HETATM    1  N   UNL     1      59.832   6.737   4.625  1.00  0.00    -0.351 N 
ATOM      2  HN  UNL     1      59.039   6.919   4.009  1.00  0.00     0.166 HD
HETATM    3  C   UNL     1      61.090   7.174   4.390  1.00  0.00     0.084 A 
HETATM    4  S   UNL     1      62.129   6.717   5.633  1.00  0.00    -0.081 SA
HETATM    5  C   UNL     1      59.748   6.025   5.781  1.00  0.00     0.042 A 
HETATM    6  C   UNL     1      60.934   5.925   6.503  1.00  0.00     0.078 A 
ENDROOT
BRANCH   3   7
HETATM    7  C   UNL     1      61.486   7.924   3.181  1.00  0.00    -0.001 A 
HETATM    8  C   UNL     1      61.432   9.328   3.153  1.00  0.00     0.038 A 
HETATM    9  C   UNL     1      61.827  10.030   2.007  1.00  0.00     0.035 A 
HETATM   10 CL   UNL     1      61.804  11.785   1.997  1.00  0.00    -0.084 Cl
HETATM   11  C   UNL     1      62.250   9.332   0.872  1.00  0.00     0.024 A 
HETATM   12  C   UNL     1      62.294   7.936   0.887  1.00  0.00     0.003 A 
HETATM   13  C   UNL     1      61.928   7.233   2.039  1.00  0.00     0.014 A 
ENDBRANCH   3   7
BRANCH   5  14
HETATM   14  C   UNL     1      58.478   5.365   6.221  1.00  0.00     0.286 C 
BRANCH  14  15
HETATM   15  N   UNL     1      57.396   6.346   6.258  1.00  0.00    -0.074 N 
HETATM   16  H   UNL     1      57.309   6.722   7.202  1.00  0.00     0.274 HD
HETATM   17  H   UNL     1      56.521   5.898   5.988  1.00  0.00     0.274 HD
HETATM   18  H   UNL     1      57.604   7.105   5.608  1.00  0.00     0.274 HD
ENDBRANCH  14  15
ENDBRANCH   5  14
TORSDOF 3
ENDMDL
