MODEL 1
REMARK VINA RESULT:      -4.2      0.000      0.000
REMARK  1 active torsions:
REMARK  status: ('A' for Active; 'I' for Inactive)
REMARK    1  A    between atoms: C_2  and  N_10 
ROOT
HETATM    1  C   UNL     1      63.835   9.292   4.994  1.00  0.00     0.093 A 
HETATM    2  C   UNL     1      63.159  10.531   5.235  1.00  0.00     0.062 A 
HETATM    3  C   UNL     1      63.312   8.645   3.874  1.00  0.00     0.103 A 
HETATM    4  S   UNL     1      62.045   9.521   3.148  1.00  0.00    -0.080 SA
HETATM    5  C   UNL     1      62.170  10.777   4.312  1.00  0.00     0.083 A 
HETATM    6  N   UNL     1      64.865   8.749   5.718  1.00  0.00    -0.361 N 
ATOM      7  HN  UNL     1      65.270   9.196   6.540  1.00  0.00     0.165 HD
HETATM    8  N   UNL     1      63.736   7.455   3.385  1.00  0.00    -0.357 N 
ATOM      9  HN  UNL     1      63.339   7.001   2.563  1.00  0.00     0.166 HD
HETATM   10  C   UNL     1      65.290   7.561   5.234  1.00  0.00     0.105 A 
HETATM   11  C   UNL     1      64.749   6.943   4.117  1.00  0.00     0.106 A 
ENDROOT
BRANCH   2  12
HETATM   12  N   UNL     1      63.453  11.369   6.252  1.00  0.00    -0.397 N 
HETATM   13  H   UNL     1      63.942  12.205   6.075  1.00  0.00     0.156 HD
HETATM   14  H   UNL     1      63.179  11.144   7.170  1.00  0.00     0.156 HD
ENDBRANCH   2  12
TORSDOF 1
ENDMDL
MODEL 2
REMARK VINA RESULT:      -4.0      1.402      3.211
REMARK  1 active torsions:
REMARK  status: ('A' for Active; 'I' for Inactive)
REMARK    1  A    between atoms: C_2  and  N_10 
ROOT
HETATM    1  C   UNL     1      64.040   9.085   5.042  1.00  0.00     0.093 A 
HETATM    2  C   UNL     1      65.076   8.168   5.410  1.00  0.00     0.062 A 
HETATM    3  C   UNL     1      63.331   8.621   3.934  1.00  0.00     0.103 A 
HETATM    4  S   UNL     1      63.912   7.124   3.369  1.00  0.00    -0.080 SA
HETATM    5  C   UNL     1      65.118   7.065   4.589  1.00  0.00     0.083 A 
HETATM    6  N   UNL     1      63.725  10.275   5.647  1.00  0.00    -0.361 N 
ATOM      7  HN  UNL     1      64.223  10.640   6.458  1.00  0.00     0.165 HD
HETATM    8  N   UNL     1      62.292   9.259   3.344  1.00  0.00    -0.357 N 
ATOM      9  HN  UNL     1      61.787   8.900   2.534  1.00  0.00     0.166 HD
HETATM   10  C   UNL     1      62.690  10.914   5.060  1.00  0.00     0.105 A 
HETATM   11  C   UNL     1      62.004  10.427   3.958  1.00  0.00     0.106 A 
ENDROOT
BRANCH   2  12
HETATM   12  N   UNL     1      65.922   8.356   6.446  1.00  0.00    -0.397 N 
HETATM   13  H   UNL     1      66.249   9.260   6.657  1.00  0.00     0.156 HD
HETATM   14  H   UNL     1      66.213   7.588   6.989  1.00  0.00     0.156 HD
ENDBRANCH   2  12
TORSDOF 1
ENDMDL
MODEL 3
REMARK VINA RESULT:      -3.8      2.024      3.221
REMARK  1 active torsions:
REMARK  status: ('A' for Active; 'I' for Inactive)
REMARK    1  A    between atoms: C_2  and  N_10 
ROOT
HETATM    1  C   UNL     1      62.576  10.023   3.934  1.00  0.00     0.093 A 
HETATM    2  C   UNL     1      63.028   9.828   5.278  1.00  0.00     0.062 A 
HETATM    3  C   UNL     1      62.743   8.864   3.175  1.00  0.00     0.103 A 
HETATM    4  S   UNL     1      63.426   7.590   4.075  1.00  0.00    -0.080 SA
HETATM    5  C   UNL     1      63.511   8.557   5.490  1.00  0.00     0.083 A 
HETATM    6  N   UNL     1      62.039  11.162   3.391  1.00  0.00    -0.361 N 
ATOM      7  HN  UNL     1      61.903  12.024   3.918  1.00  0.00     0.165 HD
HETATM    8  N   UNL     1      62.413   8.726   1.869  1.00  0.00    -0.357 N 
ATOM      9  HN  UNL     1      62.544   7.867   1.334  1.00  0.00     0.166 HD
HETATM   10  C   UNL     1      61.710  11.028   2.087  1.00  0.00     0.105 A 
HETATM   11  C   UNL     1      61.889   9.862   1.360  1.00  0.00     0.106 A 
ENDROOT
BRANCH   2  12
HETATM   12  N   UNL     1      62.987  10.778   6.237  1.00  0.00    -0.397 N 
HETATM   13  H   UNL     1      63.304  11.689   6.040  1.00  0.00     0.156 HD
HETATM   14  H   UNL     1      62.642  10.558   7.132  1.00  0.00     0.156 HD
ENDBRANCH   2  12
TORSDOF 1
ENDMDL
MODEL 4
REMARK VINA RESULT:      -3.7      2.249      3.727
REMARK  1 active torsions:
REMARK  status: ('A' for Active; 'I' for Inactive)
REMARK    1  A    between atoms: C_2  and  N_10 
ROOT
HETATM    1  C   UNL     1      65.443   8.166   5.432  1.00  0.00     0.093 A 
HETATM    2  C   UNL     1      66.643   7.935   6.177  1.00  0.00     0.062 A 
HETATM    3  C   UNL     1      65.329   7.264   4.373  1.00  0.00     0.103 A 
HETATM    4  S   UNL     1      66.639   6.179   4.298  1.00  0.00    -0.080 SA
HETATM    5  C   UNL     1      67.382   6.889   5.673  1.00  0.00     0.083 A 
HETATM    6  N   UNL     1      64.488   9.122   5.663  1.00  0.00    -0.361 N 
ATOM      7  HN  UNL     1      64.541   9.794   6.428  1.00  0.00     0.165 HD
HETATM    8  N   UNL     1      64.308   7.222   3.484  1.00  0.00    -0.357 N 
ATOM      9  HN  UNL     1      64.246   6.552   2.717  1.00  0.00     0.166 HD
HETATM   10  C   UNL     1      63.468   9.083   4.777  1.00  0.00     0.105 A 
HETATM   11  C   UNL     1      63.383   8.174   3.734  1.00  0.00     0.106 A 
ENDROOT
BRANCH   2  12
HETATM   12  N   UNL     1      67.016   8.656   7.256  1.00  0.00    -0.397 N 
HETATM   13  H   UNL     1      67.098   9.635   7.190  1.00  0.00     0.156 HD
HETATM   14  H   UNL     1      67.206   8.202   8.109  1.00  0.00     0.156 HD
ENDBRANCH   2  12
TORSDOF 1
ENDMDL
MODEL 5
REMARK VINA RESULT:      -3.7      2.390      3.984
REMARK  1 active torsions:
REMARK  status: ('A' for Active; 'I' for Inactive)
REMARK    1  A    between atoms: C_2  and  N_10 
ROOT
HETATM    1  C   UNL     1      61.689   9.320   3.557  1.00  0.00     0.093 A 
HETATM    2  C   UNL     1      61.119   8.323   2.702  1.00  0.00     0.062 A 
HETATM    3  C   UNL     1      62.435   8.736   4.581  1.00  0.00     0.103 A 
HETATM    4  S   UNL     1      62.437   7.035   4.496  1.00  0.00    -0.080 SA
HETATM    5  C   UNL     1      61.445   7.046   3.095  1.00  0.00     0.083 A 
HETATM    6  N   UNL     1      61.564  10.682   3.450  1.00  0.00    -0.361 N 
ATOM      7  HN  UNL     1      61.027  11.140   2.714  1.00  0.00     0.165 HD
HETATM    8  N   UNL     1      63.099   9.408   5.551  1.00  0.00    -0.357 N 
ATOM      9  HN  UNL     1      63.640   8.959   6.290  1.00  0.00     0.166 HD
HETATM   10  C   UNL     1      62.225  11.356   4.417  1.00  0.00     0.105 A 
HETATM   11  C   UNL     1      62.959  10.745   5.422  1.00  0.00     0.106 A 
ENDROOT
BRANCH   2  12
HETATM   12  N   UNL     1      60.347   8.597   1.629  1.00  0.00    -0.397 N 
HETATM   13  H   UNL     1      60.239   7.925   0.916  1.00  0.00     0.156 HD
HETATM   14  H   UNL     1      59.894   9.468   1.557  1.00  0.00     0.156 HD
ENDBRANCH   2  12
TORSDOF 1
ENDMDL
MODEL 6
REMARK VINA RESULT:      -3.7      4.082      5.265
REMARK  1 active torsions:
REMARK  status: ('A' for Active; 'I' for Inactive)
REMARK    1  A    between atoms: C_2  and  N_10 
ROOT
HETATM    1  C   UNL     1      66.378   6.376   7.460  1.00  0.00     0.093 A 
HETATM    2  C   UNL     1      65.528   7.133   6.591  1.00  0.00     0.062 A 
HETATM    3  C   UNL     1      65.943   5.054   7.558  1.00  0.00     0.103 A 
HETATM    4  S   UNL     1      64.552   4.754   6.623  1.00  0.00    -0.080 SA
HETATM    5  C   UNL     1      64.503   6.379   6.070  1.00  0.00     0.083 A 
HETATM    6  N   UNL     1      67.484   6.818   8.138  1.00  0.00    -0.361 N 
ATOM      7  HN  UNL     1      67.828   7.777   8.087  1.00  0.00     0.165 HD
HETATM    8  N   UNL     1      66.533   4.087   8.300  1.00  0.00    -0.357 N 
ATOM      9  HN  UNL     1      66.198   3.125   8.356  1.00  0.00     0.166 HD
HETATM   10  C   UNL     1      68.075   5.856   8.880  1.00  0.00     0.105 A 
HETATM   11  C   UNL     1      67.619   4.549   8.958  1.00  0.00     0.106 A 
ENDROOT
BRANCH   2  12
HETATM   12  N   UNL     1      65.706   8.442   6.308  1.00  0.00    -0.397 N 
HETATM   13  H   UNL     1      64.937   8.998   6.047  1.00  0.00     0.156 HD
HETATM   14  H   UNL     1      66.606   8.838   6.362  1.00  0.00     0.156 HD
ENDBRANCH   2  12
TORSDOF 1
ENDMDL
MODEL 7
REMARK VINA RESULT:      -3.6      1.721      4.024
REMARK  1 active torsions:
REMARK  status: ('A' for Active; 'I' for Inactive)
REMARK    1  A    between atoms: C_2  and  N_10 
ROOT
HETATM    1  C   UNL     1      63.358   8.597   3.879  1.00  0.00     0.093 A 
HETATM    2  C   UNL     1      63.883   7.357   3.394  1.00  0.00     0.062 A 
HETATM    3  C   UNL     1      64.039   9.017   5.022  1.00  0.00     0.103 A 
HETATM    4  S   UNL     1      65.270   7.934   5.481  1.00  0.00    -0.080 SA
HETATM    5  C   UNL     1      64.920   6.888   4.166  1.00  0.00     0.083 A 
HETATM    6  N   UNL     1      62.330   9.334   3.347  1.00  0.00    -0.361 N 
ATOM      7  HN  UNL     1      61.814   9.056   2.513  1.00  0.00     0.165 HD
HETATM    8  N   UNL     1      63.782  10.150   5.718  1.00  0.00    -0.357 N 
ATOM      9  HN  UNL     1      64.294  10.438   6.552  1.00  0.00     0.166 HD
HETATM   10  C   UNL     1      62.071  10.464   4.040  1.00  0.00     0.105 A 
HETATM   11  C   UNL     1      62.766  10.855   5.174  1.00  0.00     0.106 A 
ENDROOT
BRANCH   2  12
HETATM   12  N   UNL     1      63.418   6.713   2.302  1.00  0.00    -0.397 N 
HETATM   13  H   UNL     1      62.968   7.218   1.586  1.00  0.00     0.156 HD
HETATM   14  H   UNL     1      63.530   5.738   2.222  1.00  0.00     0.156 HD
ENDBRANCH   2  12
TORSDOF 1
ENDMDL
MODEL 8
REMARK VINA RESULT:      -3.6      1.651      3.457
REMARK  1 active torsions:
REMARK  status: ('A' for Active; 'I' for Inactive)
REMARK    1  A    between atoms: C_2  and  N_10 
ROOT
HETATM    1  C   UNL     1      63.142   9.017   4.107  1.00  0.00     0.093 A 
HETATM    2  C   UNL     1      63.561   7.721   3.667  1.00  0.00     0.062 A 
HETATM    3  C   UNL     1      62.312   9.623   3.163  1.00  0.00     0.103 A 
HETATM    4  S   UNL     1      62.057   8.641   1.795  1.00  0.00    -0.080 SA
HETATM    5  C   UNL     1      63.046   7.393   2.434  1.00  0.00     0.083 A 
HETATM    6  N   UNL     1      63.468   9.646   5.281  1.00  0.00    -0.361 N 
ATOM      7  HN  UNL     1      64.071   9.231   5.991  1.00  0.00     0.165 HD
HETATM    8  N   UNL     1      61.751  10.850   3.283  1.00  0.00    -0.357 N 
ATOM      9  HN  UNL     1      61.146  11.272   2.580  1.00  0.00     0.166 HD
HETATM   10  C   UNL     1      62.911  10.871   5.403  1.00  0.00     0.105 A 
HETATM   11  C   UNL     1      62.089  11.446   4.447  1.00  0.00     0.106 A 
ENDROOT
BRANCH   2  12
HETATM   12  N   UNL     1      64.369   6.904   4.376  1.00  0.00    -0.397 N 
HETATM   13  H   UNL     1      64.349   5.933   4.218  1.00  0.00     0.156 HD
HETATM   14  H   UNL     1      64.978   7.281   5.052  1.00  0.00     0.156 HD
ENDBRANCH   2  12
TORSDOF 1
ENDMDL
MODEL 9
REMARK VINA RESULT:      -3.6      2.643      3.485
REMARK  1 active torsions:
REMARK  status: ('A' for Active; 'I' for Inactive)
REMARK    1  A    between atoms: C_2  and  N_10 
ROOT
HETATM    1  C   UNL     1      62.188   9.387   2.081  1.00  0.00     0.093 A 
HETATM    2  C   UNL     1      61.945  10.637   2.734  1.00  0.00     0.062 A 
HETATM    3  C   UNL     1      62.651   8.430   2.985  1.00  0.00     0.103 A 
HETATM    4  S   UNL     1      62.780   9.041   4.570  1.00  0.00    -0.080 SA
HETATM    5  C   UNL     1      62.223  10.589   4.080  1.00  0.00     0.083 A 
HETATM    6  N   UNL     1      62.015   9.091   0.753  1.00  0.00    -0.361 N 
ATOM      7  HN  UNL     1      61.678   9.766   0.067  1.00  0.00     0.165 HD
HETATM    8  N   UNL     1      62.971   7.150   2.679  1.00  0.00    -0.357 N 
ATOM      9  HN  UNL     1      63.307   6.467   3.358  1.00  0.00     0.166 HD
HETATM   10  C   UNL     1      62.335   7.815   0.444  1.00  0.00     0.105 A 
HETATM   11  C   UNL     1      62.792   6.887   1.366  1.00  0.00     0.106 A 
ENDROOT
BRANCH   2  12
HETATM   12  N   UNL     1      61.492  11.744   2.108  1.00  0.00    -0.397 N 
HETATM   13  H   UNL     1      61.559  11.818   1.128  1.00  0.00     0.156 HD
HETATM   14  H   UNL     1      61.096  12.478   2.631  1.00  0.00     0.156 HD
ENDBRANCH   2  12
TORSDOF 1
ENDMDL
