MODEL 1
REMARK VINA RESULT:      -5.8      0.000      0.000
REMARK  1 active torsions:
REMARK  status: ('A' for Active; 'I' for Inactive)
REMARK    1  A    between atoms: C_7  and  C_8 
ROOT
HETATM    1  N   UNL     1      64.079   6.115   2.732  1.00  0.00    -0.358 N 
HETATM    2  C   UNL     1      64.565   7.723   4.210  1.00  0.00    -0.000 A 
HETATM    3  C   UNL     1      65.597   6.745   4.232  1.00  0.00    -0.023 A 
HETATM    4  C   UNL     1      65.262   5.767   3.317  1.00  0.00     0.017 A 
HETATM    5  C   UNL     1      63.627   7.306   3.262  1.00  0.00     0.043 A 
HETATM    6  C   UNL     1      64.329   8.920   4.918  1.00  0.00     0.032 A 
HETATM    7  C   UNL     1      63.165   9.657   4.651  1.00  0.00     0.041 A 
HETATM    8  C   UNL     1      62.462   8.028   2.980  1.00  0.00     0.031 A 
HETATM    9  C   UNL     1      62.248   9.213   3.692  1.00  0.00     0.021 A 
HETATM   10  C   UNL     1      66.833   6.656   5.057  1.00  0.00     0.041 C 
HETATM   11  C   UNL     1      66.006   4.504   3.056  1.00  0.00     0.057 C 
HETATM   12  C   UNL     1      67.257   5.184   5.207  1.00  0.00     0.005 C 
HETATM   13  C   UNL     1      67.335   4.476   3.840  1.00  0.00     0.006 C 
HETATM   14  H   UNL     1      63.618   5.595   2.034  1.00  0.00     0.166 HD
ENDROOT
BRANCH   7  15
HETATM   15  C   UNL     1      62.862  10.921   5.372  1.00  0.00     0.209 C 
HETATM   16  O   UNL     1      63.255  11.218   6.484  1.00  0.00    -0.644 OA
HETATM   17  O   UNL     1      62.080  11.753   4.664  1.00  0.00    -0.644 OA
ENDBRANCH   7  15
TORSDOF 1
ENDMDL
MODEL 2
REMARK VINA RESULT:      -5.8      1.291      1.887
REMARK  1 active torsions:
REMARK  status: ('A' for Active; 'I' for Inactive)
REMARK    1  A    between atoms: C_7  and  C_8 
ROOT
HETATM    1  N   UNL     1      65.253   5.949   4.032  1.00  0.00    -0.358 N 
HETATM    2  C   UNL     1      64.824   7.909   5.021  1.00  0.00    -0.000 A 
HETATM    3  C   UNL     1      65.868   7.252   5.727  1.00  0.00    -0.023 A 
HETATM    4  C   UNL     1      66.102   6.046   5.098  1.00  0.00     0.017 A 
HETATM    5  C   UNL     1      64.456   7.073   3.964  1.00  0.00     0.043 A 
HETATM    6  C   UNL     1      64.142   9.132   5.189  1.00  0.00     0.032 A 
HETATM    7  C   UNL     1      63.119   9.476   4.291  1.00  0.00     0.041 A 
HETATM    8  C   UNL     1      63.441   7.398   3.058  1.00  0.00     0.031 A 
HETATM    9  C   UNL     1      62.779   8.617   3.240  1.00  0.00     0.021 A 
HETATM   10  C   UNL     1      66.625   7.660   6.944  1.00  0.00     0.041 C 
HETATM   11  C   UNL     1      67.053   4.986   5.533  1.00  0.00     0.057 C 
HETATM   12  C   UNL     1      67.141   6.411   7.682  1.00  0.00     0.005 C 
HETATM   13  C   UNL     1      67.900   5.466   6.730  1.00  0.00     0.006 C 
HETATM   14  H   UNL     1      65.216   5.190   3.405  1.00  0.00     0.166 HD
ENDROOT
BRANCH   7  15
HETATM   15  C   UNL     1      62.362  10.748   4.424  1.00  0.00     0.209 C 
HETATM   16  O   UNL     1      61.569  11.192   3.616  1.00  0.00    -0.644 OA
HETATM   17  O   UNL     1      62.635  11.403   5.564  1.00  0.00    -0.644 OA
ENDBRANCH   7  15
TORSDOF 1
ENDMDL
MODEL 3
REMARK VINA RESULT:      -5.7      2.596      3.473
REMARK  1 active torsions:
REMARK  status: ('A' for Active; 'I' for Inactive)
REMARK    1  A    between atoms: C_7  and  C_8 
ROOT
HETATM    1  N   UNL     1      64.601   9.148   5.814  1.00  0.00    -0.358 N 
HETATM    2  C   UNL     1      63.954   8.043   3.979  1.00  0.00    -0.000 A 
HETATM    3  C   UNL     1      65.104   7.407   4.523  1.00  0.00    -0.023 A 
HETATM    4  C   UNL     1      65.480   8.116   5.645  1.00  0.00     0.017 A 
HETATM    5  C   UNL     1      63.660   9.131   4.806  1.00  0.00     0.043 A 
HETATM    6  C   UNL     1      63.142   7.808   2.850  1.00  0.00     0.032 A 
HETATM    7  C   UNL     1      62.063   8.667   2.590  1.00  0.00     0.041 A 
HETATM    8  C   UNL     1      62.588   9.997   4.565  1.00  0.00     0.031 A 
HETATM    9  C   UNL     1      61.793   9.745   3.441  1.00  0.00     0.021 A 
HETATM   10  C   UNL     1      65.871   6.220   4.052  1.00  0.00     0.041 C 
HETATM   11  C   UNL     1      66.677   7.866   6.494  1.00  0.00     0.057 C 
HETATM   12  C   UNL     1      67.328   6.312   4.539  1.00  0.00     0.005 C 
HETATM   13  C   UNL     1      67.401   6.575   6.056  1.00  0.00     0.006 C 
HETATM   14  H   UNL     1      64.634   9.806   6.545  1.00  0.00     0.166 HD
ENDROOT
BRANCH   7  15
HETATM   15  C   UNL     1      61.179   8.472   1.412  1.00  0.00     0.209 C 
HETATM   16  O   UNL     1      59.994   8.198   1.448  1.00  0.00    -0.644 OA
HETATM   17  O   UNL     1      61.821   8.630   0.243  1.00  0.00    -0.644 OA
ENDBRANCH   7  15
TORSDOF 1
ENDMDL
MODEL 4
REMARK VINA RESULT:      -5.7      2.208      4.776
REMARK  1 active torsions:
REMARK  status: ('A' for Active; 'I' for Inactive)
REMARK    1  A    between atoms: C_7  and  C_8 
ROOT
HETATM    1  N   UNL     1      63.696   6.318   2.119  1.00  0.00    -0.358 N 
HETATM    2  C   UNL     1      64.104   7.694   3.835  1.00  0.00    -0.000 A 
HETATM    3  C   UNL     1      63.069   8.247   3.033  1.00  0.00    -0.023 A 
HETATM    4  C   UNL     1      62.848   7.380   1.982  1.00  0.00     0.017 A 
HETATM    5  C   UNL     1      64.479   6.485   3.242  1.00  0.00     0.043 A 
HETATM    6  C   UNL     1      64.772   8.113   5.005  1.00  0.00     0.032 A 
HETATM    7  C   UNL     1      65.789   7.307   5.541  1.00  0.00     0.041 A 
HETATM    8  C   UNL     1      65.489   5.668   3.762  1.00  0.00     0.031 A 
HETATM    9  C   UNL     1      66.137   6.101   4.924  1.00  0.00     0.021 A 
HETATM   10  C   UNL     1      62.311   9.522   3.169  1.00  0.00     0.041 C 
HETATM   11  C   UNL     1      61.911   7.584   0.844  1.00  0.00     0.057 C 
HETATM   12  C   UNL     1      61.811   9.983   1.788  1.00  0.00     0.005 C 
HETATM   13  C   UNL     1      61.061   8.855   1.053  1.00  0.00     0.006 C 
HETATM   14  H   UNL     1      63.740   5.547   1.508  1.00  0.00     0.166 HD
ENDROOT
BRANCH   7  15
HETATM   15  C   UNL     1      66.531   7.702   6.766  1.00  0.00     0.209 C 
HETATM   16  O   UNL     1      67.002   6.942   7.589  1.00  0.00    -0.644 OA
HETATM   17  O   UNL     1      66.647   9.034   6.901  1.00  0.00    -0.644 OA
ENDBRANCH   7  15
TORSDOF 1
ENDMDL
MODEL 5
REMARK VINA RESULT:      -5.4      3.539      6.040
REMARK  1 active torsions:
REMARK  status: ('A' for Active; 'I' for Inactive)
REMARK    1  A    between atoms: C_7  and  C_8 
ROOT
HETATM    1  N   UNL     1      64.920   9.028   5.858  1.00  0.00    -0.358 N 
HETATM    2  C   UNL     1      65.039   7.439   4.287  1.00  0.00    -0.000 A 
HETATM    3  C   UNL     1      63.933   8.288   4.006  1.00  0.00    -0.023 A 
HETATM    4  C   UNL     1      63.885   9.249   4.995  1.00  0.00     0.017 A 
HETATM    5  C   UNL     1      65.640   7.924   5.452  1.00  0.00     0.043 A 
HETATM    6  C   UNL     1      65.579   6.291   3.671  1.00  0.00     0.032 A 
HETATM    7  C   UNL     1      66.703   5.671   4.240  1.00  0.00     0.041 A 
HETATM    8  C   UNL     1      66.762   7.321   6.033  1.00  0.00     0.031 A 
HETATM    9  C   UNL     1      67.283   6.185   5.405  1.00  0.00     0.021 A 
HETATM   10  C   UNL     1      62.926   8.240   2.910  1.00  0.00     0.041 C 
HETATM   11  C   UNL     1      62.847  10.304   5.158  1.00  0.00     0.057 C 
HETATM   12  C   UNL     1      61.618   8.905   3.373  1.00  0.00     0.005 C 
HETATM   13  C   UNL     1      61.873  10.306   3.961  1.00  0.00     0.006 C 
HETATM   14  H   UNL     1      65.123   9.576   6.650  1.00  0.00     0.166 HD
ENDROOT
BRANCH   7  15
HETATM   15  C   UNL     1      67.308   4.455   3.638  1.00  0.00     0.209 C 
HETATM   16  O   UNL     1      67.568   4.297   2.460  1.00  0.00    -0.644 OA
HETATM   17  O   UNL     1      67.561   3.493   4.541  1.00  0.00    -0.644 OA
ENDBRANCH   7  15
TORSDOF 1
ENDMDL
MODEL 6
REMARK VINA RESULT:      -5.1      1.989      3.104
REMARK  1 active torsions:
REMARK  status: ('A' for Active; 'I' for Inactive)
REMARK    1  A    between atoms: C_7  and  C_8 
ROOT
HETATM    1  N   UNL     1      64.023   6.266   4.309  1.00  0.00    -0.358 N 
HETATM    2  C   UNL     1      63.063   7.788   2.979  1.00  0.00    -0.000 A 
HETATM    3  C   UNL     1      63.244   6.581   2.249  1.00  0.00    -0.023 A 
HETATM    4  C   UNL     1      63.844   5.670   3.094  1.00  0.00     0.017 A 
HETATM    5  C   UNL     1      63.558   7.565   4.267  1.00  0.00     0.043 A 
HETATM    6  C   UNL     1      62.537   9.058   2.664  1.00  0.00     0.032 A 
HETATM    7  C   UNL     1      62.524  10.059   3.649  1.00  0.00     0.041 A 
HETATM    8  C   UNL     1      63.552   8.548   5.262  1.00  0.00     0.031 A 
HETATM    9  C   UNL     1      63.025   9.801   4.929  1.00  0.00     0.021 A 
HETATM   10  C   UNL     1      62.924   6.245   0.834  1.00  0.00     0.041 C 
HETATM   11  C   UNL     1      64.297   4.297   2.741  1.00  0.00     0.057 C 
HETATM   12  C   UNL     1      63.858   5.127   0.338  1.00  0.00     0.005 C 
HETATM   13  C   UNL     1      63.866   3.927   1.306  1.00  0.00     0.006 C 
HETATM   14  H   UNL     1      64.423   5.834   5.099  1.00  0.00     0.166 HD
ENDROOT
BRANCH   7  15
HETATM   15  C   UNL     1      61.990  11.417   3.371  1.00  0.00     0.209 C 
HETATM   16  O   UNL     1      61.719  11.864   2.273  1.00  0.00    -0.644 OA
HETATM   17  O   UNL     1      61.821  12.152   4.483  1.00  0.00    -0.644 OA
ENDBRANCH   7  15
TORSDOF 1
ENDMDL
MODEL 7
REMARK VINA RESULT:      -4.9      2.318      3.326
REMARK  1 active torsions:
REMARK  status: ('A' for Active; 'I' for Inactive)
REMARK    1  A    between atoms: C_7  and  C_8 
ROOT
HETATM    1  N   UNL     1      65.474   8.150   6.252  1.00  0.00    -0.358 N 
HETATM    2  C   UNL     1      64.725   7.165   4.387  1.00  0.00    -0.000 A 
HETATM    3  C   UNL     1      65.711   6.335   4.987  1.00  0.00    -0.023 A 
HETATM    4  C   UNL     1      66.156   6.973   6.126  1.00  0.00     0.017 A 
HETATM    5  C   UNL     1      64.594   8.296   5.199  1.00  0.00     0.043 A 
HETATM    6  C   UNL     1      63.938   7.073   3.220  1.00  0.00     0.032 A 
HETATM    7  C   UNL     1      63.048   8.113   2.908  1.00  0.00     0.041 A 
HETATM    8  C   UNL     1      63.711   9.341   4.906  1.00  0.00     0.031 A 
HETATM    9  C   UNL     1      62.939   9.229   3.744  1.00  0.00     0.021 A 
HETATM   10  C   UNL     1      66.269   5.024   4.554  1.00  0.00     0.041 C 
HETATM   11  C   UNL     1      67.244   6.516   7.032  1.00  0.00     0.057 C 
HETATM   12  C   UNL     1      67.694   4.853   5.112  1.00  0.00     0.005 C 
HETATM   13  C   UNL     1      67.741   5.111   6.631  1.00  0.00     0.006 C 
HETATM   14  H   UNL     1      65.591   8.797   6.984  1.00  0.00     0.166 HD
ENDROOT
BRANCH   7  15
HETATM   15  C   UNL     1      62.201   8.072   1.688  1.00  0.00     0.209 C 
HETATM   16  O   UNL     1      62.516   7.585   0.618  1.00  0.00    -0.644 OA
HETATM   17  O   UNL     1      60.998   8.642   1.866  1.00  0.00    -0.644 OA
ENDBRANCH   7  15
TORSDOF 1
ENDMDL
MODEL 8
REMARK VINA RESULT:      -4.9      4.068      5.849
REMARK  1 active torsions:
REMARK  status: ('A' for Active; 'I' for Inactive)
REMARK    1  A    between atoms: C_7  and  C_8 
ROOT
HETATM    1  N   UNL     1      67.469   3.473   9.098  1.00  0.00    -0.358 N 
HETATM    2  C   UNL     1      67.197   4.432   7.094  1.00  0.00    -0.000 A 
HETATM    3  C   UNL     1      67.309   3.025   6.924  1.00  0.00    -0.023 A 
HETATM    4  C   UNL     1      67.483   2.467   8.174  1.00  0.00     0.017 A 
HETATM    5  C   UNL     1      67.300   4.687   8.465  1.00  0.00     0.043 A 
HETATM    6  C   UNL     1      67.033   5.519   6.211  1.00  0.00     0.032 A 
HETATM    7  C   UNL     1      66.975   6.822   6.730  1.00  0.00     0.041 A 
HETATM    8  C   UNL     1      67.244   5.978   9.001  1.00  0.00     0.031 A 
HETATM    9  C   UNL     1      67.079   7.042   8.108  1.00  0.00     0.021 A 
HETATM   10  C   UNL     1      67.291   2.191   5.690  1.00  0.00     0.041 C 
HETATM   11  C   UNL     1      67.725   1.030   8.480  1.00  0.00     0.057 C 
HETATM   12  C   UNL     1      68.075   0.888   5.927  1.00  0.00     0.005 C 
HETATM   13  C   UNL     1      67.601   0.169   7.205  1.00  0.00     0.006 C 
HETATM   14  H   UNL     1      67.565   3.351  10.070  1.00  0.00     0.166 HD
ENDROOT
BRANCH   7  15
HETATM   15  C   UNL     1      66.812   8.005   5.846  1.00  0.00     0.209 C 
HETATM   16  O   UNL     1      67.501   8.273   4.881  1.00  0.00    -0.644 OA
HETATM   17  O   UNL     1      65.790   8.797   6.214  1.00  0.00    -0.644 OA
ENDBRANCH   7  15
TORSDOF 1
ENDMDL
MODEL 9
REMARK VINA RESULT:      -4.7      3.742      5.791
REMARK  1 active torsions:
REMARK  status: ('A' for Active; 'I' for Inactive)
REMARK    1  A    between atoms: C_7  and  C_8 
ROOT
HETATM    1  N   UNL     1      64.615   9.057   5.086  1.00  0.00    -0.358 N 
HETATM    2  C   UNL     1      64.601   6.871   5.565  1.00  0.00    -0.000 A 
HETATM    3  C   UNL     1      63.420   7.195   4.843  1.00  0.00    -0.023 A 
HETATM    4  C   UNL     1      63.457   8.548   4.572  1.00  0.00     0.017 A 
HETATM    5  C   UNL     1      65.333   8.054   5.705  1.00  0.00     0.043 A 
HETATM    6  C   UNL     1      65.114   5.685   6.131  1.00  0.00     0.032 A 
HETATM    7  C   UNL     1      66.341   5.724   6.812  1.00  0.00     0.041 A 
HETATM    8  C   UNL     1      66.558   8.113   6.378  1.00  0.00     0.031 A 
HETATM    9  C   UNL     1      67.049   6.924   6.930  1.00  0.00     0.021 A 
HETATM   10  C   UNL     1      62.273   6.343   4.426  1.00  0.00     0.041 C 
HETATM   11  C   UNL     1      62.394   9.349   3.905  1.00  0.00     0.057 C 
HETATM   12  C   UNL     1      61.007   7.206   4.279  1.00  0.00     0.005 C 
HETATM   13  C   UNL     1      61.261   8.437   3.387  1.00  0.00     0.006 C 
HETATM   14  H   UNL     1      64.896   9.999   5.025  1.00  0.00     0.166 HD
ENDROOT
BRANCH   7  15
HETATM   15  C   UNL     1      66.925   4.507   7.433  1.00  0.00     0.209 C 
HETATM   16  O   UNL     1      68.074   4.128   7.314  1.00  0.00    -0.644 OA
HETATM   17  O   UNL     1      66.039   3.822   8.176  1.00  0.00    -0.644 OA
ENDBRANCH   7  15
TORSDOF 1
ENDMDL
