MODEL 1
REMARK VINA RESULT:      -4.3      0.000      0.000
REMARK  0 active torsions:
REMARK  status: ('A' for Active; 'I' for Inactive)
ROOT
HETATM    1  N   UNL     1      63.074  11.066   6.273  1.00  0.00    -0.190 NA
HETATM    2  C   UNL     1      62.632  10.039   3.931  1.00  0.00     0.152 A 
HETATM    3  C   UNL     1      62.887  10.601   5.223  1.00  0.00     0.121 C 
HETATM    4  N   UNL     1      62.975   8.731   3.766  1.00  0.00    -0.355 N 
ATOM      5  HN  UNL     1      63.421   8.197   4.512  1.00  0.00     0.166 HD
HETATM    6  C   UNL     1      62.039  10.800   2.936  1.00  0.00     0.153 A 
HETATM    7  F   UNL     1      61.726  12.089   3.127  1.00  0.00    -0.203 F 
HETATM    8  C   UNL     1      62.695   8.177   2.566  1.00  0.00     0.089 A 
HETATM    9  C   UNL     1      61.755  10.202   1.715  1.00  0.00     0.047 A 
HETATM   10  C   UNL     1      62.084   8.862   1.526  1.00  0.00     0.020 A 
ENDROOT
TORSDOF 0
ENDMDL
MODEL 2
REMARK VINA RESULT:      -4.3      1.455      1.715
REMARK  0 active torsions:
REMARK  status: ('A' for Active; 'I' for Inactive)
ROOT
HETATM    1  N   UNL     1      63.114   8.393   6.205  1.00  0.00    -0.190 NA
HETATM    2  C   UNL     1      62.531   9.616   3.992  1.00  0.00     0.152 A 
HETATM    3  C   UNL     1      62.862   8.936   5.207  1.00  0.00     0.121 C 
HETATM    4  N   UNL     1      62.530   8.857   2.861  1.00  0.00    -0.355 N 
ATOM      5  HN  UNL     1      62.785   7.870   2.878  1.00  0.00     0.166 HD
HETATM    6  C   UNL     1      62.203  10.962   4.004  1.00  0.00     0.153 A 
HETATM    7  F   UNL     1      62.228  11.683   5.133  1.00  0.00    -0.203 F 
HETATM    8  C   UNL     1      62.172   9.477   1.714  1.00  0.00     0.089 A 
HETATM    9  C   UNL     1      61.832  11.572   2.812  1.00  0.00     0.047 A 
HETATM   10  C   UNL     1      61.809  10.815   1.643  1.00  0.00     0.020 A 
ENDROOT
TORSDOF 0
ENDMDL
MODEL 3
REMARK VINA RESULT:      -4.2      1.831      2.222
REMARK  0 active torsions:
REMARK  status: ('A' for Active; 'I' for Inactive)
ROOT
HETATM    1  N   UNL     1      63.095  11.113   6.333  1.00  0.00    -0.190 NA
HETATM    2  C   UNL     1      62.498  10.260   3.957  1.00  0.00     0.152 A 
HETATM    3  C   UNL     1      62.816  10.736   5.269  1.00  0.00     0.121 C 
HETATM    4  N   UNL     1      61.878  11.148   3.130  1.00  0.00    -0.355 N 
ATOM      5  HN  UNL     1      61.624  12.084   3.445  1.00  0.00     0.166 HD
HETATM    6  C   UNL     1      62.844   8.975   3.569  1.00  0.00     0.153 A 
HETATM    7  F   UNL     1      63.442   8.123   4.412  1.00  0.00    -0.203 F 
HETATM    8  C   UNL     1      61.615  10.726   1.874  1.00  0.00     0.089 A 
HETATM    9  C   UNL     1      62.570   8.571   2.269  1.00  0.00     0.047 A 
HETATM   10  C   UNL     1      61.949   9.465   1.400  1.00  0.00     0.020 A 
ENDROOT
TORSDOF 0
ENDMDL
MODEL 4
REMARK VINA RESULT:      -3.9      1.813      3.294
REMARK  0 active torsions:
REMARK  status: ('A' for Active; 'I' for Inactive)
ROOT
HETATM    1  N   UNL     1      63.412   6.352   2.216  1.00  0.00    -0.190 NA
HETATM    2  C   UNL     1      62.594   8.769   2.681  1.00  0.00     0.152 A 
HETATM    3  C   UNL     1      63.038   7.431   2.434  1.00  0.00     0.121 C 
HETATM    4  N   UNL     1      62.618   9.180   3.981  1.00  0.00    -0.355 N 
ATOM      5  HN  UNL     1      62.903   8.554   4.734  1.00  0.00     0.166 HD
HETATM    6  C   UNL     1      62.198   9.586   1.634  1.00  0.00     0.153 A 
HETATM    7  F   UNL     1      62.173   9.146   0.369  1.00  0.00    -0.203 F 
HETATM    8  C   UNL     1      62.245  10.456   4.221  1.00  0.00     0.089 A 
HETATM    9  C   UNL     1      61.828  10.896   1.909  1.00  0.00     0.047 A 
HETATM   10  C   UNL     1      61.857  11.345   3.228  1.00  0.00     0.020 A 
ENDROOT
TORSDOF 0
ENDMDL
MODEL 5
REMARK VINA RESULT:      -3.9      2.583      3.235
REMARK  0 active torsions:
REMARK  status: ('A' for Active; 'I' for Inactive)
ROOT
HETATM    1  N   UNL     1      65.865   7.941   6.272  1.00  0.00    -0.190 NA
HETATM    2  C   UNL     1      63.924   9.123   5.020  1.00  0.00     0.152 A 
HETATM    3  C   UNL     1      64.989   8.473   5.722  1.00  0.00     0.121 C 
HETATM    4  N   UNL     1      63.480  10.294   5.557  1.00  0.00    -0.355 N 
ATOM      5  HN  UNL     1      63.862  10.663   6.427  1.00  0.00     0.166 HD
HETATM    6  C   UNL     1      63.418   8.584   3.848  1.00  0.00     0.153 A 
HETATM    7  F   UNL     1      63.869   7.423   3.355  1.00  0.00    -0.203 F 
HETATM    8  C   UNL     1      62.507  10.942   4.878  1.00  0.00     0.089 A 
HETATM    9  C   UNL     1      62.425   9.276   3.167  1.00  0.00     0.047 A 
HETATM   10  C   UNL     1      61.962  10.482   3.687  1.00  0.00     0.020 A 
ENDROOT
TORSDOF 0
ENDMDL
MODEL 6
REMARK VINA RESULT:      -3.9      7.006      7.890
REMARK  0 active torsions:
REMARK  status: ('A' for Active; 'I' for Inactive)
ROOT
HETATM    1  N   UNL     1      66.078   8.845   6.239  1.00  0.00    -0.190 NA
HETATM    2  C   UNL     1      67.101   6.779   7.428  1.00  0.00     0.152 A 
HETATM    3  C   UNL     1      66.545   7.926   6.777  1.00  0.00     0.121 C 
HETATM    4  N   UNL     1      67.338   6.901   8.764  1.00  0.00    -0.355 N 
ATOM      5  HN  UNL     1      67.160   7.774   9.260  1.00  0.00     0.166 HD
HETATM    6  C   UNL     1      67.344   5.613   6.717  1.00  0.00     0.153 A 
HETATM    7  F   UNL     1      67.113   5.531   5.400  1.00  0.00    -0.203 F 
HETATM    8  C   UNL     1      67.818   5.809   9.398  1.00  0.00     0.089 A 
HETATM    9  C   UNL     1      67.831   4.504   7.396  1.00  0.00     0.047 A 
HETATM   10  C   UNL     1      68.068   4.599   8.766  1.00  0.00     0.020 A 
ENDROOT
TORSDOF 0
ENDMDL
MODEL 7
REMARK VINA RESULT:      -3.8      2.334      3.035
REMARK  0 active torsions:
REMARK  status: ('A' for Active; 'I' for Inactive)
ROOT
HETATM    1  N   UNL     1      61.948  11.900   2.310  1.00  0.00    -0.190 NA
HETATM    2  C   UNL     1      61.787   9.642   3.577  1.00  0.00     0.152 A 
HETATM    3  C   UNL     1      61.863  10.889   2.879  1.00  0.00     0.121 C 
HETATM    4  N   UNL     1      60.791   8.797   3.189  1.00  0.00    -0.355 N 
ATOM      5  HN  UNL     1      60.120   9.057   2.467  1.00  0.00     0.166 HD
HETATM    6  C   UNL     1      62.708   9.328   4.564  1.00  0.00     0.153 A 
HETATM    7  F   UNL     1      63.667  10.188   4.931  1.00  0.00    -0.203 F 
HETATM    8  C   UNL     1      60.738   7.597   3.808  1.00  0.00     0.089 A 
HETATM    9  C   UNL     1      62.635   8.084   5.178  1.00  0.00     0.047 A 
HETATM   10  C   UNL     1      61.634   7.196   4.790  1.00  0.00     0.020 A 
ENDROOT
TORSDOF 0
ENDMDL
MODEL 8
REMARK VINA RESULT:      -3.7      2.362      3.069
REMARK  0 active torsions:
REMARK  status: ('A' for Active; 'I' for Inactive)
ROOT
HETATM    1  N   UNL     1      61.674  11.328   4.054  1.00  0.00    -0.190 NA
HETATM    2  C   UNL     1      63.170   9.217   4.239  1.00  0.00     0.152 A 
HETATM    3  C   UNL     1      62.354  10.389   4.141  1.00  0.00     0.121 C 
HETATM    4  N   UNL     1      63.900   9.087   5.383  1.00  0.00    -0.355 N 
ATOM      5  HN  UNL     1      63.889   9.804   6.108  1.00  0.00     0.166 HD
HETATM    6  C   UNL     1      63.172   8.271   3.226  1.00  0.00     0.153 A 
HETATM    7  F   UNL     1      62.453   8.437   2.108  1.00  0.00    -0.203 F 
HETATM    8  C   UNL     1      64.637   7.962   5.508  1.00  0.00     0.089 A 
HETATM    9  C   UNL     1      63.933   7.120   3.385  1.00  0.00     0.047 A 
HETATM   10  C   UNL     1      64.677   6.957   4.551  1.00  0.00     0.020 A 
ENDROOT
TORSDOF 0
ENDMDL
MODEL 9
REMARK VINA RESULT:      -3.4      2.457      3.675
REMARK  0 active torsions:
REMARK  status: ('A' for Active; 'I' for Inactive)
ROOT
HETATM    1  N   UNL     1      62.000   6.790   1.686  1.00  0.00    -0.190 NA
HETATM    2  C   UNL     1      62.031   9.210   2.621  1.00  0.00     0.152 A 
HETATM    3  C   UNL     1      62.020   7.879   2.095  1.00  0.00     0.121 C 
HETATM    4  N   UNL     1      61.713  10.204   1.745  1.00  0.00    -0.355 N 
ATOM      5  HN  UNL     1      61.515  10.009   0.764  1.00  0.00     0.166 HD
HETATM    6  C   UNL     1      62.321   9.439   3.957  1.00  0.00     0.153 A 
HETATM    7  F   UNL     1      62.643   8.438   4.788  1.00  0.00    -0.203 F 
HETATM    8  C   UNL     1      61.674  11.460   2.241  1.00  0.00     0.089 A 
HETATM    9  C   UNL     1      62.265  10.739   4.441  1.00  0.00     0.047 A 
HETATM   10  C   UNL     1      61.929  11.772   3.569  1.00  0.00     0.020 A 
ENDROOT
TORSDOF 0
ENDMDL
