MODEL 1
REMARK VINA RESULT:      -5.2      0.000      0.000
REMARK  2 active torsions:
REMARK  status: ('A' for Active; 'I' for Inactive)
REMARK    1  A    between atoms: C_3  and  C_10 
REMARK    2  A    between atoms: C_10  and  O_11 
ROOT
HETATM    1  S   UNL     1      61.950  10.926   3.395  1.00  0.00    -0.092 SA
HETATM    2  C   UNL     1      62.985   8.565   3.271  1.00  0.00    -0.018 A 
HETATM    3  C   UNL     1      62.817  10.377   4.759  1.00  0.00     0.007 A 
HETATM    4  C   UNL     1      63.326   9.112   4.553  1.00  0.00     0.029 A 
HETATM    5  C   UNL     1      62.225   9.467   2.524  1.00  0.00     0.015 A 
HETATM    6  C   UNL     1      63.290   7.308   2.694  1.00  0.00     0.019 A 
HETATM    7  C   UNL     1      61.774   9.152   1.229  1.00  0.00     0.020 A 
HETATM    8  C   UNL     1      62.841   6.977   1.407  1.00  0.00    -0.061 A 
HETATM    9  C   UNL     1      62.090   7.902   0.685  1.00  0.00     0.008 A 
HETATM   10  C   UNL     1      63.173   5.631   0.829  1.00  0.00     0.048 C 
ENDROOT
BRANCH   3  11
HETATM   11  C   UNL     1      62.946  11.239   5.970  1.00  0.00     0.210 C 
BRANCH  11  12
HETATM   12  O   UNL     1      64.333  11.349   6.267  1.00  0.00    -0.396 OA
HETATM   13  H   UNL     1      64.814  10.620   5.842  1.00  0.00     0.209 HD
ENDBRANCH  11  12
ENDBRANCH   3  11
TORSDOF 2
ENDMDL
MODEL 2
REMARK VINA RESULT:      -5.0      2.432      3.619
REMARK  2 active torsions:
REMARK  status: ('A' for Active; 'I' for Inactive)
REMARK    1  A    between atoms: C_3  and  C_10 
REMARK    2  A    between atoms: C_10  and  O_11 
ROOT
HETATM    1  S   UNL     1      63.222   6.517   3.749  1.00  0.00    -0.092 SA
HETATM    2  C   UNL     1      62.643   9.011   4.071  1.00  0.00    -0.018 A 
HETATM    3  C   UNL     1      63.336   7.152   5.329  1.00  0.00     0.007 A 
HETATM    4  C   UNL     1      62.987   8.485   5.360  1.00  0.00     0.029 A 
HETATM    5  C   UNL     1      62.728   8.027   3.085  1.00  0.00     0.015 A 
HETATM    6  C   UNL     1      62.256  10.317   3.682  1.00  0.00     0.019 A 
HETATM    7  C   UNL     1      62.435   8.308   1.738  1.00  0.00     0.020 A 
HETATM    8  C   UNL     1      61.968  10.615   2.341  1.00  0.00    -0.061 A 
HETATM    9  C   UNL     1      62.056   9.607   1.383  1.00  0.00     0.008 A 
HETATM   10  C   UNL     1      61.571  12.012   1.961  1.00  0.00     0.048 C 
ENDROOT
BRANCH   3  11
HETATM   11  C   UNL     1      63.770   6.283   6.463  1.00  0.00     0.210 C 
BRANCH  11  12
HETATM   12  O   UNL     1      64.578   7.079   7.322  1.00  0.00    -0.396 OA
HETATM   13  H   UNL     1      65.423   7.271   6.886  1.00  0.00     0.209 HD
ENDBRANCH  11  12
ENDBRANCH   3  11
TORSDOF 2
ENDMDL
MODEL 3
REMARK VINA RESULT:      -4.3      3.451      4.609
REMARK  2 active torsions:
REMARK  status: ('A' for Active; 'I' for Inactive)
REMARK    1  A    between atoms: C_3  and  C_10 
REMARK    2  A    between atoms: C_10  and  O_11 
ROOT
HETATM    1  S   UNL     1      65.795   5.958   4.615  1.00  0.00    -0.092 SA
HETATM    2  C   UNL     1      64.763   8.260   5.161  1.00  0.00    -0.018 A 
HETATM    3  C   UNL     1      66.486   6.843   5.901  1.00  0.00     0.007 A 
HETATM    4  C   UNL     1      65.832   8.042   6.092  1.00  0.00     0.029 A 
HETATM    5  C   UNL     1      64.630   7.181   4.285  1.00  0.00     0.015 A 
HETATM    6  C   UNL     1      63.879   9.356   5.012  1.00  0.00     0.019 A 
HETATM    7  C   UNL     1      63.644   7.167   3.281  1.00  0.00     0.020 A 
HETATM    8  C   UNL     1      62.897   9.360   4.010  1.00  0.00    -0.061 A 
HETATM    9  C   UNL     1      62.786   8.265   3.157  1.00  0.00     0.008 A 
HETATM   10  C   UNL     1      61.983  10.543   3.873  1.00  0.00     0.048 C 
ENDROOT
BRANCH   3  11
HETATM   11  C   UNL     1      67.650   6.295   6.657  1.00  0.00     0.210 C 
BRANCH  11  12
HETATM   12  O   UNL     1      67.672   6.936   7.927  1.00  0.00    -0.396 OA
HETATM   13  H   UNL     1      68.460   7.500   7.991  1.00  0.00     0.209 HD
ENDBRANCH  11  12
ENDBRANCH   3  11
TORSDOF 2
ENDMDL
MODEL 4
REMARK VINA RESULT:      -4.3      2.850      4.039
REMARK  2 active torsions:
REMARK  status: ('A' for Active; 'I' for Inactive)
REMARK    1  A    between atoms: C_3  and  C_10 
REMARK    2  A    between atoms: C_10  and  O_11 
ROOT
HETATM    1  S   UNL     1      62.928   8.126   3.093  1.00  0.00    -0.092 SA
HETATM    2  C   UNL     1      64.716   8.345   4.940  1.00  0.00    -0.018 A 
HETATM    3  C   UNL     1      62.865   9.514   4.085  1.00  0.00     0.007 A 
HETATM    4  C   UNL     1      63.882   9.510   5.016  1.00  0.00     0.029 A 
HETATM    5  C   UNL     1      64.301   7.494   3.915  1.00  0.00     0.015 A 
HETATM    6  C   UNL     1      65.834   7.960   5.720  1.00  0.00     0.019 A 
HETATM    7  C   UNL     1      64.971   6.285   3.647  1.00  0.00     0.020 A 
HETATM    8  C   UNL     1      66.506   6.754   5.470  1.00  0.00    -0.061 A 
HETATM    9  C   UNL     1      66.071   5.930   4.435  1.00  0.00     0.008 A 
HETATM   10  C   UNL     1      67.681   6.370   6.323  1.00  0.00     0.048 C 
ENDROOT
BRANCH   3  11
HETATM   11  C   UNL     1      61.800  10.540   3.884  1.00  0.00     0.210 C 
BRANCH  11  12
HETATM   12  O   UNL     1      62.264  11.753   4.463  1.00  0.00    -0.396 OA
HETATM   13  H   UNL     1      61.915  12.506   3.959  1.00  0.00     0.209 HD
ENDBRANCH  11  12
ENDBRANCH   3  11
TORSDOF 2
ENDMDL
MODEL 5
REMARK VINA RESULT:      -4.2     13.710     14.370
REMARK  2 active torsions:
REMARK  status: ('A' for Active; 'I' for Inactive)
REMARK    1  A    between atoms: C_3  and  C_10 
REMARK    2  A    between atoms: C_10  and  O_11 
ROOT
HETATM    1  S   UNL     1      56.343   0.210  14.026  1.00  0.00    -0.092 SA
HETATM    2  C   UNL     1      58.640   0.946  13.107  1.00  0.00    -0.018 A 
HETATM    3  C   UNL     1      56.505   1.835  13.528  1.00  0.00     0.007 A 
HETATM    4  C   UNL     1      57.773   2.087  13.048  1.00  0.00     0.029 A 
HETATM    5  C   UNL     1      57.975  -0.166  13.627  1.00  0.00     0.015 A 
HETATM    6  C   UNL     1      59.999   0.801  12.738  1.00  0.00     0.019 A 
HETATM    7  C   UNL     1      58.624  -1.405  13.780  1.00  0.00     0.020 A 
HETATM    8  C   UNL     1      60.662  -0.426  12.891  1.00  0.00    -0.061 A 
HETATM    9  C   UNL     1      59.968  -1.518  13.407  1.00  0.00     0.008 A 
HETATM   10  C   UNL     1      62.107  -0.542  12.499  1.00  0.00     0.048 C 
ENDROOT
BRANCH   3  11
HETATM   11  C   UNL     1      55.355   2.778  13.642  1.00  0.00     0.210 C 
BRANCH  11  12
HETATM   12  O   UNL     1      55.257   3.165  15.008  1.00  0.00    -0.396 OA
HETATM   13  H   UNL     1      54.328   3.127  15.289  1.00  0.00     0.209 HD
ENDBRANCH  11  12
ENDBRANCH   3  11
TORSDOF 2
ENDMDL
MODEL 6
REMARK VINA RESULT:      -4.2      2.944      4.643
REMARK  2 active torsions:
REMARK  status: ('A' for Active; 'I' for Inactive)
REMARK    1  A    between atoms: C_3  and  C_10 
REMARK    2  A    between atoms: C_10  and  O_11 
ROOT
HETATM    1  S   UNL     1      63.345   7.305   5.820  1.00  0.00    -0.092 SA
HETATM    2  C   UNL     1      62.648   8.320   3.552  1.00  0.00    -0.018 A 
HETATM    3  C   UNL     1      63.217   6.241   4.490  1.00  0.00     0.007 A 
HETATM    4  C   UNL     1      62.852   6.915   3.344  1.00  0.00     0.029 A 
HETATM    5  C   UNL     1      62.890   8.673   4.880  1.00  0.00     0.015 A 
HETATM    6  C   UNL     1      62.253   9.337   2.649  1.00  0.00     0.019 A 
HETATM    7  C   UNL     1      62.755  10.002   5.323  1.00  0.00     0.020 A 
HETATM    8  C   UNL     1      62.107  10.665   3.078  1.00  0.00    -0.061 A 
HETATM    9  C   UNL     1      62.363  10.986   4.409  1.00  0.00     0.008 A 
HETATM   10  C   UNL     1      61.677  11.718   2.098  1.00  0.00     0.048 C 
ENDROOT
BRANCH   3  11
HETATM   11  C   UNL     1      63.487   4.784   4.659  1.00  0.00     0.210 C 
BRANCH  11  12
HETATM   12  O   UNL     1      62.234   4.139   4.853  1.00  0.00    -0.396 OA
HETATM   13  H   UNL     1      62.063   3.535   4.113  1.00  0.00     0.209 HD
ENDBRANCH  11  12
ENDBRANCH   3  11
TORSDOF 2
ENDMDL
MODEL 7
REMARK VINA RESULT:      -4.0      3.297      5.264
REMARK  2 active torsions:
REMARK  status: ('A' for Active; 'I' for Inactive)
REMARK    1  A    between atoms: C_3  and  C_10 
REMARK    2  A    between atoms: C_10  and  O_11 
ROOT
HETATM    1  S   UNL     1      62.916   6.236   2.994  1.00  0.00    -0.092 SA
HETATM    2  C   UNL     1      62.375   8.300   1.542  1.00  0.00    -0.018 A 
HETATM    3  C   UNL     1      62.814   6.003   1.306  1.00  0.00     0.007 A 
HETATM    4  C   UNL     1      62.534   7.185   0.653  1.00  0.00     0.029 A 
HETATM    5  C   UNL     1      62.563   7.916   2.871  1.00  0.00     0.015 A 
HETATM    6  C   UNL     1      62.067   9.656   1.274  1.00  0.00     0.019 A 
HETATM    7  C   UNL     1      62.459   8.842   3.925  1.00  0.00     0.020 A 
HETATM    8  C   UNL     1      61.952  10.589   2.315  1.00  0.00    -0.061 A 
HETATM    9  C   UNL     1      62.152  10.175   3.630  1.00  0.00     0.008 A 
HETATM   10  C   UNL     1      61.613  12.017   1.997  1.00  0.00     0.048 C 
ENDROOT
BRANCH   3  11
HETATM   11  C   UNL     1      63.018   4.647   0.716  1.00  0.00     0.210 C 
BRANCH  11  12
HETATM   12  O   UNL     1      61.751   4.001   0.688  1.00  0.00    -0.396 OA
HETATM   13  H   UNL     1      61.232   4.337  -0.061  1.00  0.00     0.209 HD
ENDBRANCH  11  12
ENDBRANCH   3  11
TORSDOF 2
ENDMDL
MODEL 8
REMARK VINA RESULT:      -3.9     12.653     13.227
REMARK  2 active torsions:
REMARK  status: ('A' for Active; 'I' for Inactive)
REMARK    1  A    between atoms: C_3  and  C_10 
REMARK    2  A    between atoms: C_10  and  O_11 
ROOT
HETATM    1  S   UNL     1      56.443   2.076  11.375  1.00  0.00    -0.092 SA
HETATM    2  C   UNL     1      58.418   1.370  12.878  1.00  0.00    -0.018 A 
HETATM    3  C   UNL     1      56.316   2.407  13.045  1.00  0.00     0.007 A 
HETATM    4  C   UNL     1      57.442   1.992  13.725  1.00  0.00     0.029 A 
HETATM    5  C   UNL     1      57.994   1.352  11.548  1.00  0.00     0.015 A 
HETATM    6  C   UNL     1      59.677   0.800  13.187  1.00  0.00     0.019 A 
HETATM    7  C   UNL     1      58.789   0.792  10.531  1.00  0.00     0.020 A 
HETATM    8  C   UNL     1      60.478   0.231  12.185  1.00  0.00    -0.061 A 
HETATM    9  C   UNL     1      60.028   0.235  10.867  1.00  0.00     0.008 A 
HETATM   10  C   UNL     1      61.802  -0.375  12.549  1.00  0.00     0.048 C 
ENDROOT
BRANCH   3  11
HETATM   11  C   UNL     1      55.095   3.066  13.595  1.00  0.00     0.210 C 
BRANCH  11  12
HETATM   12  O   UNL     1      55.250   3.136  15.008  1.00  0.00    -0.396 OA
HETATM   13  H   UNL     1      55.946   2.521  15.288  1.00  0.00     0.209 HD
ENDBRANCH  11  12
ENDBRANCH   3  11
TORSDOF 2
ENDMDL
MODEL 9
REMARK VINA RESULT:      -3.9      1.639      2.462
REMARK  2 active torsions:
REMARK  status: ('A' for Active; 'I' for Inactive)
REMARK    1  A    between atoms: C_3  and  C_10 
REMARK    2  A    between atoms: C_10  and  O_11 
ROOT
HETATM    1  S   UNL     1      62.909   9.260   4.199  1.00  0.00    -0.092 SA
HETATM    2  C   UNL     1      62.569   8.130   1.904  1.00  0.00    -0.018 A 
HETATM    3  C   UNL     1      62.156  10.180   2.975  1.00  0.00     0.007 A 
HETATM    4  C   UNL     1      62.025   9.453   1.811  1.00  0.00     0.029 A 
HETATM    5  C   UNL     1      63.091   7.888   3.176  1.00  0.00     0.015 A 
HETATM    6  C   UNL     1      62.651   7.096   0.939  1.00  0.00     0.019 A 
HETATM    7  C   UNL     1      63.679   6.653   3.507  1.00  0.00     0.020 A 
HETATM    8  C   UNL     1      63.242   5.862   1.252  1.00  0.00    -0.061 A 
HETATM    9  C   UNL     1      63.747   5.651   2.532  1.00  0.00     0.008 A 
HETATM   10  C   UNL     1      63.322   4.792   0.202  1.00  0.00     0.048 C 
ENDROOT
BRANCH   3  11
HETATM   11  C   UNL     1      61.731  11.586   3.240  1.00  0.00     0.210 C 
BRANCH  11  12
HETATM   12  O   UNL     1      62.128  11.907   4.568  1.00  0.00    -0.396 OA
HETATM   13  H   UNL     1      62.883  11.354   4.823  1.00  0.00     0.209 HD
ENDBRANCH  11  12
ENDBRANCH   3  11
TORSDOF 2
ENDMDL
