MODEL 1
REMARK VINA RESULT:      -4.5      0.000      0.000
REMARK  3 active torsions:
REMARK  status: ('A' for Active; 'I' for Inactive)
REMARK    1  A    between atoms: C_1  and  C_7 
REMARK    2  A    between atoms: C_7  and  O_10 
REMARK    3  A    between atoms: O_10  and  C_12 
ROOT
HETATM    1  C   UNL     1      63.497   8.872   4.741  1.00  0.00     0.105 A 
HETATM    2  N   UNL     1      62.132  10.284   3.456  1.00  0.00    -0.343 N 
ATOM      3  HN  UNL     1      61.592  11.115   3.217  1.00  0.00     0.167 HD
HETATM    4  C   UNL     1      62.838  10.097   4.642  1.00  0.00     0.030 A 
HETATM    5  S   UNL     1      63.205   7.959   3.299  1.00  0.00    -0.052 SA
HETATM    6  C   UNL     1      62.270   9.230   2.697  1.00  0.00     0.146 A 
HETATM    7 CL   UNL     1      61.547   9.113   1.146  1.00  0.00    -0.056 Cl
HETATM    8  C   UNL     1      62.786  11.236   5.602  1.00  0.00     0.070 C 
ENDROOT
BRANCH   1   9
HETATM    9  C   UNL     1      64.330   8.274   5.766  1.00  0.00     0.302 C 
HETATM   10  O   UNL     1      64.013   7.343   6.496  1.00  0.00    -0.259 OA
BRANCH   9  11
HETATM   11  O   UNL     1      65.540   8.896   5.817  1.00  0.00    -0.317 OA
BRANCH  11  12
HETATM   12  C   UNL     1      66.651   8.106   6.262  1.00  0.00     0.174 C 
HETATM   13  C   UNL     1      67.580   7.790   5.104  1.00  0.00     0.034 C 
ENDBRANCH  11  12
ENDBRANCH   9  11
ENDBRANCH   1   9
TORSDOF 3
ENDMDL
MODEL 2
REMARK VINA RESULT:      -4.2      1.141      1.676
REMARK  3 active torsions:
REMARK  status: ('A' for Active; 'I' for Inactive)
REMARK    1  A    between atoms: C_1  and  C_7 
REMARK    2  A    between atoms: C_7  and  O_10 
REMARK    3  A    between atoms: O_10  and  C_12 
ROOT
HETATM    1  C   UNL     1      63.595   8.925   4.518  1.00  0.00     0.105 A 
HETATM    2  N   UNL     1      61.854  10.154   3.537  1.00  0.00    -0.343 N 
ATOM      3  HN  UNL     1      61.182  10.912   3.420  1.00  0.00     0.167 HD
HETATM    4  C   UNL     1      62.785  10.058   4.568  1.00  0.00     0.030 A 
HETATM    5  S   UNL     1      63.155   7.980   3.135  1.00  0.00    -0.052 SA
HETATM    6  C   UNL     1      61.976   9.124   2.743  1.00  0.00     0.146 A 
HETATM    7 CL   UNL     1      60.998   8.916   1.350  1.00  0.00    -0.056 Cl
HETATM    8  C   UNL     1      62.773  11.184   5.546  1.00  0.00     0.070 C 
ENDROOT
BRANCH   1   9
HETATM    9  C   UNL     1      64.670   8.436   5.359  1.00  0.00     0.302 C 
HETATM   10  O   UNL     1      65.868   8.592   5.157  1.00  0.00    -0.259 OA
BRANCH   9  11
HETATM   11  O   UNL     1      64.166   7.762   6.429  1.00  0.00    -0.317 OA
BRANCH  11  12
HETATM   12  C   UNL     1      64.882   6.592   6.849  1.00  0.00     0.174 C 
HETATM   13  C   UNL     1      64.435   5.379   6.055  1.00  0.00     0.034 C 
ENDBRANCH  11  12
ENDBRANCH   9  11
ENDBRANCH   1   9
TORSDOF 3
ENDMDL
MODEL 3
REMARK VINA RESULT:      -4.1      3.248      4.593
REMARK  3 active torsions:
REMARK  status: ('A' for Active; 'I' for Inactive)
REMARK    1  A    between atoms: C_1  and  C_7 
REMARK    2  A    between atoms: C_7  and  O_10 
REMARK    3  A    between atoms: O_10  and  C_12 
ROOT
HETATM    1  C   UNL     1      63.483   8.350   4.080  1.00  0.00     0.105 A 
HETATM    2  N   UNL     1      64.848   9.089   5.839  1.00  0.00    -0.343 N 
ATOM      3  HN  UNL     1      65.177   9.698   6.588  1.00  0.00     0.167 HD
HETATM    4  C   UNL     1      63.728   9.325   5.045  1.00  0.00     0.030 A 
HETATM    5  S   UNL     1      64.701   7.124   4.196  1.00  0.00    -0.052 SA
HETATM    6  C   UNL     1      65.412   7.969   5.474  1.00  0.00     0.146 A 
HETATM    7 CL   UNL     1      66.813   7.351   6.246  1.00  0.00    -0.056 Cl
HETATM    8  C   UNL     1      62.970  10.569   5.364  1.00  0.00     0.070 C 
ENDROOT
BRANCH   1   9
HETATM    9  C   UNL     1      62.456   8.191   3.069  1.00  0.00     0.302 C 
HETATM   10  O   UNL     1      61.487   7.445   3.141  1.00  0.00    -0.259 OA
BRANCH   9  11
HETATM   11  O   UNL     1      62.713   8.994   2.001  1.00  0.00    -0.317 OA
BRANCH  11  12
HETATM   12  C   UNL     1      61.634   9.823   1.545  1.00  0.00     0.174 C 
HETATM   13  C   UNL     1      61.839  11.260   1.988  1.00  0.00     0.034 C 
ENDBRANCH  11  12
ENDBRANCH   9  11
ENDBRANCH   1   9
TORSDOF 3
ENDMDL
MODEL 4
REMARK VINA RESULT:      -4.0      1.979      2.449
REMARK  3 active torsions:
REMARK  status: ('A' for Active; 'I' for Inactive)
REMARK    1  A    between atoms: C_1  and  C_7 
REMARK    2  A    between atoms: C_7  and  O_10 
REMARK    3  A    between atoms: O_10  and  C_12 
ROOT
HETATM    1  C   UNL     1      62.682   8.657   4.816  1.00  0.00     0.105 A 
HETATM    2  N   UNL     1      61.814   9.080   2.678  1.00  0.00    -0.343 N 
ATOM      3  HN  UNL     1      61.432   8.873   1.755  1.00  0.00     0.167 HD
HETATM    4  C   UNL     1      62.176   8.129   3.630  1.00  0.00     0.030 A 
HETATM    5  S   UNL     1      62.691  10.385   4.705  1.00  0.00    -0.052 SA
HETATM    6  C   UNL     1      62.041  10.276   3.150  1.00  0.00     0.146 A 
HETATM    7 CL   UNL     1      61.699  11.698   2.254  1.00  0.00    -0.056 Cl
HETATM    8  C   UNL     1      61.952   6.710   3.231  1.00  0.00     0.070 C 
ENDROOT
BRANCH   1   9
HETATM    9  C   UNL     1      63.163   8.054   6.044  1.00  0.00     0.302 C 
HETATM   10  O   UNL     1      62.467   7.616   6.950  1.00  0.00    -0.259 OA
BRANCH   9  11
HETATM   11  O   UNL     1      64.524   8.039   6.063  1.00  0.00    -0.317 OA
BRANCH  11  12
HETATM   12  C   UNL     1      65.147   6.895   6.665  1.00  0.00     0.174 C 
HETATM   13  C   UNL     1      65.279   5.767   5.658  1.00  0.00     0.034 C 
ENDBRANCH  11  12
ENDBRANCH   9  11
ENDBRANCH   1   9
TORSDOF 3
ENDMDL
MODEL 5
REMARK VINA RESULT:      -3.9      5.025      5.957
REMARK  3 active torsions:
REMARK  status: ('A' for Active; 'I' for Inactive)
REMARK    1  A    between atoms: C_1  and  C_7 
REMARK    2  A    between atoms: C_7  and  O_10 
REMARK    3  A    between atoms: O_10  and  C_12 
ROOT
HETATM    1  C   UNL     1      65.528   5.845   7.336  1.00  0.00     0.105 A 
HETATM    2  N   UNL     1      66.842   4.286   8.497  1.00  0.00    -0.343 N 
ATOM      3  HN  UNL     1      67.476   3.931   9.213  1.00  0.00     0.167 HD
HETATM    4  C   UNL     1      66.385   5.599   8.408  1.00  0.00     0.030 A 
HETATM    5  S   UNL     1      65.311   4.378   6.441  1.00  0.00    -0.052 SA
HETATM    6  C   UNL     1      66.333   3.581   7.523  1.00  0.00     0.146 A 
HETATM    7 CL   UNL     1      66.666   1.910   7.326  1.00  0.00    -0.056 Cl
HETATM    8  C   UNL     1      66.873   6.518   9.475  1.00  0.00     0.070 C 
ENDROOT
BRANCH   1   9
HETATM    9  C   UNL     1      64.832   7.030   6.875  1.00  0.00     0.302 C 
HETATM   10  O   UNL     1      63.617   7.181   6.839  1.00  0.00    -0.259 OA
BRANCH   9  11
HETATM   11  O   UNL     1      65.723   7.979   6.476  1.00  0.00    -0.317 OA
BRANCH  11  12
HETATM   12  C   UNL     1      66.168   7.912   5.114  1.00  0.00     0.174 C 
HETATM   13  C   UNL     1      67.676   7.760   5.051  1.00  0.00     0.034 C 
ENDBRANCH  11  12
ENDBRANCH   9  11
ENDBRANCH   1   9
TORSDOF 3
ENDMDL
MODEL 6
REMARK VINA RESULT:      -3.9      4.361      5.716
REMARK  3 active torsions:
REMARK  status: ('A' for Active; 'I' for Inactive)
REMARK    1  A    between atoms: C_1  and  C_7 
REMARK    2  A    between atoms: C_7  and  O_10 
REMARK    3  A    between atoms: O_10  and  C_12 
ROOT
HETATM    1  C   UNL     1      65.594   6.466   6.965  1.00  0.00     0.105 A 
HETATM    2  N   UNL     1      66.084   4.552   8.230  1.00  0.00    -0.343 N 
ATOM      3  HN  UNL     1      66.452   3.999   9.004  1.00  0.00     0.167 HD
HETATM    4  C   UNL     1      66.167   5.938   8.120  1.00  0.00     0.030 A 
HETATM    5  S   UNL     1      64.945   5.170   6.016  1.00  0.00    -0.052 SA
HETATM    6  C   UNL     1      65.462   4.070   7.188  1.00  0.00     0.146 A 
HETATM    7 CL   UNL     1      65.162   2.392   6.990  1.00  0.00    -0.056 Cl
HETATM    8  C   UNL     1      66.841   6.628   9.257  1.00  0.00     0.070 C 
ENDROOT
BRANCH   1   9
HETATM    9  C   UNL     1      65.452   7.816   6.456  1.00  0.00     0.302 C 
HETATM   10  O   UNL     1      66.331   8.667   6.421  1.00  0.00    -0.259 OA
BRANCH   9  11
HETATM   11  O   UNL     1      64.181   8.025   6.013  1.00  0.00    -0.317 OA
BRANCH  11  12
HETATM   12  C   UNL     1      64.028   8.898   4.885  1.00  0.00     0.174 C 
HETATM   13  C   UNL     1      63.041  10.006   5.198  1.00  0.00     0.034 C 
ENDBRANCH  11  12
ENDBRANCH   9  11
ENDBRANCH   1   9
TORSDOF 3
ENDMDL
MODEL 7
REMARK VINA RESULT:      -3.7      4.575      6.051
REMARK  3 active torsions:
REMARK  status: ('A' for Active; 'I' for Inactive)
REMARK    1  A    between atoms: C_1  and  C_7 
REMARK    2  A    between atoms: C_7  and  O_10 
REMARK    3  A    between atoms: O_10  and  C_12 
ROOT
HETATM    1  C   UNL     1      66.227   6.868   6.202  1.00  0.00     0.105 A 
HETATM    2  N   UNL     1      67.568   4.945   6.283  1.00  0.00    -0.343 N 
ATOM      3  HN  UNL     1      68.112   4.157   5.933  1.00  0.00     0.167 HD
HETATM    4  C   UNL     1      66.912   5.884   5.491  1.00  0.00     0.030 A 
HETATM    5  S   UNL     1      66.429   6.581   7.898  1.00  0.00    -0.052 SA
HETATM    6  C   UNL     1      67.377   5.229   7.544  1.00  0.00     0.146 A 
HETATM    7 CL   UNL     1      68.053   4.291   8.810  1.00  0.00    -0.056 Cl
HETATM    8  C   UNL     1      67.060   5.693   4.020  1.00  0.00     0.070 C 
ENDROOT
BRANCH   1   9
HETATM    9  C   UNL     1      65.434   8.013   5.798  1.00  0.00     0.302 C 
HETATM   10  O   UNL     1      65.677   9.184   6.062  1.00  0.00    -0.259 OA
BRANCH   9  11
HETATM   11  O   UNL     1      64.357   7.611   5.070  1.00  0.00    -0.317 OA
BRANCH  11  12
HETATM   12  C   UNL     1      63.289   8.558   4.924  1.00  0.00     0.174 C 
HETATM   13  C   UNL     1      62.921   8.726   3.462  1.00  0.00     0.034 C 
ENDBRANCH  11  12
ENDBRANCH   9  11
ENDBRANCH   1   9
TORSDOF 3
ENDMDL
MODEL 8
REMARK VINA RESULT:      -3.6      3.364      4.648
REMARK  3 active torsions:
REMARK  status: ('A' for Active; 'I' for Inactive)
REMARK    1  A    between atoms: C_1  and  C_7 
REMARK    2  A    between atoms: C_7  and  O_10 
REMARK    3  A    between atoms: O_10  and  C_12 
ROOT
HETATM    1  C   UNL     1      63.023   8.845   3.931  1.00  0.00     0.105 A 
HETATM    2  N   UNL     1      64.531   9.115   5.707  1.00  0.00    -0.343 N 
ATOM      3  HN  UNL     1      64.975   9.558   6.511  1.00  0.00     0.167 HD
HETATM    4  C   UNL     1      63.451   9.633   4.997  1.00  0.00     0.030 A 
HETATM    5  S   UNL     1      64.016   7.429   3.843  1.00  0.00    -0.052 SA
HETATM    6  C   UNL     1      64.888   7.972   5.184  1.00  0.00     0.146 A 
HETATM    7 CL   UNL     1      66.180   7.036   5.812  1.00  0.00    -0.056 Cl
HETATM    8  C   UNL     1      62.924  10.934   5.500  1.00  0.00     0.070 C 
ENDROOT
BRANCH   1   9
HETATM    9  C   UNL     1      61.962   8.991   2.953  1.00  0.00     0.302 C 
HETATM   10  O   UNL     1      62.103   9.329   1.785  1.00  0.00    -0.259 OA
BRANCH   9  11
HETATM   11  O   UNL     1      60.757   8.699   3.515  1.00  0.00    -0.317 OA
BRANCH  11  12
HETATM   12  C   UNL     1      60.173   7.435   3.165  1.00  0.00     0.174 C 
HETATM   13  C   UNL     1      60.115   6.521   4.374  1.00  0.00     0.034 C 
ENDBRANCH  11  12
ENDBRANCH   9  11
ENDBRANCH   1   9
TORSDOF 3
ENDMDL
MODEL 9
REMARK VINA RESULT:      -3.5      3.965      5.025
REMARK  3 active torsions:
REMARK  status: ('A' for Active; 'I' for Inactive)
REMARK    1  A    between atoms: C_1  and  C_7 
REMARK    2  A    between atoms: C_7  and  O_10 
REMARK    3  A    between atoms: O_10  and  C_12 
ROOT
HETATM    1  C   UNL     1      63.016   7.264   5.776  1.00  0.00     0.105 A 
HETATM    2  N   UNL     1      64.858   8.693   5.508  1.00  0.00    -0.343 N 
ATOM      3  HN  UNL     1      65.373   9.530   5.236  1.00  0.00     0.167 HD
HETATM    4  C   UNL     1      63.491   8.495   5.326  1.00  0.00     0.030 A 
HETATM    5  S   UNL     1      64.337   6.359   6.437  1.00  0.00    -0.052 SA
HETATM    6  C   UNL     1      65.377   7.641   6.082  1.00  0.00     0.146 A 
HETATM    7 CL   UNL     1      67.043   7.536   6.476  1.00  0.00    -0.056 Cl
HETATM    8  C   UNL     1      62.761   9.631   4.695  1.00  0.00     0.070 C 
ENDROOT
BRANCH   1   9
HETATM    9  C   UNL     1      61.701   6.654   5.791  1.00  0.00     0.302 C 
HETATM   10  O   UNL     1      61.066   6.291   4.809  1.00  0.00    -0.259 OA
BRANCH   9  11
HETATM   11  O   UNL     1      61.248   6.535   7.070  1.00  0.00    -0.317 OA
BRANCH  11  12
HETATM   12  C   UNL     1      60.271   5.513   7.314  1.00  0.00     0.174 C 
HETATM   13  C   UNL     1      59.183   6.025   8.240  1.00  0.00     0.034 C 
ENDBRANCH  11  12
ENDBRANCH   9  11
ENDBRANCH   1   9
TORSDOF 3
ENDMDL
