MODEL 1
REMARK VINA RESULT:      -5.9      0.000      0.000
REMARK  1 active torsions:
REMARK  status: ('A' for Active; 'I' for Inactive)
REMARK    1  A    between atoms: C_8  and  N_9 
ROOT
HETATM    1  C   UNL     1      65.016   7.633   4.463  1.00  0.00    -0.015 A 
HETATM    2  C   UNL     1      65.574   8.253   5.558  1.00  0.00     0.061 A 
HETATM    3  C   UNL     1      63.881   8.401   4.117  1.00  0.00     0.009 A 
HETATM    4  O   UNL     1      64.879   9.360   5.914  1.00  0.00    -0.314 OA
HETATM    5  C   UNL     1      63.840   9.452   5.030  1.00  0.00     0.086 A 
HETATM    6  C   UNL     1      62.886   8.331   3.125  1.00  0.00     0.043 A 
HETATM    7  C   UNL     1      62.876  10.455   5.008  1.00  0.00     0.040 A 
HETATM    8  C   UNL     1      61.861   9.290   3.104  1.00  0.00     0.026 A 
HETATM    9  C   UNL     1      61.899  10.360   4.006  1.00  0.00     0.032 A 
HETATM   10  C   UNL     1      65.588   6.395   3.874  1.00  0.00     0.042 C 
HETATM   11  C   UNL     1      66.796   7.859   6.292  1.00  0.00     0.066 C 
HETATM   12  C   UNL     1      67.030   6.171   4.373  1.00  0.00     0.005 C 
HETATM   13  C   UNL     1      67.169   6.414   5.892  1.00  0.00     0.007 C 
ENDROOT
BRANCH   8  14
HETATM   14  N   UNL     1      60.946   9.296   2.042  1.00  0.00    -0.399 N 
HETATM   15  H   UNL     1      61.170   9.757   1.200  1.00  0.00     0.156 HD
HETATM   16  H   UNL     1      60.078   8.841   2.137  1.00  0.00     0.156 HD
ENDBRANCH   8  14
TORSDOF 1
ENDMDL
MODEL 2
REMARK VINA RESULT:      -5.7      2.185      4.778
REMARK  1 active torsions:
REMARK  status: ('A' for Active; 'I' for Inactive)
REMARK    1  A    between atoms: C_8  and  N_9 
ROOT
HETATM    1  C   UNL     1      63.956   8.370   4.140  1.00  0.00    -0.015 A 
HETATM    2  C   UNL     1      63.976   9.373   5.082  1.00  0.00     0.061 A 
HETATM    3  C   UNL     1      65.129   7.611   4.353  1.00  0.00     0.009 A 
HETATM    4  O   UNL     1      65.069   9.289   5.878  1.00  0.00    -0.314 OA
HETATM    5  C   UNL     1      65.777   8.208   5.432  1.00  0.00     0.086 A 
HETATM    6  C   UNL     1      65.713   6.477   3.760  1.00  0.00     0.043 A 
HETATM    7  C   UNL     1      66.968   7.735   5.974  1.00  0.00     0.040 A 
HETATM    8  C   UNL     1      66.945   6.003   4.238  1.00  0.00     0.026 A 
HETATM    9  C   UNL     1      67.525   6.601   5.363  1.00  0.00     0.032 A 
HETATM   10  C   UNL     1      62.863   8.239   3.142  1.00  0.00     0.042 C 
HETATM   11  C   UNL     1      62.960  10.425   5.301  1.00  0.00     0.066 C 
HETATM   12  C   UNL     1      61.638   9.075   3.565  1.00  0.00     0.005 C 
HETATM   13  C   UNL     1      62.032  10.481   4.066  1.00  0.00     0.007 C 
ENDROOT
BRANCH   8  14
HETATM   14  N   UNL     1      67.462   4.801   3.735  1.00  0.00    -0.399 N 
HETATM   15  H   UNL     1      66.924   4.252   3.119  1.00  0.00     0.156 HD
HETATM   16  H   UNL     1      68.363   4.504   3.999  1.00  0.00     0.156 HD
ENDBRANCH   8  14
TORSDOF 1
ENDMDL
MODEL 3
REMARK VINA RESULT:      -5.5      1.521      1.757
REMARK  1 active torsions:
REMARK  status: ('A' for Active; 'I' for Inactive)
REMARK    1  A    between atoms: C_8  and  N_9 
ROOT
HETATM    1  C   UNL     1      63.711   7.691   3.907  1.00  0.00    -0.015 A 
HETATM    2  C   UNL     1      64.196   7.594   5.191  1.00  0.00     0.061 A 
HETATM    3  C   UNL     1      63.092   8.960   3.819  1.00  0.00     0.009 A 
HETATM    4  O   UNL     1      63.940   8.713   5.909  1.00  0.00    -0.314 OA
HETATM    5  C   UNL     1      63.263   9.552   5.068  1.00  0.00     0.086 A 
HETATM    6  C   UNL     1      62.415   9.679   2.818  1.00  0.00     0.043 A 
HETATM    7  C   UNL     1      62.815  10.832   5.382  1.00  0.00     0.040 A 
HETATM    8  C   UNL     1      61.895  10.950   3.111  1.00  0.00     0.026 A 
HETATM    9  C   UNL     1      62.146  11.526   4.362  1.00  0.00     0.032 A 
HETATM   10  C   UNL     1      63.860   6.595   2.916  1.00  0.00     0.042 C 
HETATM   11  C   UNL     1      64.951   6.470   5.787  1.00  0.00     0.066 C 
HETATM   12  C   UNL     1      64.931   5.586   3.377  1.00  0.00     0.005 C 
HETATM   13  C   UNL     1      64.796   5.232   4.875  1.00  0.00     0.007 C 
ENDROOT
BRANCH   8  14
HETATM   14  N   UNL     1      61.336  11.719   2.081  1.00  0.00    -0.399 N 
HETATM   15  H   UNL     1      61.204  11.326   1.187  1.00  0.00     0.156 HD
HETATM   16  H   UNL     1      61.074  12.653   2.251  1.00  0.00     0.156 HD
ENDBRANCH   8  14
TORSDOF 1
ENDMDL
MODEL 4
REMARK VINA RESULT:      -5.2      2.491      3.510
REMARK  1 active torsions:
REMARK  status: ('A' for Active; 'I' for Inactive)
REMARK    1  A    between atoms: C_8  and  N_9 
ROOT
HETATM    1  C   UNL     1      63.866   7.346   3.508  1.00  0.00    -0.015 A 
HETATM    2  C   UNL     1      63.115   7.134   2.374  1.00  0.00     0.061 A 
HETATM    3  C   UNL     1      63.478   8.612   4.003  1.00  0.00     0.009 A 
HETATM    4  O   UNL     1      62.275   8.168   2.130  1.00  0.00    -0.314 OA
HETATM    5  C   UNL     1      62.497   9.076   3.129  1.00  0.00     0.086 A 
HETATM    6  C   UNL     1      63.839   9.416   5.098  1.00  0.00     0.043 A 
HETATM    7  C   UNL     1      61.835  10.289   3.288  1.00  0.00     0.040 A 
HETATM    8  C   UNL     1      63.238  10.674   5.262  1.00  0.00     0.026 A 
HETATM    9  C   UNL     1      62.214  11.068   4.392  1.00  0.00     0.032 A 
HETATM   10  C   UNL     1      64.866   6.361   3.994  1.00  0.00     0.042 C 
HETATM   11  C   UNL     1      63.124   5.944   1.496  1.00  0.00     0.066 C 
HETATM   12  C   UNL     1      64.645   4.987   3.329  1.00  0.00     0.005 C 
HETATM   13  C   UNL     1      64.384   5.107   1.811  1.00  0.00     0.007 C 
ENDROOT
BRANCH   8  14
HETATM   14  N   UNL     1      63.501  11.417   6.421  1.00  0.00    -0.399 N 
HETATM   15  H   UNL     1      62.762  11.680   7.017  1.00  0.00     0.156 HD
HETATM   16  H   UNL     1      64.426  11.678   6.639  1.00  0.00     0.156 HD
ENDBRANCH   8  14
TORSDOF 1
ENDMDL
MODEL 5
REMARK VINA RESULT:      -5.1      2.583      5.253
REMARK  1 active torsions:
REMARK  status: ('A' for Active; 'I' for Inactive)
REMARK    1  A    between atoms: C_8  and  N_9 
ROOT
HETATM    1  C   UNL     1      63.286   8.521   3.479  1.00  0.00    -0.015 A 
HETATM    2  C   UNL     1      63.125   7.551   2.516  1.00  0.00     0.061 A 
HETATM    3  C   UNL     1      64.353   8.085   4.299  1.00  0.00     0.009 A 
HETATM    4  O   UNL     1      64.022   6.546   2.664  1.00  0.00    -0.314 OA
HETATM    5  C   UNL     1      64.776   6.873   3.757  1.00  0.00     0.086 A 
HETATM    6  C   UNL     1      65.016   8.584   5.434  1.00  0.00     0.043 A 
HETATM    7  C   UNL     1      65.836   6.130   4.266  1.00  0.00     0.040 A 
HETATM    8  C   UNL     1      66.053   7.837   6.014  1.00  0.00     0.026 A 
HETATM    9  C   UNL     1      66.481   6.655   5.396  1.00  0.00     0.032 A 
HETATM   10  C   UNL     1      62.426   9.730   3.541  1.00  0.00     0.042 C 
HETATM   11  C   UNL     1      62.156   7.540   1.400  1.00  0.00     0.066 C 
HETATM   12  C   UNL     1      61.667   9.926   2.212  1.00  0.00     0.005 C 
HETATM   13  C   UNL     1      61.071   8.605   1.678  1.00  0.00     0.007 C 
ENDROOT
BRANCH   8  14
HETATM   14  N   UNL     1      66.798   8.392   7.063  1.00  0.00    -0.399 N 
HETATM   15  H   UNL     1      66.523   9.249   7.465  1.00  0.00     0.156 HD
HETATM   16  H   UNL     1      67.599   7.926   7.399  1.00  0.00     0.156 HD
ENDBRANCH   8  14
TORSDOF 1
ENDMDL
MODEL 6
REMARK VINA RESULT:      -4.7      1.589      2.422
REMARK  1 active torsions:
REMARK  status: ('A' for Active; 'I' for Inactive)
REMARK    1  A    between atoms: C_8  and  N_9 
ROOT
HETATM    1  C   UNL     1      65.290   7.830   5.138  1.00  0.00    -0.015 A 
HETATM    2  C   UNL     1      65.180   6.734   4.313  1.00  0.00     0.061 A 
HETATM    3  C   UNL     1      64.263   8.719   4.746  1.00  0.00     0.009 A 
HETATM    4  O   UNL     1      64.150   6.865   3.443  1.00  0.00    -0.314 OA
HETATM    5  C   UNL     1      63.587   8.082   3.708  1.00  0.00     0.086 A 
HETATM    6  C   UNL     1      63.822   9.989   5.160  1.00  0.00     0.043 A 
HETATM    7  C   UNL     1      62.481   8.625   3.062  1.00  0.00     0.040 A 
HETATM    8  C   UNL     1      62.746  10.597   4.495  1.00  0.00     0.026 A 
HETATM    9  C   UNL     1      62.062   9.891   3.498  1.00  0.00     0.032 A 
HETATM   10  C   UNL     1      66.342   7.936   6.182  1.00  0.00     0.042 C 
HETATM   11  C   UNL     1      66.004   5.506   4.329  1.00  0.00     0.066 C 
HETATM   12  C   UNL     1      66.970   6.556   6.463  1.00  0.00     0.005 C 
HETATM   13  C   UNL     1      67.276   5.776   5.165  1.00  0.00     0.007 C 
ENDROOT
BRANCH   8  14
HETATM   14  N   UNL     1      62.224  11.801   4.989  1.00  0.00    -0.399 N 
HETATM   15  H   UNL     1      62.331  12.032   5.941  1.00  0.00     0.156 HD
HETATM   16  H   UNL     1      61.750  12.417   4.384  1.00  0.00     0.156 HD
ENDBRANCH   8  14
TORSDOF 1
ENDMDL
MODEL 7
REMARK VINA RESULT:      -4.7      1.500      2.513
REMARK  1 active torsions:
REMARK  status: ('A' for Active; 'I' for Inactive)
REMARK    1  A    between atoms: C_8  and  N_9 
ROOT
HETATM    1  C   UNL     1      65.320   7.539   4.897  1.00  0.00    -0.015 A 
HETATM    2  C   UNL     1      65.774   6.394   4.284  1.00  0.00     0.061 A 
HETATM    3  C   UNL     1      64.196   7.962   4.149  1.00  0.00     0.009 A 
HETATM    4  O   UNL     1      65.009   6.060   3.217  1.00  0.00    -0.314 OA
HETATM    5  C   UNL     1      64.040   7.021   3.134  1.00  0.00     0.086 A 
HETATM    6  C   UNL     1      63.284   9.030   4.224  1.00  0.00     0.043 A 
HETATM    7  C   UNL     1      63.018   7.066   2.192  1.00  0.00     0.040 A 
HETATM    8  C   UNL     1      62.273   9.146   3.257  1.00  0.00     0.026 A 
HETATM    9  C   UNL     1      62.122   8.142   2.293  1.00  0.00     0.032 A 
HETATM   10  C   UNL     1      65.985   8.120   6.091  1.00  0.00     0.042 C 
HETATM   11  C   UNL     1      66.915   5.545   4.691  1.00  0.00     0.066 C 
HETATM   12  C   UNL     1      66.929   7.089   6.742  1.00  0.00     0.005 C 
HETATM   13  C   UNL     1      67.782   6.334   5.699  1.00  0.00     0.007 C 
ENDROOT
BRANCH   8  14
HETATM   14  N   UNL     1      61.289  10.133   3.405  1.00  0.00    -0.399 N 
HETATM   15  H   UNL     1      60.536  10.178   2.771  1.00  0.00     0.156 HD
HETATM   16  H   UNL     1      61.350  10.783   4.143  1.00  0.00     0.156 HD
ENDBRANCH   8  14
TORSDOF 1
ENDMDL
MODEL 8
REMARK VINA RESULT:      -4.6      3.021      5.533
REMARK  1 active torsions:
REMARK  status: ('A' for Active; 'I' for Inactive)
REMARK    1  A    between atoms: C_8  and  N_9 
ROOT
HETATM    1  C   UNL     1      64.482   7.639   4.842  1.00  0.00    -0.015 A 
HETATM    2  C   UNL     1      64.405   6.918   3.672  1.00  0.00     0.061 A 
HETATM    3  C   UNL     1      65.533   7.060   5.589  1.00  0.00     0.009 A 
HETATM    4  O   UNL     1      65.340   5.940   3.625  1.00  0.00    -0.314 OA
HETATM    5  C   UNL     1      66.034   6.027   4.801  1.00  0.00     0.086 A 
HETATM    6  C   UNL     1      66.127   7.301   6.841  1.00  0.00     0.043 A 
HETATM    7  C   UNL     1      67.106   5.222   5.174  1.00  0.00     0.040 A 
HETATM    8  C   UNL     1      67.173   6.476   7.281  1.00  0.00     0.026 A 
HETATM    9  C   UNL     1      67.679   5.489   6.427  1.00  0.00     0.032 A 
HETATM   10  C   UNL     1      63.564   8.768   5.141  1.00  0.00     0.042 C 
HETATM   11  C   UNL     1      63.482   7.137   2.537  1.00  0.00     0.066 C 
HETATM   12  C   UNL     1      62.851   9.245   3.859  1.00  0.00     0.005 C 
HETATM   13  C   UNL     1      62.339   8.067   3.002  1.00  0.00     0.007 C 
ENDROOT
BRANCH   8  14
HETATM   14  N   UNL     1      67.849   6.795   8.468  1.00  0.00    -0.399 N 
HETATM   15  H   UNL     1      68.525   7.511   8.473  1.00  0.00     0.156 HD
HETATM   16  H   UNL     1      67.648   6.302   9.297  1.00  0.00     0.156 HD
ENDBRANCH   8  14
TORSDOF 1
ENDMDL
MODEL 9
REMARK VINA RESULT:      -4.4      2.896      5.158
REMARK  1 active torsions:
REMARK  status: ('A' for Active; 'I' for Inactive)
REMARK    1  A    between atoms: C_8  and  N_9 
ROOT
HETATM    1  C   UNL     1      63.059   7.825   4.372  1.00  0.00    -0.015 A 
HETATM    2  C   UNL     1      62.092   6.949   4.808  1.00  0.00     0.061 A 
HETATM    3  C   UNL     1      64.203   7.570   5.164  1.00  0.00     0.009 A 
HETATM    4  O   UNL     1      62.550   6.154   5.805  1.00  0.00    -0.314 OA
HETATM    5  C   UNL     1      63.845   6.535   6.023  1.00  0.00     0.086 A 
HETATM    6  C   UNL     1      65.506   8.094   5.243  1.00  0.00     0.043 A 
HETATM    7  C   UNL     1      64.714   5.970   6.952  1.00  0.00     0.040 A 
HETATM    8  C   UNL     1      66.395   7.592   6.206  1.00  0.00     0.026 A 
HETATM    9  C   UNL     1      66.008   6.510   7.006  1.00  0.00     0.032 A 
HETATM   10  C   UNL     1      62.810   8.807   3.286  1.00  0.00     0.042 C 
HETATM   11  C   UNL     1      60.716   6.791   4.289  1.00  0.00     0.066 C 
HETATM   12  C   UNL     1      61.540   8.433   2.495  1.00  0.00     0.005 C 
HETATM   13  C   UNL     1      60.373   8.023   3.420  1.00  0.00     0.007 C 
ENDROOT
BRANCH   8  14
HETATM   14  N   UNL     1      67.730   8.020   6.200  1.00  0.00    -0.399 N 
HETATM   15  H   UNL     1      67.950   8.954   6.424  1.00  0.00     0.156 HD
HETATM   16  H   UNL     1      68.449   7.388   5.970  1.00  0.00     0.156 HD
ENDBRANCH   8  14
TORSDOF 1
ENDMDL
