MODEL 1
REMARK VINA RESULT:      -6.2      0.000      0.000
REMARK  1 active torsions:
REMARK  status: ('A' for Active; 'I' for Inactive)
REMARK    1  A    between atoms: C_3  and  C_9 
ROOT
HETATM    1  N   UNL     1      63.237  10.001   5.913  1.00  0.00    -0.264 N 
ATOM      2  HN  UNL     1      63.562   9.976   6.879  1.00  0.00     0.194 HD
HETATM    3  C   UNL     1      63.292   8.980   5.024  1.00  0.00     0.050 A 
HETATM    4  C   UNL     1      62.772   9.427   3.828  1.00  0.00     0.028 A 
HETATM    5  O   UNL     1      62.688  11.025   5.307  1.00  0.00    -0.237 OA
HETATM    6  C   UNL     1      62.406  10.716   4.061  1.00  0.00     0.111 A 
HETATM    7  C   UNL     1      62.623   8.827   2.577  1.00  0.00     0.058 A 
HETATM    8  C   UNL     1      61.839  11.514   3.068  1.00  0.00     0.043 A 
HETATM    9  C   UNL     1      62.065   9.606   1.546  1.00  0.00     0.117 A 
HETATM   10  C   UNL     1      61.671  10.942   1.790  1.00  0.00     0.045 A 
HETATM   11  F   UNL     1      61.912   9.071   0.309  1.00  0.00    -0.206 F 
ENDROOT
BRANCH   3  12
HETATM   12  C   UNL     1      63.847   7.605   5.292  1.00  0.00     0.042 C 
HETATM   13  C   UNL     1      65.260   7.670   5.876  1.00  0.00     0.038 C 
HETATM   14  C   UNL     1      65.806   6.242   5.991  1.00  0.00     0.233 C 
HETATM   15  N   UNL     1      64.947   5.428   6.861  1.00  0.00    -0.075 N 
HETATM   16  C   UNL     1      63.561   5.366   6.366  1.00  0.00     0.233 C 
HETATM   17  H   UNL     1      65.325   4.481   6.904  1.00  0.00     0.277 HD
HETATM   18  H   UNL     1      64.933   5.861   7.785  1.00  0.00     0.277 HD
HETATM   19  C   UNL     1      62.959   6.773   6.236  1.00  0.00     0.038 C 
ENDBRANCH   3  12
TORSDOF 1
ENDMDL
MODEL 2
REMARK VINA RESULT:      -6.0      2.571      5.487
REMARK  1 active torsions:
REMARK  status: ('A' for Active; 'I' for Inactive)
REMARK    1  A    between atoms: C_3  and  C_9 
ROOT
HETATM    1  N   UNL     1      62.843   8.211   6.267  1.00  0.00    -0.264 N 
ATOM      2  HN  UNL     1      62.002   8.733   6.512  1.00  0.00     0.194 HD
HETATM    3  C   UNL     1      63.492   8.253   5.079  1.00  0.00     0.050 A 
HETATM    4  C   UNL     1      64.564   7.388   5.148  1.00  0.00     0.028 A 
HETATM    5  O   UNL     1      63.492   7.380   7.045  1.00  0.00    -0.237 OA
HETATM    6  C   UNL     1      64.519   6.868   6.405  1.00  0.00     0.111 A 
HETATM    7  C   UNL     1      65.534   7.006   4.220  1.00  0.00     0.058 A 
HETATM    8  C   UNL     1      65.451   5.933   6.850  1.00  0.00     0.043 A 
HETATM    9  C   UNL     1      66.485   6.054   4.631  1.00  0.00     0.117 A 
HETATM   10  C   UNL     1      66.448   5.523   5.941  1.00  0.00     0.045 A 
HETATM   11  F   UNL     1      67.439   5.641   3.761  1.00  0.00    -0.206 F 
ENDROOT
BRANCH   3  12
HETATM   12  C   UNL     1      63.097   9.083   3.885  1.00  0.00     0.042 C 
HETATM   13  C   UNL     1      62.385   8.241   2.824  1.00  0.00     0.038 C 
HETATM   14  C   UNL     1      62.139   9.118   1.590  1.00  0.00     0.233 C 
HETATM   15  N   UNL     1      61.312  10.281   1.938  1.00  0.00    -0.075 N 
HETATM   16  C   UNL     1      61.933  11.106   2.988  1.00  0.00     0.233 C 
HETATM   17  H   UNL     1      61.181  10.853   1.104  1.00  0.00     0.277 HD
HETATM   18  H   UNL     1      60.419   9.938   2.293  1.00  0.00     0.277 HD
HETATM   19  C   UNL     1      62.198  10.277   4.255  1.00  0.00     0.038 C 
ENDBRANCH   3  12
TORSDOF 1
ENDMDL
MODEL 3
REMARK VINA RESULT:      -5.8      2.852      5.265
REMARK  1 active torsions:
REMARK  status: ('A' for Active; 'I' for Inactive)
REMARK    1  A    between atoms: C_3  and  C_9 
ROOT
HETATM    1  N   UNL     1      64.125   9.340   5.430  1.00  0.00    -0.264 N 
ATOM      2  HN  UNL     1      63.406  10.036   5.624  1.00  0.00     0.194 HD
HETATM    3  C   UNL     1      64.063   8.366   4.491  1.00  0.00     0.050 A 
HETATM    4  C   UNL     1      65.224   7.625   4.567  1.00  0.00     0.028 A 
HETATM    5  O   UNL     1      65.277   9.225   6.045  1.00  0.00    -0.237 OA
HETATM    6  C   UNL     1      65.952   8.209   5.557  1.00  0.00     0.111 A 
HETATM    7  C   UNL     1      65.674   6.496   3.881  1.00  0.00     0.058 A 
HETATM    8  C   UNL     1      67.203   7.725   5.936  1.00  0.00     0.043 A 
HETATM    9  C   UNL     1      66.928   5.972   4.245  1.00  0.00     0.117 A 
HETATM   10  C   UNL     1      67.692   6.586   5.265  1.00  0.00     0.045 A 
HETATM   11  F   UNL     1      67.402   4.868   3.617  1.00  0.00    -0.206 F 
ENDROOT
BRANCH   3  12
HETATM   12  C   UNL     1      62.916   8.123   3.545  1.00  0.00     0.042 C 
HETATM   13  C   UNL     1      61.736   7.450   4.251  1.00  0.00     0.038 C 
HETATM   14  C   UNL     1      60.669   7.112   3.202  1.00  0.00     0.233 C 
HETATM   15  N   UNL     1      60.211   8.329   2.519  1.00  0.00    -0.075 N 
HETATM   16  C   UNL     1      61.317   9.040   1.856  1.00  0.00     0.233 C 
HETATM   17  H   UNL     1      59.517   8.071   1.817  1.00  0.00     0.277 HD
HETATM   18  H   UNL     1      59.811   8.952   3.221  1.00  0.00     0.277 HD
HETATM   19  C   UNL     1      62.417   9.410   2.864  1.00  0.00     0.038 C 
ENDBRANCH   3  12
TORSDOF 1
ENDMDL
MODEL 4
REMARK VINA RESULT:      -5.7      2.413      3.108
REMARK  1 active torsions:
REMARK  status: ('A' for Active; 'I' for Inactive)
REMARK    1  A    between atoms: C_3  and  C_9 
ROOT
HETATM    1  N   UNL     1      64.126   6.847   3.425  1.00  0.00    -0.264 N 
ATOM      2  HN  UNL     1      64.548   5.930   3.277  1.00  0.00     0.194 HD
HETATM    3  C   UNL     1      64.398   7.697   4.443  1.00  0.00     0.050 A 
HETATM    4  C   UNL     1      63.602   8.813   4.291  1.00  0.00     0.028 A 
HETATM    5  O   UNL     1      63.223   7.414   2.664  1.00  0.00    -0.237 OA
HETATM    6  C   UNL     1      62.885   8.585   3.157  1.00  0.00     0.111 A 
HETATM    7  C   UNL     1      63.434   9.968   5.055  1.00  0.00     0.058 A 
HETATM    8  C   UNL     1      61.951   9.501   2.677  1.00  0.00     0.043 A 
HETATM    9  C   UNL     1      62.490  10.911   4.608  1.00  0.00     0.117 A 
HETATM   10  C   UNL     1      61.754  10.682   3.422  1.00  0.00     0.045 A 
HETATM   11  F   UNL     1      62.281  12.044   5.325  1.00  0.00    -0.206 F 
ENDROOT
BRANCH   3  12
HETATM   12  C   UNL     1      65.382   7.455   5.558  1.00  0.00     0.042 C 
HETATM   13  C   UNL     1      64.788   6.561   6.649  1.00  0.00     0.038 C 
HETATM   14  C   UNL     1      65.791   6.473   7.807  1.00  0.00     0.233 C 
HETATM   15  N   UNL     1      67.067   5.912   7.344  1.00  0.00    -0.075 N 
HETATM   16  C   UNL     1      67.663   6.713   6.262  1.00  0.00     0.233 C 
HETATM   17  H   UNL     1      67.717   5.883   8.130  1.00  0.00     0.277 HD
HETATM   18  H   UNL     1      66.886   4.976   6.981  1.00  0.00     0.277 HD
HETATM   19  C   UNL     1      66.701   6.830   5.069  1.00  0.00     0.038 C 
ENDBRANCH   3  12
TORSDOF 1
ENDMDL
MODEL 5
REMARK VINA RESULT:      -5.2      1.636      2.081
REMARK  1 active torsions:
REMARK  status: ('A' for Active; 'I' for Inactive)
REMARK    1  A    between atoms: C_3  and  C_9 
ROOT
HETATM    1  N   UNL     1      63.560   8.753   5.966  1.00  0.00    -0.264 N 
ATOM      2  HN  UNL     1      63.942   8.484   6.873  1.00  0.00     0.194 HD
HETATM    3  C   UNL     1      63.548   7.992   4.846  1.00  0.00     0.050 A 
HETATM    4  C   UNL     1      62.965   8.729   3.836  1.00  0.00     0.028 A 
HETATM    5  O   UNL     1      62.993   9.898   5.675  1.00  0.00    -0.237 OA
HETATM    6  C   UNL     1      62.633   9.917   4.411  1.00  0.00     0.111 A 
HETATM    7  C   UNL     1      62.733   8.467   2.485  1.00  0.00     0.058 A 
HETATM    8  C   UNL     1      62.021  10.940   3.690  1.00  0.00     0.043 A 
HETATM    9  C   UNL     1      62.128   9.483   1.722  1.00  0.00     0.117 A 
HETATM   10  C   UNL     1      61.769  10.712   2.321  1.00  0.00     0.045 A 
HETATM   11  F   UNL     1      61.894   9.280   0.402  1.00  0.00    -0.206 F 
ENDROOT
BRANCH   3  12
HETATM   12  C   UNL     1      64.095   6.594   4.721  1.00  0.00     0.042 C 
HETATM   13  C   UNL     1      63.002   5.592   4.343  1.00  0.00     0.038 C 
HETATM   14  C   UNL     1      63.603   4.181   4.370  1.00  0.00     0.233 C 
HETATM   15  N   UNL     1      64.721   4.078   3.423  1.00  0.00    -0.075 N 
HETATM   16  C   UNL     1      65.786   5.051   3.716  1.00  0.00     0.233 C 
HETATM   17  H   UNL     1      65.111   3.136   3.476  1.00  0.00     0.277 HD
HETATM   18  H   UNL     1      64.362   4.275   2.488  1.00  0.00     0.277 HD
HETATM   19  C   UNL     1      65.240   6.487   3.697  1.00  0.00     0.038 C 
ENDBRANCH   3  12
TORSDOF 1
ENDMDL
MODEL 6
REMARK VINA RESULT:      -5.0      3.178      5.832
REMARK  1 active torsions:
REMARK  status: ('A' for Active; 'I' for Inactive)
REMARK    1  A    between atoms: C_3  and  C_9 
ROOT
HETATM    1  N   UNL     1      65.280   9.072   5.712  1.00  0.00    -0.264 N 
ATOM      2  HN  UNL     1      65.138  10.004   5.323  1.00  0.00     0.194 HD
HETATM    3  C   UNL     1      64.536   7.972   5.444  1.00  0.00     0.050 A 
HETATM    4  C   UNL     1      65.041   6.925   6.187  1.00  0.00     0.028 A 
HETATM    5  O   UNL     1      66.215   8.722   6.561  1.00  0.00    -0.237 OA
HETATM    6  C   UNL     1      66.096   7.450   6.868  1.00  0.00     0.111 A 
HETATM    7  C   UNL     1      64.649   5.594   6.336  1.00  0.00     0.058 A 
HETATM    8  C   UNL     1      66.863   6.685   7.744  1.00  0.00     0.043 A 
HETATM    9  C   UNL     1      65.394   4.794   7.222  1.00  0.00     0.117 A 
HETATM   10  C   UNL     1      66.499   5.334   7.920  1.00  0.00     0.045 A 
HETATM   11  F   UNL     1      65.044   3.497   7.410  1.00  0.00    -0.206 F 
ENDROOT
BRANCH   3  12
HETATM   12  C   UNL     1      63.352   7.910   4.515  1.00  0.00     0.042 C 
HETATM   13  C   UNL     1      62.761   9.300   4.262  1.00  0.00     0.038 C 
HETATM   14  C   UNL     1      61.486   9.142   3.424  1.00  0.00     0.233 C 
HETATM   15  N   UNL     1      61.786   8.488   2.144  1.00  0.00    -0.075 N 
HETATM   16  C   UNL     1      62.397   7.161   2.330  1.00  0.00     0.233 C 
HETATM   17  H   UNL     1      60.918   8.381   1.618  1.00  0.00     0.277 HD
HETATM   18  H   UNL     1      62.452   9.074   1.639  1.00  0.00     0.277 HD
HETATM   19  C   UNL     1      63.686   7.260   3.160  1.00  0.00     0.038 C 
ENDBRANCH   3  12
TORSDOF 1
ENDMDL
MODEL 7
REMARK VINA RESULT:      -5.0      2.563      3.574
REMARK  1 active torsions:
REMARK  status: ('A' for Active; 'I' for Inactive)
REMARK    1  A    between atoms: C_3  and  C_9 
ROOT
HETATM    1  N   UNL     1      66.264   8.503   6.696  1.00  0.00    -0.264 N 
ATOM      2  HN  UNL     1      66.985   8.791   7.357  1.00  0.00     0.194 HD
HETATM    3  C   UNL     1      65.956   7.229   6.355  1.00  0.00     0.050 A 
HETATM    4  C   UNL     1      64.944   7.270   5.419  1.00  0.00     0.028 A 
HETATM    5  O   UNL     1      65.469   9.297   6.023  1.00  0.00    -0.237 OA
HETATM    6  C   UNL     1      64.675   8.593   5.248  1.00  0.00     0.111 A 
HETATM    7  C   UNL     1      64.277   6.277   4.701  1.00  0.00     0.058 A 
HETATM    8  C   UNL     1      63.700   9.038   4.357  1.00  0.00     0.043 A 
HETATM    9  C   UNL     1      63.294   6.691   3.782  1.00  0.00     0.117 A 
HETATM   10  C   UNL     1      63.002   8.064   3.614  1.00  0.00     0.045 A 
HETATM   11  F   UNL     1      62.627   5.763   3.051  1.00  0.00    -0.206 F 
ENDROOT
BRANCH   3  12
HETATM   12  C   UNL     1      66.619   5.985   6.890  1.00  0.00     0.042 C 
HETATM   13  C   UNL     1      67.310   6.248   8.230  1.00  0.00     0.038 C 
HETATM   14  C   UNL     1      68.073   4.982   8.641  1.00  0.00     0.233 C 
HETATM   15  N   UNL     1      67.154   3.843   8.770  1.00  0.00    -0.075 N 
HETATM   16  C   UNL     1      66.430   3.573   7.516  1.00  0.00     0.233 C 
HETATM   17  H   UNL     1      67.691   3.014   9.025  1.00  0.00     0.277 HD
HETATM   18  H   UNL     1      66.467   4.072   9.488  1.00  0.00     0.277 HD
HETATM   19  C   UNL     1      65.640   4.809   7.059  1.00  0.00     0.038 C 
ENDBRANCH   3  12
TORSDOF 1
ENDMDL
MODEL 8
REMARK VINA RESULT:      -5.0      2.823      3.362
REMARK  1 active torsions:
REMARK  status: ('A' for Active; 'I' for Inactive)
REMARK    1  A    between atoms: C_3  and  C_9 
ROOT
HETATM    1  N   UNL     1      62.478   7.915   1.215  1.00  0.00    -0.264 N 
ATOM      2  HN  UNL     1      62.535   7.090   0.618  1.00  0.00     0.194 HD
HETATM    3  C   UNL     1      62.777   7.969   2.535  1.00  0.00     0.050 A 
HETATM    4  C   UNL     1      62.548   9.257   2.972  1.00  0.00     0.028 A 
HETATM    5  O   UNL     1      62.104   9.114   0.843  1.00  0.00    -0.237 OA
HETATM    6  C   UNL     1      62.130   9.935   1.869  1.00  0.00     0.111 A 
HETATM    7  C   UNL     1      62.645   9.863   4.225  1.00  0.00     0.058 A 
HETATM    8  C   UNL     1      61.788  11.285   1.919  1.00  0.00     0.043 A 
HETATM    9  C   UNL     1      62.296  11.223   4.316  1.00  0.00     0.117 A 
HETATM   10  C   UNL     1      61.875  11.934   3.168  1.00  0.00     0.045 A 
HETATM   11  F   UNL     1      62.361  11.853   5.515  1.00  0.00    -0.206 F 
ENDROOT
BRANCH   3  12
HETATM   12  C   UNL     1      63.254   6.817   3.381  1.00  0.00     0.042 C 
HETATM   13  C   UNL     1      63.037   5.474   2.679  1.00  0.00     0.038 C 
HETATM   14  C   UNL     1      63.417   4.349   3.650  1.00  0.00     0.233 C 
HETATM   15  N   UNL     1      64.821   4.473   4.061  1.00  0.00    -0.075 N 
HETATM   16  C   UNL     1      65.096   5.768   4.707  1.00  0.00     0.233 C 
HETATM   17  H   UNL     1      65.038   3.724   4.719  1.00  0.00     0.277 HD
HETATM   18  H   UNL     1      65.402   4.408   3.225  1.00  0.00     0.277 HD
HETATM   19  C   UNL     1      64.738   6.935   3.774  1.00  0.00     0.038 C 
ENDBRANCH   3  12
TORSDOF 1
ENDMDL
MODEL 9
REMARK VINA RESULT:      -4.8      3.658      5.884
REMARK  1 active torsions:
REMARK  status: ('A' for Active; 'I' for Inactive)
REMARK    1  A    between atoms: C_3  and  C_9 
ROOT
HETATM    1  N   UNL     1      64.675   5.741   2.684  1.00  0.00    -0.264 N 
ATOM      2  HN  UNL     1      64.164   5.341   1.898  1.00  0.00     0.194 HD
HETATM    3  C   UNL     1      64.358   6.878   3.348  1.00  0.00     0.050 A 
HETATM    4  C   UNL     1      65.310   7.080   4.326  1.00  0.00     0.028 A 
HETATM    5  O   UNL     1      65.756   5.247   3.236  1.00  0.00    -0.237 OA
HETATM    6  C   UNL     1      66.162   6.026   4.214  1.00  0.00     0.111 A 
HETATM    7  C   UNL     1      65.504   8.096   5.263  1.00  0.00     0.058 A 
HETATM    8  C   UNL     1      67.275   5.885   5.041  1.00  0.00     0.043 A 
HETATM    9  C   UNL     1      66.625   7.993   6.108  1.00  0.00     0.117 A 
HETATM   10  C   UNL     1      67.504   6.891   6.002  1.00  0.00     0.045 A 
HETATM   11  F   UNL     1      66.864   8.963   7.025  1.00  0.00    -0.206 F 
ENDROOT
BRANCH   3  12
HETATM   12  C   UNL     1      63.184   7.776   3.054  1.00  0.00     0.042 C 
HETATM   13  C   UNL     1      62.678   7.591   1.622  1.00  0.00     0.038 C 
HETATM   14  C   UNL     1      61.580   8.628   1.355  1.00  0.00     0.233 C 
HETATM   15  N   UNL     1      60.469   8.460   2.300  1.00  0.00    -0.075 N 
HETATM   16  C   UNL     1      60.909   8.587   3.699  1.00  0.00     0.233 C 
HETATM   17  H   UNL     1      59.765   9.173   2.109  1.00  0.00     0.277 HD
HETATM   18  H   UNL     1      60.087   7.522   2.173  1.00  0.00     0.277 HD
HETATM   19  C   UNL     1      62.009   7.565   4.025  1.00  0.00     0.038 C 
ENDBRANCH   3  12
TORSDOF 1
ENDMDL
