MODEL 1
REMARK VINA RESULT:      -4.7      0.000      0.000
REMARK  1 active torsions:
REMARK  status: ('A' for Active; 'I' for Inactive)
REMARK    1  A    between atoms: N_1  and  C_4 
ROOT
HETATM    1  N   UNL     1      60.731   8.368   1.748  1.00  0.00    -0.191 NA
HETATM    2  C   UNL     1      61.689   8.202   2.387  1.00  0.00     0.099 C 
HETATM    3  C   UNL     1      65.244   7.657   4.676  1.00  0.00     0.030 A 
HETATM    4  C   UNL     1      64.375   8.734   4.911  1.00  0.00     0.031 A 
HETATM    5  C   UNL     1      64.873   6.749   3.674  1.00  0.00     0.031 A 
HETATM    6  C   UNL     1      62.870   8.008   3.169  1.00  0.00     0.044 A 
HETATM    7  C   UNL     1      63.699   6.910   2.928  1.00  0.00     0.025 A 
HETATM    8  C   UNL     1      63.209   8.916   4.164  1.00  0.00     0.025 A 
ENDROOT
BRANCH   3   9
HETATM    9  N   UNL     1      66.409   7.500   5.394  1.00  0.00    -0.378 N 
HETATM   10  C   UNL     1      67.397   6.462   5.068  1.00  0.00     0.150 C 
HETATM   11  C   UNL     1      67.646   5.530   6.271  1.00  0.00     0.252 C 
HETATM   12  N   UNL     1      67.979   6.249   7.519  1.00  0.00    -0.072 N 
HETATM   13  C   UNL     1      66.903   7.222   7.807  1.00  0.00     0.252 C 
HETATM   14  H   UNL     1      68.865   6.741   7.406  1.00  0.00     0.277 HD
HETATM   15  H   UNL     1      68.064   5.587   8.290  1.00  0.00     0.277 HD
HETATM   16  C   UNL     1      66.633   8.220   6.655  1.00  0.00     0.150 C 
ENDBRANCH   3   9
TORSDOF 1
ENDMDL
MODEL 2
REMARK VINA RESULT:      -4.7      1.644      5.823
REMARK  1 active torsions:
REMARK  status: ('A' for Active; 'I' for Inactive)
REMARK    1  A    between atoms: N_1  and  C_4 
ROOT
HETATM    1  N   UNL     1      67.744   5.344   6.184  1.00  0.00    -0.191 NA
HETATM    2  C   UNL     1      66.870   5.957   5.719  1.00  0.00     0.099 C 
HETATM    3  C   UNL     1      63.614   8.176   4.092  1.00  0.00     0.030 A 
HETATM    4  C   UNL     1      64.431   8.702   5.103  1.00  0.00     0.031 A 
HETATM    5  C   UNL     1      63.937   6.897   3.617  1.00  0.00     0.031 A 
HETATM    6  C   UNL     1      65.792   6.709   5.159  1.00  0.00     0.044 A 
HETATM    7  C   UNL     1      65.015   6.167   4.134  1.00  0.00     0.025 A 
HETATM    8  C   UNL     1      65.499   7.980   5.640  1.00  0.00     0.025 A 
ENDROOT
BRANCH   3   9
HETATM    9  N   UNL     1      62.542   8.880   3.589  1.00  0.00    -0.378 N 
HETATM   10  C   UNL     1      62.017   8.650   2.236  1.00  0.00     0.150 C 
HETATM   11  C   UNL     1      62.047   9.944   1.397  1.00  0.00     0.252 C 
HETATM   12  N   UNL     1      61.401  11.096   2.062  1.00  0.00    -0.072 N 
HETATM   13  C   UNL     1      62.034  11.298   3.383  1.00  0.00     0.252 C 
HETATM   14  H   UNL     1      60.406  10.909   2.182  1.00  0.00     0.277 HD
HETATM   15  H   UNL     1      61.514  11.934   1.491  1.00  0.00     0.277 HD
HETATM   16  C   UNL     1      61.996  10.048   4.296  1.00  0.00     0.150 C 
ENDBRANCH   3   9
TORSDOF 1
ENDMDL
MODEL 3
REMARK VINA RESULT:      -4.5      3.704      6.632
REMARK  1 active torsions:
REMARK  status: ('A' for Active; 'I' for Inactive)
REMARK    1  A    between atoms: N_1  and  C_4 
ROOT
HETATM    1  N   UNL     1      63.840  11.685   6.689  1.00  0.00    -0.191 NA
HETATM    2  C   UNL     1      63.414  11.012   5.840  1.00  0.00     0.099 C 
HETATM    3  C   UNL     1      61.770   8.548   2.774  1.00  0.00     0.030 A 
HETATM    4  C   UNL     1      61.573   9.937   2.786  1.00  0.00     0.031 A 
HETATM    5  C   UNL     1      62.559   8.010   3.800  1.00  0.00     0.031 A 
HETATM    6  C   UNL     1      62.880  10.189   4.800  1.00  0.00     0.044 A 
HETATM    7  C   UNL     1      63.117   8.813   4.802  1.00  0.00     0.025 A 
HETATM    8  C   UNL     1      62.110  10.748   3.788  1.00  0.00     0.025 A 
ENDROOT
BRANCH   3   9
HETATM    9  N   UNL     1      61.210   7.748   1.802  1.00  0.00    -0.378 N 
HETATM   10  C   UNL     1      60.345   8.288   0.744  1.00  0.00     0.150 C 
HETATM   11  C   UNL     1      58.957   7.615   0.759  1.00  0.00     0.252 C 
HETATM   12  N   UNL     1      59.015   6.138   0.738  1.00  0.00    -0.072 N 
HETATM   13  C   UNL     1      59.846   5.679   1.872  1.00  0.00     0.252 C 
HETATM   14  H   UNL     1      59.427   5.823  -0.140  1.00  0.00     0.277 HD
HETATM   15  H   UNL     1      58.073   5.753   0.819  1.00  0.00     0.277 HD
HETATM   16  C   UNL     1      61.271   6.282   1.890  1.00  0.00     0.150 C 
ENDBRANCH   3   9
TORSDOF 1
ENDMDL
MODEL 4
REMARK VINA RESULT:      -4.5      1.740      6.196
REMARK  1 active torsions:
REMARK  status: ('A' for Active; 'I' for Inactive)
REMARK    1  A    between atoms: N_1  and  C_4 
ROOT
HETATM    1  N   UNL     1      66.721   6.407   7.817  1.00  0.00    -0.191 NA
HETATM    2  C   UNL     1      65.875   6.768   7.104  1.00  0.00     0.099 C 
HETATM    3  C   UNL     1      62.760   8.164   4.549  1.00  0.00     0.030 A 
HETATM    4  C   UNL     1      64.050   8.715   4.507  1.00  0.00     0.031 A 
HETATM    5  C   UNL     1      62.551   7.109   5.449  1.00  0.00     0.031 A 
HETATM    6  C   UNL     1      64.837   7.222   6.233  1.00  0.00     0.044 A 
HETATM    7  C   UNL     1      63.572   6.633   6.281  1.00  0.00     0.025 A 
HETATM    8  C   UNL     1      65.073   8.262   5.342  1.00  0.00     0.025 A 
ENDROOT
BRANCH   3   9
HETATM    9  N   UNL     1      61.745   8.637   3.747  1.00  0.00    -0.378 N 
HETATM   10  C   UNL     1      60.452   7.951   3.632  1.00  0.00     0.150 C 
HETATM   11  C   UNL     1      60.150   7.569   2.168  1.00  0.00     0.252 C 
HETATM   12  N   UNL     1      60.271   8.701   1.224  1.00  0.00    -0.072 N 
HETATM   13  C   UNL     1      61.621   9.288   1.358  1.00  0.00     0.252 C 
HETATM   14  H   UNL     1      59.566   9.406   1.441  1.00  0.00     0.277 HD
HETATM   15  H   UNL     1      60.128   8.373   0.269  1.00  0.00     0.277 HD
HETATM   16  C   UNL     1      61.972   9.737   2.798  1.00  0.00     0.150 C 
ENDBRANCH   3   9
TORSDOF 1
ENDMDL
MODEL 5
REMARK VINA RESULT:      -4.5      1.743      2.471
REMARK  1 active torsions:
REMARK  status: ('A' for Active; 'I' for Inactive)
REMARK    1  A    between atoms: N_1  and  C_4 
ROOT
HETATM    1  N   UNL     1      61.700  11.094   3.950  1.00  0.00    -0.191 NA
HETATM    2  C   UNL     1      62.436  10.201   4.075  1.00  0.00     0.099 C 
HETATM    3  C   UNL     1      65.067   6.886   4.585  1.00  0.00     0.030 A 
HETATM    4  C   UNL     1      64.066   6.887   3.601  1.00  0.00     0.031 A 
HETATM    5  C   UNL     1      65.183   8.039   5.373  1.00  0.00     0.031 A 
HETATM    6  C   UNL     1      63.331   9.098   4.232  1.00  0.00     0.044 A 
HETATM    7  C   UNL     1      64.334   9.140   5.203  1.00  0.00     0.025 A 
HETATM    8  C   UNL     1      63.202   7.971   3.430  1.00  0.00     0.025 A 
ENDROOT
BRANCH   3   9
HETATM    9  N   UNL     1      65.895   5.800   4.771  1.00  0.00    -0.378 N 
HETATM   10  C   UNL     1      65.378   4.431   4.892  1.00  0.00     0.150 C 
HETATM   11  C   UNL     1      65.803   3.787   6.227  1.00  0.00     0.252 C 
HETATM   12  N   UNL     1      67.258   3.863   6.484  1.00  0.00    -0.072 N 
HETATM   13  C   UNL     1      67.680   5.278   6.411  1.00  0.00     0.252 C 
HETATM   14  H   UNL     1      67.759   3.318   5.782  1.00  0.00     0.277 HD
HETATM   15  H   UNL     1      67.467   3.485   7.408  1.00  0.00     0.277 HD
HETATM   16  C   UNL     1      67.323   5.972   5.074  1.00  0.00     0.150 C 
ENDBRANCH   3   9
TORSDOF 1
ENDMDL
MODEL 6
REMARK VINA RESULT:      -4.2      2.904      4.991
REMARK  1 active torsions:
REMARK  status: ('A' for Active; 'I' for Inactive)
REMARK    1  A    between atoms: N_1  and  C_4 
ROOT
HETATM    1  N   UNL     1      56.246   6.522   0.858  1.00  0.00    -0.191 NA
HETATM    2  C   UNL     1      57.254   6.938   1.265  1.00  0.00     0.099 C 
HETATM    3  C   UNL     1      60.991   8.382   2.723  1.00  0.00     0.030 A 
HETATM    4  C   UNL     1      60.623   8.520   1.376  1.00  0.00     0.031 A 
HETATM    5  C   UNL     1      60.058   7.775   3.576  1.00  0.00     0.031 A 
HETATM    6  C   UNL     1      58.498   7.441   1.758  1.00  0.00     0.044 A 
HETATM    7  C   UNL     1      58.822   7.312   3.110  1.00  0.00     0.025 A 
HETATM    8  C   UNL     1      59.400   8.049   0.894  1.00  0.00     0.025 A 
ENDROOT
BRANCH   3   9
HETATM    9  N   UNL     1      62.212   8.818   3.187  1.00  0.00    -0.378 N 
HETATM   10  C   UNL     1      63.361   7.916   3.341  1.00  0.00     0.150 C 
HETATM   11  C   UNL     1      63.876   7.908   4.795  1.00  0.00     0.252 C 
HETATM   12  N   UNL     1      64.146   9.258   5.335  1.00  0.00    -0.072 N 
HETATM   13  C   UNL     1      62.921  10.076   5.202  1.00  0.00     0.252 C 
HETATM   14  H   UNL     1      64.907   9.691   4.811  1.00  0.00     0.277 HD
HETATM   15  H   UNL     1      64.416   9.192   6.316  1.00  0.00     0.277 HD
HETATM   16  C   UNL     1      62.377  10.164   3.756  1.00  0.00     0.150 C 
ENDBRANCH   3   9
TORSDOF 1
ENDMDL
MODEL 7
REMARK VINA RESULT:      -4.0      3.253      6.636
REMARK  1 active torsions:
REMARK  status: ('A' for Active; 'I' for Inactive)
REMARK    1  A    between atoms: N_1  and  C_4 
ROOT
HETATM    1  N   UNL     1      66.359   8.556   5.501  1.00  0.00    -0.191 NA
HETATM    2  C   UNL     1      65.267   8.187   5.340  1.00  0.00     0.099 C 
HETATM    3  C   UNL     1      61.237   6.922   4.766  1.00  0.00     0.030 A 
HETATM    4  C   UNL     1      61.980   7.507   3.729  1.00  0.00     0.031 A 
HETATM    5  C   UNL     1      61.892   6.743   5.993  1.00  0.00     0.031 A 
HETATM    6  C   UNL     1      63.923   7.744   5.141  1.00  0.00     0.044 A 
HETATM    7  C   UNL     1      63.220   7.140   6.186  1.00  0.00     0.025 A 
HETATM    8  C   UNL     1      63.300   7.923   3.913  1.00  0.00     0.025 A 
ENDROOT
BRANCH   3   9
HETATM    9  N   UNL     1      59.924   6.545   4.590  1.00  0.00    -0.378 N 
HETATM   10  C   UNL     1      59.049   7.186   3.598  1.00  0.00     0.150 C 
HETATM   11  C   UNL     1      57.796   7.789   4.265  1.00  0.00     0.252 C 
HETATM   12  N   UNL     1      57.065   6.834   5.124  1.00  0.00    -0.072 N 
HETATM   13  C   UNL     1      58.000   6.290   6.132  1.00  0.00     0.252 C 
HETATM   14  H   UNL     1      56.693   6.074   4.554  1.00  0.00     0.277 HD
HETATM   15  H   UNL     1      56.290   7.308   5.589  1.00  0.00     0.277 HD
HETATM   16  C   UNL     1      59.260   5.626   5.527  1.00  0.00     0.150 C 
ENDBRANCH   3   9
TORSDOF 1
ENDMDL
MODEL 8
REMARK VINA RESULT:      -3.9      2.704      7.066
REMARK  1 active torsions:
REMARK  status: ('A' for Active; 'I' for Inactive)
REMARK    1  A    between atoms: N_1  and  C_4 
ROOT
HETATM    1  N   UNL     1      65.701   8.804   5.459  1.00  0.00    -0.191 NA
HETATM    2  C   UNL     1      64.619   8.617   5.073  1.00  0.00     0.099 C 
HETATM    3  C   UNL     1      60.688   7.868   3.602  1.00  0.00     0.030 A 
HETATM    4  C   UNL     1      61.272   7.057   4.587  1.00  0.00     0.031 A 
HETATM    5  C   UNL     1      61.444   8.957   3.146  1.00  0.00     0.031 A 
HETATM    6  C   UNL     1      63.293   8.378   4.595  1.00  0.00     0.044 A 
HETATM    7  C   UNL     1      62.729   9.221   3.635  1.00  0.00     0.025 A 
HETATM    8  C   UNL     1      62.559   7.299   5.072  1.00  0.00     0.025 A 
ENDROOT
BRANCH   3   9
HETATM    9  N   UNL     1      59.431   7.606   3.103  1.00  0.00    -0.378 N 
HETATM   10  C   UNL     1      58.240   7.555   3.963  1.00  0.00     0.150 C 
HETATM   11  C   UNL     1      57.533   6.189   3.859  1.00  0.00     0.252 C 
HETATM   12  N   UNL     1      57.239   5.778   2.470  1.00  0.00    -0.072 N 
HETATM   13  C   UNL     1      58.499   5.790   1.695  1.00  0.00     0.252 C 
HETATM   14  H   UNL     1      56.573   6.428   2.053  1.00  0.00     0.277 HD
HETATM   15  H   UNL     1      56.836   4.841   2.462  1.00  0.00     0.277 HD
HETATM   16  C   UNL     1      59.238   7.150   1.719  1.00  0.00     0.150 C 
ENDBRANCH   3   9
TORSDOF 1
ENDMDL
MODEL 9
REMARK VINA RESULT:      -3.9      1.671      1.995
REMARK  1 active torsions:
REMARK  status: ('A' for Active; 'I' for Inactive)
REMARK    1  A    between atoms: N_1  and  C_4 
ROOT
HETATM    1  N   UNL     1      59.378   7.076   2.306  1.00  0.00    -0.191 NA
HETATM    2  C   UNL     1      60.335   7.146   2.964  1.00  0.00     0.099 C 
HETATM    3  C   UNL     1      63.881   7.334   5.323  1.00  0.00     0.030 A 
HETATM    4  C   UNL     1      63.775   8.011   4.099  1.00  0.00     0.031 A 
HETATM    5  C   UNL     1      62.755   6.618   5.752  1.00  0.00     0.031 A 
HETATM    6  C   UNL     1      61.517   7.226   3.765  1.00  0.00     0.044 A 
HETATM    7  C   UNL     1      61.580   6.563   4.992  1.00  0.00     0.025 A 
HETATM    8  C   UNL     1      62.616   7.952   3.322  1.00  0.00     0.025 A 
ENDROOT
BRANCH   3   9
HETATM    9  N   UNL     1      65.039   7.367   6.069  1.00  0.00    -0.378 N 
HETATM   10  C   UNL     1      66.148   8.279   5.755  1.00  0.00     0.150 C 
HETATM   11  C   UNL     1      67.456   7.502   5.502  1.00  0.00     0.252 C 
HETATM   12  N   UNL     1      67.799   6.551   6.582  1.00  0.00    -0.072 N 
HETATM   13  C   UNL     1      66.658   5.632   6.785  1.00  0.00     0.252 C 
HETATM   14  H   UNL     1      67.984   7.064   7.444  1.00  0.00     0.277 HD
HETATM   15  H   UNL     1      68.632   6.021   6.326  1.00  0.00     0.277 HD
HETATM   16  C   UNL     1      65.320   6.348   7.090  1.00  0.00     0.150 C 
ENDBRANCH   3   9
TORSDOF 1
ENDMDL
