MODEL 1
REMARK VINA RESULT:      -4.9      0.000      0.000
REMARK  4 active torsions:
REMARK  status: ('A' for Active; 'I' for Inactive)
REMARK    1  A    between atoms: C_1  and  C_2 
REMARK    2  A    between atoms: C_1  and  O_5 
REMARK    3  A    between atoms: C_6  and  C_10 
REMARK    4  A    between atoms: N_7  and  C_10 
ROOT
HETATM    1  C   UNL     1      63.311   9.423   4.726  1.00  0.00     0.040 A 
HETATM    2  C   UNL     1      62.943   8.916   3.465  1.00  0.00     0.026 A 
HETATM    3  C   UNL     1      62.154   9.681   2.586  1.00  0.00    -0.032 A 
HETATM    4  C   UNL     1      62.872  10.705   5.099  1.00  0.00     0.017 A 
HETATM    5  C   UNL     1      62.089  11.467   4.228  1.00  0.00     0.002 A 
HETATM    6  C   UNL     1      61.732  10.960   2.978  1.00  0.00     0.009 A 
ENDROOT
BRANCH   3   7
HETATM    7  C   UNL     1      61.767   9.127   1.240  1.00  0.00     0.268 C 
BRANCH   7   8
HETATM    8  N   UNL     1      60.357   8.748   1.234  1.00  0.00    -0.075 N 
HETATM    9  H   UNL     1      59.876   9.215   2.004  1.00  0.00     0.274 HD
HETATM   10  H   UNL     1      60.276   7.738   1.345  1.00  0.00     0.274 HD
HETATM   11  H   UNL     1      59.934   9.029   0.350  1.00  0.00     0.274 HD
ENDBRANCH   7   8
ENDBRANCH   3   7
BRANCH   1  12
HETATM   12  C   UNL     1      64.146   8.621   5.654  1.00  0.00     0.292 C 
HETATM   13  O   UNL     1      63.662   7.662   6.239  1.00  0.00    -0.259 OA
BRANCH  12  14
HETATM   14  O   UNL     1      65.451   8.951   5.843  1.00  0.00    -0.323 OA
HETATM   15  C   UNL     1      66.425   8.057   6.238  1.00  0.00     0.213 C 
ENDBRANCH  12  14
ENDBRANCH   1  12
TORSDOF 4
ENDMDL
MODEL 2
REMARK VINA RESULT:      -4.8      1.203      1.741
REMARK  4 active torsions:
REMARK  status: ('A' for Active; 'I' for Inactive)
REMARK    1  A    between atoms: C_1  and  C_2 
REMARK    2  A    between atoms: C_1  and  O_5 
REMARK    3  A    between atoms: C_6  and  C_10 
REMARK    4  A    between atoms: N_7  and  C_10 
ROOT
HETATM    1  C   UNL     1      62.910   9.556   4.177  1.00  0.00     0.040 A 
HETATM    2  C   UNL     1      62.809   8.790   3.000  1.00  0.00     0.026 A 
HETATM    3  C   UNL     1      62.205   9.323   1.846  1.00  0.00    -0.032 A 
HETATM    4  C   UNL     1      62.391  10.862   4.186  1.00  0.00     0.017 A 
HETATM    5  C   UNL     1      61.790  11.393   3.042  1.00  0.00     0.002 A 
HETATM    6  C   UNL     1      61.698  10.630   1.878  1.00  0.00     0.009 A 
ENDROOT
BRANCH   3   7
HETATM    7  C   UNL     1      62.103   8.492   0.594  1.00  0.00     0.268 C 
BRANCH   7   8
HETATM    8  N   UNL     1      60.755   7.946   0.456  1.00  0.00    -0.075 N 
HETATM    9  H   UNL     1      60.790   6.930   0.544  1.00  0.00     0.274 HD
HETATM   10  H   UNL     1      60.381   8.196  -0.459  1.00  0.00     0.274 HD
HETATM   11  H   UNL     1      60.157   8.331   1.186  1.00  0.00     0.274 HD
ENDBRANCH   7   8
ENDBRANCH   3   7
BRANCH   1  12
HETATM   12  C   UNL     1      63.551   9.000   5.394  1.00  0.00     0.292 C 
HETATM   13  O   UNL     1      64.749   9.163   5.584  1.00  0.00    -0.259 OA
BRANCH  12  14
HETATM   14  O   UNL     1      62.802   8.316   6.300  1.00  0.00    -0.323 OA
HETATM   15  C   UNL     1      62.491   6.977   6.193  1.00  0.00     0.213 C 
ENDBRANCH  12  14
ENDBRANCH   1  12
TORSDOF 4
ENDMDL
MODEL 3
REMARK VINA RESULT:      -4.6      1.543      2.665
REMARK  4 active torsions:
REMARK  status: ('A' for Active; 'I' for Inactive)
REMARK    1  A    between atoms: C_1  and  C_2 
REMARK    2  A    between atoms: C_1  and  O_5 
REMARK    3  A    between atoms: C_6  and  C_10 
REMARK    4  A    between atoms: N_7  and  C_10 
ROOT
HETATM    1  C   UNL     1      64.312   8.234   5.000  1.00  0.00     0.040 A 
HETATM    2  C   UNL     1      63.531   9.398   4.867  1.00  0.00     0.026 A 
HETATM    3  C   UNL     1      62.671   9.564   3.766  1.00  0.00    -0.032 A 
HETATM    4  C   UNL     1      64.226   7.240   4.010  1.00  0.00     0.017 A 
HETATM    5  C   UNL     1      63.373   7.402   2.916  1.00  0.00     0.002 A 
HETATM    6  C   UNL     1      62.598   8.556   2.793  1.00  0.00     0.009 A 
ENDROOT
BRANCH   3   7
HETATM    7  C   UNL     1      61.841  10.814   3.636  1.00  0.00     0.268 C 
BRANCH   7   8
HETATM    8  N   UNL     1      61.624  11.135   2.228  1.00  0.00    -0.075 N 
HETATM    9  H   UNL     1      61.542  12.146   2.119  1.00  0.00     0.274 HD
HETATM   10  H   UNL     1      60.766  10.687   1.907  1.00  0.00     0.274 HD
HETATM   11  H   UNL     1      62.412  10.796   1.677  1.00  0.00     0.274 HD
ENDBRANCH   7   8
ENDBRANCH   3   7
BRANCH   1  12
HETATM   12  C   UNL     1      65.216   8.054   6.162  1.00  0.00     0.292 C 
HETATM   13  O   UNL     1      66.197   8.774   6.292  1.00  0.00    -0.259 OA
BRANCH  12  14
HETATM   14  O   UNL     1      64.946   7.093   7.085  1.00  0.00    -0.323 OA
HETATM   15  C   UNL     1      65.880   6.199   7.567  1.00  0.00     0.213 C 
ENDBRANCH  12  14
ENDBRANCH   1  12
TORSDOF 4
ENDMDL
MODEL 4
REMARK VINA RESULT:      -4.4      3.203      4.838
REMARK  4 active torsions:
REMARK  status: ('A' for Active; 'I' for Inactive)
REMARK    1  A    between atoms: C_1  and  C_2 
REMARK    2  A    between atoms: C_1  and  O_5 
REMARK    3  A    between atoms: C_6  and  C_10 
REMARK    4  A    between atoms: N_7  and  C_10 
ROOT
HETATM    1  C   UNL     1      62.213   9.360   2.843  1.00  0.00     0.040 A 
HETATM    2  C   UNL     1      63.134   8.547   3.530  1.00  0.00     0.026 A 
HETATM    3  C   UNL     1      63.690   8.966   4.752  1.00  0.00    -0.032 A 
HETATM    4  C   UNL     1      61.860  10.604   3.394  1.00  0.00     0.017 A 
HETATM    5  C   UNL     1      62.412  11.024   4.607  1.00  0.00     0.002 A 
HETATM    6  C   UNL     1      63.320  10.210   5.284  1.00  0.00     0.009 A 
ENDROOT
BRANCH   3   7
HETATM    7  C   UNL     1      64.676   8.087   5.477  1.00  0.00     0.268 C 
BRANCH   7   8
HETATM    8  N   UNL     1      64.033   7.432   6.612  1.00  0.00    -0.075 N 
HETATM    9  H   UNL     1      63.670   8.140   7.251  1.00  0.00     0.274 HD
HETATM   10  H   UNL     1      64.715   6.852   7.099  1.00  0.00     0.274 HD
HETATM   11  H   UNL     1      63.266   6.850   6.278  1.00  0.00     0.274 HD
ENDBRANCH   7   8
ENDBRANCH   3   7
BRANCH   1  12
HETATM   12  C   UNL     1      61.621   8.918   1.556  1.00  0.00     0.292 C 
HETATM   13  O   UNL     1      62.235   9.083   0.511  1.00  0.00    -0.259 OA
BRANCH  12  14
HETATM   14  O   UNL     1      60.398   8.323   1.545  1.00  0.00    -0.323 OA
HETATM   15  C   UNL     1      59.699   8.016   0.396  1.00  0.00     0.213 C 
ENDBRANCH  12  14
ENDBRANCH   1  12
TORSDOF 4
ENDMDL
MODEL 5
REMARK VINA RESULT:      -4.3      2.723      3.607
REMARK  4 active torsions:
REMARK  status: ('A' for Active; 'I' for Inactive)
REMARK    1  A    between atoms: C_1  and  C_2 
REMARK    2  A    between atoms: C_1  and  O_5 
REMARK    3  A    between atoms: C_6  and  C_10 
REMARK    4  A    between atoms: N_7  and  C_10 
ROOT
HETATM    1  C   UNL     1      62.839   8.271   3.014  1.00  0.00     0.040 A 
HETATM    2  C   UNL     1      62.879   9.163   4.103  1.00  0.00     0.026 A 
HETATM    3  C   UNL     1      62.402  10.480   3.971  1.00  0.00    -0.032 A 
HETATM    4  C   UNL     1      62.319   8.718   1.787  1.00  0.00     0.017 A 
HETATM    5  C   UNL     1      61.845  10.026   1.653  1.00  0.00     0.002 A 
HETATM    6  C   UNL     1      61.884  10.902   2.738  1.00  0.00     0.009 A 
ENDROOT
BRANCH   3   7
HETATM    7  C   UNL     1      62.452  11.424   5.144  1.00  0.00     0.268 C 
BRANCH   7   8
HETATM    8  N   UNL     1      63.606  11.126   5.986  1.00  0.00    -0.075 N 
HETATM    9  H   UNL     1      64.042  11.999   6.286  1.00  0.00     0.274 HD
HETATM   10  H   UNL     1      64.279  10.573   5.457  1.00  0.00     0.274 HD
HETATM   11  H   UNL     1      63.302  10.600   6.805  1.00  0.00     0.274 HD
ENDBRANCH   7   8
ENDBRANCH   3   7
BRANCH   1  12
HETATM   12  C   UNL     1      63.337   6.880   3.152  1.00  0.00     0.292 C 
HETATM   13  O   UNL     1      64.036   6.392   2.275  1.00  0.00    -0.259 OA
BRANCH  12  14
HETATM   14  O   UNL     1      63.020   6.156   4.258  1.00  0.00    -0.323 OA
HETATM   15  C   UNL     1      63.547   4.914   4.545  1.00  0.00     0.213 C 
ENDBRANCH  12  14
ENDBRANCH   1  12
TORSDOF 4
ENDMDL
MODEL 6
REMARK VINA RESULT:      -4.2      2.405      3.239
REMARK  4 active torsions:
REMARK  status: ('A' for Active; 'I' for Inactive)
REMARK    1  A    between atoms: C_1  and  C_2 
REMARK    2  A    between atoms: C_1  and  O_5 
REMARK    3  A    between atoms: C_6  and  C_10 
REMARK    4  A    between atoms: N_7  and  C_10 
ROOT
HETATM    1  C   UNL     1      61.812   9.645   3.368  1.00  0.00     0.040 A 
HETATM    2  C   UNL     1      60.970   8.546   3.624  1.00  0.00     0.026 A 
HETATM    3  C   UNL     1      60.476   7.758   2.568  1.00  0.00    -0.032 A 
HETATM    4  C   UNL     1      62.149   9.949   2.037  1.00  0.00     0.017 A 
HETATM    5  C   UNL     1      61.659   9.168   0.987  1.00  0.00     0.002 A 
HETATM    6  C   UNL     1      60.829   8.078   1.249  1.00  0.00     0.009 A 
ENDROOT
BRANCH   3   7
HETATM    7  C   UNL     1      59.574   6.587   2.857  1.00  0.00     0.268 C 
BRANCH   7   8
HETATM    8  N   UNL     1      59.322   6.481   4.291  1.00  0.00    -0.075 N 
HETATM    9  H   UNL     1      59.471   5.517   4.592  1.00  0.00     0.274 HD
HETATM   10  H   UNL     1      58.359   6.754   4.486  1.00  0.00     0.274 HD
HETATM   11  H   UNL     1      59.960   7.096   4.794  1.00  0.00     0.274 HD
ENDBRANCH   7   8
ENDBRANCH   3   7
BRANCH   1  12
HETATM   12  C   UNL     1      62.339  10.475   4.479  1.00  0.00     0.292 C 
HETATM   13  O   UNL     1      62.059  11.664   4.540  1.00  0.00    -0.259 OA
BRANCH  12  14
HETATM   14  O   UNL     1      63.126   9.907   5.432  1.00  0.00    -0.323 OA
HETATM   15  C   UNL     1      64.204   9.091   5.159  1.00  0.00     0.213 C 
ENDBRANCH  12  14
ENDBRANCH   1  12
TORSDOF 4
ENDMDL
MODEL 7
REMARK VINA RESULT:      -4.2      2.713      3.861
REMARK  4 active torsions:
REMARK  status: ('A' for Active; 'I' for Inactive)
REMARK    1  A    between atoms: C_1  and  C_2 
REMARK    2  A    between atoms: C_1  and  O_5 
REMARK    3  A    between atoms: C_6  and  C_10 
REMARK    4  A    between atoms: N_7  and  C_10 
ROOT
HETATM    1  C   UNL     1      62.316   9.439   2.855  1.00  0.00     0.040 A 
HETATM    2  C   UNL     1      62.872   8.185   3.171  1.00  0.00     0.026 A 
HETATM    3  C   UNL     1      63.005   7.190   2.184  1.00  0.00    -0.032 A 
HETATM    4  C   UNL     1      61.887   9.683   1.538  1.00  0.00     0.017 A 
HETATM    5  C   UNL     1      62.018   8.696   0.558  1.00  0.00     0.002 A 
HETATM    6  C   UNL     1      62.575   7.457   0.877  1.00  0.00     0.009 A 
ENDROOT
BRANCH   3   7
HETATM    7  C   UNL     1      63.601   5.852   2.535  1.00  0.00     0.268 C 
BRANCH   7   8
HETATM    8  N   UNL     1      64.317   5.933   3.806  1.00  0.00    -0.075 N 
HETATM    9  H   UNL     1      63.700   5.631   4.562  1.00  0.00     0.274 HD
HETATM   10  H   UNL     1      64.611   6.895   3.969  1.00  0.00     0.274 HD
HETATM   11  H   UNL     1      65.135   5.326   3.773  1.00  0.00     0.274 HD
ENDBRANCH   7   8
ENDBRANCH   3   7
BRANCH   1  12
HETATM   12  C   UNL     1      62.178  10.493   3.891  1.00  0.00     0.292 C 
HETATM   13  O   UNL     1      61.655  11.562   3.610  1.00  0.00    -0.259 OA
BRANCH  12  14
HETATM   14  O   UNL     1      62.628  10.261   5.153  1.00  0.00    -0.323 OA
HETATM   15  C   UNL     1      63.182  11.228   5.966  1.00  0.00     0.213 C 
ENDBRANCH  12  14
ENDBRANCH   1  12
TORSDOF 4
ENDMDL
MODEL 8
REMARK VINA RESULT:      -4.1      3.201      4.919
REMARK  4 active torsions:
REMARK  status: ('A' for Active; 'I' for Inactive)
REMARK    1  A    between atoms: C_1  and  C_2 
REMARK    2  A    between atoms: C_1  and  O_5 
REMARK    3  A    between atoms: C_6  and  C_10 
REMARK    4  A    between atoms: N_7  and  C_10 
ROOT
HETATM    1  C   UNL     1      63.441   9.027   5.285  1.00  0.00     0.040 A 
HETATM    2  C   UNL     1      64.820   8.892   5.036  1.00  0.00     0.026 A 
HETATM    3  C   UNL     1      65.443   7.632   5.109  1.00  0.00    -0.032 A 
HETATM    4  C   UNL     1      62.693   7.884   5.615  1.00  0.00     0.017 A 
HETATM    5  C   UNL     1      63.309   6.632   5.689  1.00  0.00     0.002 A 
HETATM    6  C   UNL     1      64.675   6.505   5.436  1.00  0.00     0.009 A 
ENDROOT
BRANCH   3   7
HETATM    7  C   UNL     1      66.919   7.502   4.841  1.00  0.00     0.268 C 
BRANCH   7   8
HETATM    8  N   UNL     1      67.684   7.854   6.034  1.00  0.00    -0.075 N 
HETATM    9  H   UNL     1      67.067   7.849   6.847  1.00  0.00     0.274 HD
HETATM   10  H   UNL     1      68.086   8.783   5.917  1.00  0.00     0.274 HD
HETATM   11  H   UNL     1      68.431   7.173   6.171  1.00  0.00     0.274 HD
ENDBRANCH   7   8
ENDBRANCH   3   7
BRANCH   1  12
HETATM   12  C   UNL     1      62.780  10.353   5.203  1.00  0.00     0.292 C 
HETATM   13  O   UNL     1      63.120  11.254   5.958  1.00  0.00    -0.259 OA
BRANCH  12  14
HETATM   14  O   UNL     1      61.802  10.565   4.282  1.00  0.00    -0.323 OA
HETATM   15  C   UNL     1      61.969  10.393   2.924  1.00  0.00     0.213 C 
ENDBRANCH  12  14
ENDBRANCH   1  12
TORSDOF 4
ENDMDL
MODEL 9
REMARK VINA RESULT:      -4.0     11.145     12.379
REMARK  4 active torsions:
REMARK  status: ('A' for Active; 'I' for Inactive)
REMARK    1  A    between atoms: C_1  and  C_2 
REMARK    2  A    between atoms: C_1  and  O_5 
REMARK    3  A    between atoms: C_6  and  C_10 
REMARK    4  A    between atoms: N_7  and  C_10 
ROOT
HETATM    1  C   UNL     1      58.173   2.619  11.544  1.00  0.00     0.040 A 
HETATM    2  C   UNL     1      56.871   2.554  12.077  1.00  0.00     0.026 A 
HETATM    3  C   UNL     1      56.643   2.002  13.351  1.00  0.00    -0.032 A 
HETATM    4  C   UNL     1      59.244   2.115  12.302  1.00  0.00     0.017 A 
HETATM    5  C   UNL     1      59.021   1.565  13.567  1.00  0.00     0.002 A 
HETATM    6  C   UNL     1      57.729   1.510  14.091  1.00  0.00     0.009 A 
ENDROOT
BRANCH   3   7
HETATM    7  C   UNL     1      55.246   1.938  13.909  1.00  0.00     0.268 C 
BRANCH   7   8
HETATM    8  N   UNL     1      54.982   3.100  14.753  1.00  0.00    -0.075 N 
HETATM    9  H   UNL     1      54.536   3.830  14.197  1.00  0.00     0.274 HD
HETATM   10  H   UNL     1      55.861   3.450  15.132  1.00  0.00     0.274 HD
HETATM   11  H   UNL     1      54.364   2.830  15.518  1.00  0.00     0.274 HD
ENDBRANCH   7   8
ENDBRANCH   3   7
BRANCH   1  12
HETATM   12  C   UNL     1      58.417   3.205  10.204  1.00  0.00     0.292 C 
HETATM   13  O   UNL     1      58.359   2.498   9.207  1.00  0.00    -0.259 OA
BRANCH  12  14
HETATM   14  O   UNL     1      58.697   4.531  10.087  1.00  0.00    -0.323 OA
HETATM   15  C   UNL     1      58.841   5.187   8.883  1.00  0.00     0.213 C 
ENDBRANCH  12  14
ENDBRANCH   1  12
TORSDOF 4
ENDMDL
