MODEL 1
REMARK VINA RESULT:      -4.8      0.000      0.000
REMARK  2 active torsions:
REMARK  status: ('A' for Active; 'I' for Inactive)
REMARK    1  A    between atoms: C_1  and  C_2 
REMARK    2  A    between atoms: C_2  and  C_9 
ROOT
HETATM    1  N   UNL     1      66.982   7.289   7.185  1.00  0.00    -0.075 N 
HETATM    2  C   UNL     1      64.611   6.961   5.481  1.00  0.00     0.064 C 
HETATM    3  C   UNL     1      65.829   6.537   7.698  1.00  0.00     0.233 C 
HETATM    4  C   UNL     1      66.536   8.396   6.330  1.00  0.00     0.233 C 
HETATM    5  C   UNL     1      65.045   5.911   6.530  1.00  0.00     0.040 C 
HETATM    6  C   UNL     1      65.819   7.833   5.094  1.00  0.00     0.040 C 
HETATM    7  H   UNL     1      67.576   6.663   6.640  1.00  0.00     0.277 HD
HETATM    8  H   UNL     1      67.504   7.671   7.973  1.00  0.00     0.277 HD
ENDROOT
BRANCH   2   9
HETATM    9  C   UNL     1      63.402   7.796   5.891  1.00  0.00     0.170 C 
HETATM   10  O   UNL     1      62.859   7.611   6.973  1.00  0.00    -0.291 OA
BRANCH   9  11
HETATM   11  C   UNL     1      62.888   8.879   4.999  1.00  0.00     0.051 A 
HETATM   12  S   UNL     1      62.302   8.676   3.429  1.00  0.00    -0.098 SA
HETATM   13  C   UNL     1      61.991  10.294   3.113  1.00  0.00     0.050 A 
HETATM   14  C   UNL     1      62.341  11.026   4.239  1.00  0.00     0.009 A 
HETATM   15  C   UNL     1      62.839  10.245   5.293  1.00  0.00     0.023 A 
ENDBRANCH   9  11
ENDBRANCH   2   9
TORSDOF 2
ENDMDL
MODEL 2
REMARK VINA RESULT:      -4.6      1.556      1.773
REMARK  2 active torsions:
REMARK  status: ('A' for Active; 'I' for Inactive)
REMARK    1  A    between atoms: C_1  and  C_2 
REMARK    2  A    between atoms: C_2  and  C_9 
ROOT
HETATM    1  N   UNL     1      67.761   6.515   6.956  1.00  0.00    -0.075 N 
HETATM    2  C   UNL     1      65.241   7.061   5.546  1.00  0.00     0.064 C 
HETATM    3  C   UNL     1      66.571   6.889   7.733  1.00  0.00     0.233 C 
HETATM    4  C   UNL     1      67.781   7.223   5.670  1.00  0.00     0.233 C 
HETATM    5  C   UNL     1      65.296   6.476   6.977  1.00  0.00     0.040 C 
HETATM    6  C   UNL     1      66.573   6.786   4.826  1.00  0.00     0.040 C 
HETATM    7  H   UNL     1      67.747   5.509   6.785  1.00  0.00     0.277 HD
HETATM    8  H   UNL     1      68.594   6.771   7.485  1.00  0.00     0.277 HD
ENDROOT
BRANCH   2   9
HETATM    9  C   UNL     1      64.842   8.532   5.484  1.00  0.00     0.170 C 
HETATM   10  O   UNL     1      65.467   9.371   6.121  1.00  0.00    -0.291 OA
BRANCH   9  11
HETATM   11  C   UNL     1      63.713   8.977   4.614  1.00  0.00     0.051 A 
HETATM   12  S   UNL     1      62.792  10.377   4.824  1.00  0.00    -0.098 SA
HETATM   13  C   UNL     1      61.749  10.134   3.533  1.00  0.00     0.050 A 
HETATM   14  C   UNL     1      62.106   8.947   2.909  1.00  0.00     0.009 A 
HETATM   15  C   UNL     1      63.199   8.299   3.505  1.00  0.00     0.023 A 
ENDBRANCH   9  11
ENDBRANCH   2   9
TORSDOF 2
ENDMDL
MODEL 3
REMARK VINA RESULT:      -4.3      2.884      5.244
REMARK  2 active torsions:
REMARK  status: ('A' for Active; 'I' for Inactive)
REMARK    1  A    between atoms: C_1  and  C_2 
REMARK    2  A    between atoms: C_2  and  C_9 
ROOT
HETATM    1  N   UNL     1      63.968   6.990   2.950  1.00  0.00    -0.075 N 
HETATM    2  C   UNL     1      65.371   7.864   5.379  1.00  0.00     0.064 C 
HETATM    3  C   UNL     1      63.252   7.811   3.935  1.00  0.00     0.233 C 
HETATM    4  C   UNL     1      64.906   6.081   3.620  1.00  0.00     0.233 C 
HETATM    5  C   UNL     1      64.247   8.691   4.712  1.00  0.00     0.040 C 
HETATM    6  C   UNL     1      65.984   6.901   4.346  1.00  0.00     0.040 C 
HETATM    7  H   UNL     1      64.487   7.600   2.318  1.00  0.00     0.277 HD
HETATM    8  H   UNL     1      63.290   6.436   2.426  1.00  0.00     0.277 HD
ENDROOT
BRANCH   2   9
HETATM    9  C   UNL     1      64.951   7.150   6.659  1.00  0.00     0.170 C 
HETATM   10  O   UNL     1      63.784   7.178   7.030  1.00  0.00    -0.291 OA
BRANCH   9  11
HETATM   11  C   UNL     1      65.945   6.369   7.455  1.00  0.00     0.051 A 
HETATM   12  S   UNL     1      66.068   4.686   7.511  1.00  0.00    -0.098 SA
HETATM   13  C   UNL     1      67.329   4.607   8.614  1.00  0.00     0.050 A 
HETATM   14  C   UNL     1      67.681   5.904   8.959  1.00  0.00     0.009 A 
HETATM   15  C   UNL     1      66.915   6.890   8.316  1.00  0.00     0.023 A 
ENDBRANCH   9  11
ENDBRANCH   2   9
TORSDOF 2
ENDMDL
MODEL 4
REMARK VINA RESULT:      -4.2      2.152      2.602
REMARK  2 active torsions:
REMARK  status: ('A' for Active; 'I' for Inactive)
REMARK    1  A    between atoms: C_1  and  C_2 
REMARK    2  A    between atoms: C_2  and  C_9 
ROOT
HETATM    1  N   UNL     1      67.474   5.156   5.930  1.00  0.00    -0.075 N 
HETATM    2  C   UNL     1      66.530   7.580   4.564  1.00  0.00     0.064 C 
HETATM    3  C   UNL     1      66.175   5.132   5.245  1.00  0.00     0.233 C 
HETATM    4  C   UNL     1      67.718   6.475   6.528  1.00  0.00     0.233 C 
HETATM    5  C   UNL     1      66.169   6.152   4.092  1.00  0.00     0.040 C 
HETATM    6  C   UNL     1      67.810   7.531   5.416  1.00  0.00     0.040 C 
HETATM    7  H   UNL     1      68.213   4.951   5.257  1.00  0.00     0.277 HD
HETATM    8  H   UNL     1      67.469   4.455   6.671  1.00  0.00     0.277 HD
ENDROOT
BRANCH   2   9
HETATM    9  C   UNL     1      65.393   8.315   5.267  1.00  0.00     0.170 C 
HETATM   10  O   UNL     1      65.635   9.154   6.125  1.00  0.00    -0.291 OA
BRANCH   9  11
HETATM   11  C   UNL     1      63.972   8.055   4.888  1.00  0.00     0.051 A 
HETATM   12  S   UNL     1      62.875   7.103   5.749  1.00  0.00    -0.098 SA
HETATM   13  C   UNL     1      61.583   7.268   4.691  1.00  0.00     0.050 A 
HETATM   14  C   UNL     1      61.989   8.078   3.640  1.00  0.00     0.009 A 
HETATM   15  C   UNL     1      63.317   8.522   3.745  1.00  0.00     0.023 A 
ENDBRANCH   9  11
ENDBRANCH   2   9
TORSDOF 2
ENDMDL
MODEL 5
REMARK VINA RESULT:      -4.1      2.920      4.855
REMARK  2 active torsions:
REMARK  status: ('A' for Active; 'I' for Inactive)
REMARK    1  A    between atoms: C_1  and  C_2 
REMARK    2  A    between atoms: C_2  and  C_9 
ROOT
HETATM    1  N   UNL     1      62.852   7.410   2.099  1.00  0.00    -0.075 N 
HETATM    2  C   UNL     1      63.210   7.756   4.994  1.00  0.00     0.064 C 
HETATM    3  C   UNL     1      63.874   6.616   2.795  1.00  0.00     0.233 C 
HETATM    4  C   UNL     1      62.745   8.748   2.695  1.00  0.00     0.233 C 
HETATM    5  C   UNL     1      63.473   6.416   4.267  1.00  0.00     0.040 C 
HETATM    6  C   UNL     1      62.262   8.623   4.148  1.00  0.00     0.040 C 
HETATM    7  H   UNL     1      61.952   6.937   2.171  1.00  0.00     0.277 HD
HETATM    8  H   UNL     1      63.121   7.507   1.119  1.00  0.00     0.277 HD
ENDROOT
BRANCH   2   9
HETATM    9  C   UNL     1      64.473   8.507   5.404  1.00  0.00     0.170 C 
HETATM   10  O   UNL     1      64.460   9.726   5.514  1.00  0.00    -0.291 OA
BRANCH   9  11
HETATM   11  C   UNL     1      65.730   7.765   5.718  1.00  0.00     0.051 A 
HETATM   12  S   UNL     1      66.003   6.810   7.083  1.00  0.00    -0.098 SA
HETATM   13  C   UNL     1      67.590   6.396   6.732  1.00  0.00     0.050 A 
HETATM   14  C   UNL     1      67.936   6.998   5.531  1.00  0.00     0.009 A 
HETATM   15  C   UNL     1      66.905   7.761   4.960  1.00  0.00     0.023 A 
ENDBRANCH   9  11
ENDBRANCH   2   9
TORSDOF 2
ENDMDL
MODEL 6
REMARK VINA RESULT:      -4.0      2.926      4.919
REMARK  2 active torsions:
REMARK  status: ('A' for Active; 'I' for Inactive)
REMARK    1  A    between atoms: C_1  and  C_2 
REMARK    2  A    between atoms: C_2  and  C_9 
ROOT
HETATM    1  N   UNL     1      61.033   6.734   3.078  1.00  0.00    -0.075 N 
HETATM    2  C   UNL     1      63.327   8.497   3.588  1.00  0.00     0.064 C 
HETATM    3  C   UNL     1      60.807   8.037   3.717  1.00  0.00     0.233 C 
HETATM    4  C   UNL     1      62.313   6.161   3.513  1.00  0.00     0.233 C 
HETATM    5  C   UNL     1      61.905   9.029   3.294  1.00  0.00     0.040 C 
HETATM    6  C   UNL     1      63.464   7.065   3.043  1.00  0.00     0.040 C 
HETATM    7  H   UNL     1      61.046   6.854   2.065  1.00  0.00     0.277 HD
HETATM    8  H   UNL     1      60.281   6.099   3.348  1.00  0.00     0.277 HD
ENDROOT
BRANCH   2   9
HETATM    9  C   UNL     1      63.747   8.603   5.050  1.00  0.00     0.170 C 
HETATM   10  O   UNL     1      63.100   9.286   5.833  1.00  0.00    -0.291 OA
BRANCH   9  11
HETATM   11  C   UNL     1      64.927   7.841   5.559  1.00  0.00     0.051 A 
HETATM   12  S   UNL     1      64.890   6.611   6.715  1.00  0.00    -0.098 SA
HETATM   13  C   UNL     1      66.542   6.326   6.769  1.00  0.00     0.050 A 
HETATM   14  C   UNL     1      67.156   7.192   5.875  1.00  0.00     0.009 A 
HETATM   15  C   UNL     1      66.263   8.037   5.197  1.00  0.00     0.023 A 
ENDBRANCH   9  11
ENDBRANCH   2   9
TORSDOF 2
ENDMDL
MODEL 7
REMARK VINA RESULT:      -3.9      1.751      2.388
REMARK  2 active torsions:
REMARK  status: ('A' for Active; 'I' for Inactive)
REMARK    1  A    between atoms: C_1  and  C_2 
REMARK    2  A    between atoms: C_2  and  C_9 
ROOT
HETATM    1  N   UNL     1      65.260   5.600   6.126  1.00  0.00    -0.075 N 
HETATM    2  C   UNL     1      64.910   8.086   4.599  1.00  0.00     0.064 C 
HETATM    3  C   UNL     1      64.388   5.598   4.943  1.00  0.00     0.233 C 
HETATM    4  C   UNL     1      65.171   6.885   6.831  1.00  0.00     0.233 C 
HETATM    5  C   UNL     1      64.844   6.683   3.951  1.00  0.00     0.040 C 
HETATM    6  C   UNL     1      65.695   8.005   5.920  1.00  0.00     0.040 C 
HETATM    7  H   UNL     1      66.225   5.445   5.832  1.00  0.00     0.277 HD
HETATM    8  H   UNL     1      64.961   4.857   6.758  1.00  0.00     0.277 HD
ENDROOT
BRANCH   2   9
HETATM    9  C   UNL     1      63.554   8.763   4.771  1.00  0.00     0.170 C 
HETATM   10  O   UNL     1      63.341   9.488   5.734  1.00  0.00    -0.291 OA
BRANCH   9  11
HETATM   11  C   UNL     1      62.482   8.587   3.746  1.00  0.00     0.051 A 
HETATM   12  S   UNL     1      61.139   7.572   3.880  1.00  0.00    -0.098 SA
HETATM   13  C   UNL     1      60.486   7.892   2.369  1.00  0.00     0.050 A 
HETATM   14  C   UNL     1      61.311   8.807   1.729  1.00  0.00     0.009 A 
HETATM   15  C   UNL     1      62.423   9.199   2.491  1.00  0.00     0.023 A 
ENDBRANCH   9  11
ENDBRANCH   2   9
TORSDOF 2
ENDMDL
MODEL 8
REMARK VINA RESULT:      -3.9      3.487      5.410
REMARK  2 active torsions:
REMARK  status: ('A' for Active; 'I' for Inactive)
REMARK    1  A    between atoms: C_1  and  C_2 
REMARK    2  A    between atoms: C_2  and  C_9 
ROOT
HETATM    1  N   UNL     1      60.512   6.889   1.074  1.00  0.00    -0.075 N 
HETATM    2  C   UNL     1      62.646   8.618   2.116  1.00  0.00     0.064 C 
HETATM    3  C   UNL     1      60.214   8.298   1.367  1.00  0.00     0.233 C 
HETATM    4  C   UNL     1      61.480   6.355   2.039  1.00  0.00     0.233 C 
HETATM    5  C   UNL     1      61.492   9.145   1.232  1.00  0.00     0.040 C 
HETATM    6  C   UNL     1      62.814   7.104   1.896  1.00  0.00     0.040 C 
HETATM    7  H   UNL     1      60.901   6.816   0.134  1.00  0.00     0.277 HD
HETATM    8  H   UNL     1      59.649   6.349   1.140  1.00  0.00     0.277 HD
ENDROOT
BRANCH   2   9
HETATM    9  C   UNL     1      62.522   8.978   3.593  1.00  0.00     0.170 C 
HETATM   10  O   UNL     1      61.720   9.829   3.958  1.00  0.00    -0.291 OA
BRANCH   9  11
HETATM   11  C   UNL     1      63.342   8.269   4.620  1.00  0.00     0.051 A 
HETATM   12  S   UNL     1      62.760   7.200   5.790  1.00  0.00    -0.098 SA
HETATM   13  C   UNL     1      64.227   6.897   6.544  1.00  0.00     0.050 A 
HETATM   14  C   UNL     1      65.207   7.630   5.888  1.00  0.00     0.009 A 
HETATM   15  C   UNL     1      64.721   8.395   4.815  1.00  0.00     0.023 A 
ENDBRANCH   9  11
ENDBRANCH   2   9
TORSDOF 2
ENDMDL
MODEL 9
REMARK VINA RESULT:      -3.8      2.148      2.841
REMARK  2 active torsions:
REMARK  status: ('A' for Active; 'I' for Inactive)
REMARK    1  A    between atoms: C_1  and  C_2 
REMARK    2  A    between atoms: C_2  and  C_9 
ROOT
HETATM    1  N   UNL     1      63.247   4.406   5.731  1.00  0.00    -0.075 N 
HETATM    2  C   UNL     1      63.954   7.174   6.421  1.00  0.00     0.064 C 
HETATM    3  C   UNL     1      64.664   4.795   5.774  1.00  0.00     0.233 C 
HETATM    4  C   UNL     1      62.423   5.517   5.239  1.00  0.00     0.233 C 
HETATM    5  C   UNL     1      64.860   5.965   6.755  1.00  0.00     0.040 C 
HETATM    6  C   UNL     1      62.506   6.693   6.224  1.00  0.00     0.040 C 
HETATM    7  H   UNL     1      62.940   4.152   6.670  1.00  0.00     0.277 HD
HETATM    8  H   UNL     1      63.142   3.613   5.099  1.00  0.00     0.277 HD
ENDROOT
BRANCH   2   9
HETATM    9  C   UNL     1      64.446   8.024   5.254  1.00  0.00     0.170 C 
HETATM   10  O   UNL     1      65.600   7.923   4.857  1.00  0.00    -0.291 OA
BRANCH   9  11
HETATM   11  C   UNL     1      63.518   8.959   4.551  1.00  0.00     0.051 A 
HETATM   12  S   UNL     1      62.954  10.434   5.150  1.00  0.00    -0.098 SA
HETATM   13  C   UNL     1      61.970  10.823   3.849  1.00  0.00     0.050 A 
HETATM   14  C   UNL     1      62.066   9.801   2.916  1.00  0.00     0.009 A 
HETATM   15  C   UNL     1      62.928   8.761   3.299  1.00  0.00     0.023 A 
ENDBRANCH   9  11
ENDBRANCH   2   9
TORSDOF 2
ENDMDL
