MODEL 1
REMARK VINA RESULT:      -6.3      0.000      0.000
REMARK  2 active torsions:
REMARK  status: ('A' for Active; 'I' for Inactive)
REMARK       I    between atoms: C_1  and  N_2 
REMARK       I    between atoms: C_1  and  N_6 
REMARK    1  A    between atoms: C_7  and  C_10 
REMARK    2  A    between atoms: C_7  and  C_11 
ROOT
HETATM    1  C   UNL     1      66.470   5.923   7.774  1.00  0.00     0.667 C 
HETATM    2  N   UNL     1      65.707   6.183   6.581  1.00  0.00    -0.219 N 
HETATM    3  N   UNL     1      66.318   4.836   8.448  1.00  0.00    -0.235 N 
HETATM    4  C   UNL     1      64.359   5.666   6.393  1.00  0.00     0.141 C 
HETATM    5  C   UNL     1      66.194   7.079   5.541  1.00  0.00     0.141 C 
HETATM    6  N   UNL     1      67.389   6.892   8.264  1.00  0.00    -0.235 N 
HETATM    7  C   UNL     1      65.286   8.304   5.470  1.00  0.00     0.025 C 
HETATM    8  C   UNL     1      63.403   6.862   6.362  1.00  0.00     0.025 C 
HETATM    9  C   UNL     1      63.811   7.880   5.273  1.00  0.00    -0.007 C 
HETATM   10  H   UNL     1      65.689   4.146   8.136  1.00  0.00     0.174 HD
HETATM   11  H   UNL     1      66.830   4.696   9.276  1.00  0.00     0.174 HD
HETATM   12  H   UNL     1      67.527   7.734   7.770  1.00  0.00     0.174 HD
HETATM   13  H   UNL     1      67.886   6.722   9.095  1.00  0.00     0.174 HD
ENDROOT
BRANCH   9  14
HETATM   14  C   UNL     1      62.876   9.106   5.354  1.00  0.00     0.043 C 
BRANCH  14  15
HETATM   15  C   UNL     1      62.507   9.669   4.003  1.00  0.00    -0.058 A 
HETATM   16  C   UNL     1      62.514   8.848   2.864  1.00  0.00     0.007 A 
HETATM   17  C   UNL     1      62.158   9.369   1.616  1.00  0.00     0.001 A 
HETATM   18  C   UNL     1      61.792  10.713   1.497  1.00  0.00     0.000 A 
HETATM   19  C   UNL     1      61.783  11.537   2.625  1.00  0.00     0.001 A 
HETATM   20  C   UNL     1      62.137  11.020   3.874  1.00  0.00     0.007 A 
ENDBRANCH  14  15
ENDBRANCH   9  14
TORSDOF 2
ENDMDL
MODEL 2
REMARK VINA RESULT:      -5.6      1.234      2.166
REMARK  2 active torsions:
REMARK  status: ('A' for Active; 'I' for Inactive)
REMARK       I    between atoms: C_1  and  N_2 
REMARK       I    between atoms: C_1  and  N_6 
REMARK    1  A    between atoms: C_7  and  C_10 
REMARK    2  A    between atoms: C_7  and  C_11 
ROOT
HETATM    1  C   UNL     1      66.335   4.699   6.613  1.00  0.00     0.667 C 
HETATM    2  N   UNL     1      66.048   5.978   6.021  1.00  0.00    -0.219 N 
HETATM    3  N   UNL     1      67.386   4.028   6.292  1.00  0.00    -0.235 N 
HETATM    4  C   UNL     1      66.458   6.317   4.665  1.00  0.00     0.141 C 
HETATM    5  C   UNL     1      65.223   6.968   6.701  1.00  0.00     0.141 C 
HETATM    6  N   UNL     1      65.430   4.120   7.546  1.00  0.00    -0.235 N 
HETATM    7  C   UNL     1      63.931   7.169   5.913  1.00  0.00     0.025 C 
HETATM    8  C   UNL     1      65.189   6.483   3.824  1.00  0.00     0.025 C 
HETATM    9  C   UNL     1      64.238   7.534   4.441  1.00  0.00    -0.007 C 
HETATM   10  H   UNL     1      68.032   4.401   5.649  1.00  0.00     0.174 HD
HETATM   11  H   UNL     1      67.545   3.142   6.690  1.00  0.00     0.174 HD
HETATM   12  H   UNL     1      64.617   4.608   7.812  1.00  0.00     0.174 HD
HETATM   13  H   UNL     1      65.618   3.232   7.926  1.00  0.00     0.174 HD
ENDROOT
BRANCH   9  14
HETATM   14  C   UNL     1      62.939   7.588   3.610  1.00  0.00     0.043 C 
BRANCH  14  15
HETATM   15  C   UNL     1      62.515   8.990   3.247  1.00  0.00    -0.058 A 
HETATM   16  C   UNL     1      62.386   9.973   4.241  1.00  0.00     0.007 A 
HETATM   17  C   UNL     1      62.007  11.276   3.901  1.00  0.00     0.001 A 
HETATM   18  C   UNL     1      61.756  11.606   2.566  1.00  0.00     0.000 A 
HETATM   19  C   UNL     1      61.881  10.633   1.571  1.00  0.00     0.001 A 
HETATM   20  C   UNL     1      62.260   9.331   1.907  1.00  0.00     0.007 A 
ENDBRANCH  14  15
ENDBRANCH   9  14
TORSDOF 2
ENDMDL
MODEL 3
REMARK VINA RESULT:      -5.4      1.635      2.687
REMARK  2 active torsions:
REMARK  status: ('A' for Active; 'I' for Inactive)
REMARK       I    between atoms: C_1  and  N_2 
REMARK       I    between atoms: C_1  and  N_6 
REMARK    1  A    between atoms: C_7  and  C_10 
REMARK    2  A    between atoms: C_7  and  C_11 
ROOT
HETATM    1  C   UNL     1      67.118   6.938   4.653  1.00  0.00     0.667 C 
HETATM    2  N   UNL     1      65.905   7.099   5.411  1.00  0.00    -0.219 N 
HETATM    3  N   UNL     1      68.075   7.797   4.722  1.00  0.00    -0.235 N 
HETATM    4  C   UNL     1      65.372   8.409   5.756  1.00  0.00     0.141 C 
HETATM    5  C   UNL     1      65.074   5.959   5.776  1.00  0.00     0.141 C 
HETATM    6  N   UNL     1      67.271   5.835   3.768  1.00  0.00    -0.235 N 
HETATM    7  C   UNL     1      63.733   6.066   5.053  1.00  0.00     0.025 C 
HETATM    8  C   UNL     1      64.044   8.580   5.013  1.00  0.00     0.025 C 
HETATM    9  C   UNL     1      63.064   7.430   5.342  1.00  0.00    -0.007 C 
HETATM   10  H   UNL     1      68.000   8.571   5.325  1.00  0.00     0.174 HD
HETATM   11  H   UNL     1      68.882   7.679   4.171  1.00  0.00     0.174 HD
HETATM   12  H   UNL     1      66.557   5.160   3.693  1.00  0.00     0.174 HD
HETATM   13  H   UNL     1      68.090   5.745   3.231  1.00  0.00     0.174 HD
ENDROOT
BRANCH   9  14
HETATM   14  C   UNL     1      61.785   7.600   4.493  1.00  0.00     0.043 C 
BRANCH  14  15
HETATM   15  C   UNL     1      61.875   8.727   3.493  1.00  0.00    -0.058 A 
HETATM   16  C   UNL     1      61.725  10.060   3.909  1.00  0.00     0.007 A 
HETATM   17  C   UNL     1      61.821  11.104   2.982  1.00  0.00     0.001 A 
HETATM   18  C   UNL     1      62.069  10.823   1.636  1.00  0.00     0.000 A 
HETATM   19  C   UNL     1      62.218   9.500   1.213  1.00  0.00     0.001 A 
HETATM   20  C   UNL     1      62.123   8.455   2.136  1.00  0.00     0.007 A 
ENDBRANCH  14  15
ENDBRANCH   9  14
TORSDOF 2
ENDMDL
MODEL 4
REMARK VINA RESULT:      -5.2      3.206      6.664
REMARK  2 active torsions:
REMARK  status: ('A' for Active; 'I' for Inactive)
REMARK       I    between atoms: C_1  and  N_2 
REMARK       I    between atoms: C_1  and  N_6 
REMARK    1  A    between atoms: C_7  and  C_10 
REMARK    2  A    between atoms: C_7  and  C_11 
ROOT
HETATM    1  C   UNL     1      61.593   9.546   2.639  1.00  0.00     0.667 C 
HETATM    2  N   UNL     1      62.179   8.675   3.624  1.00  0.00    -0.219 N 
HETATM    3  N   UNL     1      60.836   9.090   1.702  1.00  0.00    -0.235 N 
HETATM    4  C   UNL     1      62.531   7.293   3.329  1.00  0.00     0.141 C 
HETATM    5  C   UNL     1      62.566   9.161   4.941  1.00  0.00     0.141 C 
HETATM    6  N   UNL     1      61.875  10.940   2.654  1.00  0.00    -0.235 N 
HETATM    7  C   UNL     1      64.085   9.080   5.077  1.00  0.00     0.025 C 
HETATM    8  C   UNL     1      64.056   7.175   3.408  1.00  0.00     0.025 C 
HETATM    9  C   UNL     1      64.586   7.647   4.782  1.00  0.00    -0.007 C 
HETATM   10  H   UNL     1      60.621   8.130   1.664  1.00  0.00     0.174 HD
HETATM   11  H   UNL     1      60.470   9.702   1.024  1.00  0.00     0.174 HD
HETATM   12  H   UNL     1      62.450  11.319   3.358  1.00  0.00     0.174 HD
HETATM   13  H   UNL     1      61.494  11.526   1.962  1.00  0.00     0.174 HD
ENDROOT
BRANCH   9  14
HETATM   14  C   UNL     1      66.129   7.599   4.770  1.00  0.00     0.043 C 
BRANCH  14  15
HETATM   15  C   UNL     1      66.715   6.859   5.947  1.00  0.00    -0.058 A 
HETATM   16  C   UNL     1      67.436   5.670   5.752  1.00  0.00     0.007 A 
HETATM   17  C   UNL     1      67.990   4.993   6.843  1.00  0.00     0.001 A 
HETATM   18  C   UNL     1      67.830   5.500   8.135  1.00  0.00     0.000 A 
HETATM   19  C   UNL     1      67.114   6.682   8.339  1.00  0.00     0.001 A 
HETATM   20  C   UNL     1      66.559   7.362   7.251  1.00  0.00     0.007 A 
ENDBRANCH  14  15
ENDBRANCH   9  14
TORSDOF 2
ENDMDL
MODEL 5
REMARK VINA RESULT:      -5.2      1.822      2.188
REMARK  2 active torsions:
REMARK  status: ('A' for Active; 'I' for Inactive)
REMARK       I    between atoms: C_1  and  N_2 
REMARK       I    between atoms: C_1  and  N_6 
REMARK    1  A    between atoms: C_7  and  C_10 
REMARK    2  A    between atoms: C_7  and  C_11 
ROOT
HETATM    1  C   UNL     1      67.033   4.579   5.419  1.00  0.00     0.667 C 
HETATM    2  N   UNL     1      66.568   5.645   4.571  1.00  0.00    -0.219 N 
HETATM    3  N   UNL     1      67.523   3.493   4.931  1.00  0.00    -0.235 N 
HETATM    4  C   UNL     1      66.009   5.398   3.249  1.00  0.00     0.141 C 
HETATM    5  C   UNL     1      66.518   7.025   5.033  1.00  0.00     0.141 C 
HETATM    6  N   UNL     1      66.919   4.686   6.833  1.00  0.00    -0.235 N 
HETATM    7  C   UNL     1      65.061   7.476   5.107  1.00  0.00     0.025 C 
HETATM    8  C   UNL     1      64.530   5.794   3.289  1.00  0.00     0.025 C 
HETATM    9  C   UNL     1      64.352   7.258   3.749  1.00  0.00    -0.007 C 
HETATM   10  H   UNL     1      67.615   3.389   3.956  1.00  0.00     0.174 HD
HETATM   11  H   UNL     1      67.808   2.768   5.532  1.00  0.00     0.174 HD
HETATM   12  H   UNL     1      66.548   5.504   7.238  1.00  0.00     0.174 HD
HETATM   13  H   UNL     1      67.213   3.943   7.407  1.00  0.00     0.174 HD
ENDROOT
BRANCH   9  14
HETATM   14  C   UNL     1      62.844   7.570   3.866  1.00  0.00     0.043 C 
BRANCH  14  15
HETATM   15  C   UNL     1      62.480   8.957   3.394  1.00  0.00    -0.058 A 
HETATM   16  C   UNL     1      62.237   9.203   2.033  1.00  0.00     0.007 A 
HETATM   17  C   UNL     1      61.886  10.486   1.599  1.00  0.00     0.001 A 
HETATM   18  C   UNL     1      61.775  11.530   2.521  1.00  0.00     0.000 A 
HETATM   19  C   UNL     1      62.015  11.294   3.877  1.00  0.00     0.001 A 
HETATM   20  C   UNL     1      62.365  10.014   4.314  1.00  0.00     0.007 A 
ENDBRANCH  14  15
ENDBRANCH   9  14
TORSDOF 2
ENDMDL
MODEL 6
REMARK VINA RESULT:      -5.2      1.437      2.530
REMARK  2 active torsions:
REMARK  status: ('A' for Active; 'I' for Inactive)
REMARK       I    between atoms: C_1  and  N_2 
REMARK       I    between atoms: C_1  and  N_6 
REMARK    1  A    between atoms: C_7  and  C_10 
REMARK    2  A    between atoms: C_7  and  C_11 
ROOT
HETATM    1  C   UNL     1      67.327   4.029   8.147  1.00  0.00     0.667 C 
HETATM    2  N   UNL     1      66.286   5.003   7.953  1.00  0.00    -0.219 N 
HETATM    3  N   UNL     1      68.069   4.036   9.200  1.00  0.00    -0.235 N 
HETATM    4  C   UNL     1      66.375   6.354   8.488  1.00  0.00     0.141 C 
HETATM    5  C   UNL     1      65.132   4.730   7.106  1.00  0.00     0.141 C 
HETATM    6  N   UNL     1      67.592   3.051   7.148  1.00  0.00    -0.235 N 
HETATM    7  C   UNL     1      65.172   5.656   5.892  1.00  0.00     0.025 C 
HETATM    8  C   UNL     1      66.465   7.318   7.301  1.00  0.00     0.025 C 
HETATM    9  C   UNL     1      65.272   7.135   6.336  1.00  0.00    -0.007 C 
HETATM   10  H   UNL     1      67.912   4.700   9.909  1.00  0.00     0.174 HD
HETATM   11  H   UNL     1      68.794   3.377   9.295  1.00  0.00     0.174 HD
HETATM   12  H   UNL     1      67.042   3.019   6.331  1.00  0.00     0.174 HD
HETATM   13  H   UNL     1      68.324   2.406   7.274  1.00  0.00     0.174 HD
ENDROOT
BRANCH   9  14
HETATM   14  C   UNL     1      65.466   8.058   5.114  1.00  0.00     0.043 C 
BRANCH  14  15
HETATM   15  C   UNL     1      64.183   8.684   4.625  1.00  0.00    -0.058 A 
HETATM   16  C   UNL     1      63.445   8.081   3.593  1.00  0.00     0.007 A 
HETATM   17  C   UNL     1      62.249   8.656   3.151  1.00  0.00     0.001 A 
HETATM   18  C   UNL     1      61.781   9.836   3.737  1.00  0.00     0.000 A 
HETATM   19  C   UNL     1      62.509  10.443   4.763  1.00  0.00     0.001 A 
HETATM   20  C   UNL     1      63.704   9.871   5.208  1.00  0.00     0.007 A 
ENDBRANCH  14  15
ENDBRANCH   9  14
TORSDOF 2
ENDMDL
MODEL 7
REMARK VINA RESULT:      -4.9      2.311      3.254
REMARK  2 active torsions:
REMARK  status: ('A' for Active; 'I' for Inactive)
REMARK       I    between atoms: C_1  and  N_2 
REMARK       I    between atoms: C_1  and  N_6 
REMARK    1  A    between atoms: C_7  and  C_10 
REMARK    2  A    between atoms: C_7  and  C_11 
ROOT
HETATM    1  C   UNL     1      66.867   7.552   5.606  1.00  0.00     0.667 C 
HETATM    2  N   UNL     1      65.480   7.281   5.331  1.00  0.00    -0.219 N 
HETATM    3  N   UNL     1      67.233   8.187   6.665  1.00  0.00    -0.235 N 
HETATM    4  C   UNL     1      64.412   8.168   5.772  1.00  0.00     0.141 C 
HETATM    5  C   UNL     1      65.071   6.164   4.490  1.00  0.00     0.141 C 
HETATM    6  N   UNL     1      67.873   7.158   4.680  1.00  0.00    -0.235 N 
HETATM    7  C   UNL     1      64.428   6.706   3.216  1.00  0.00     0.025 C 
HETATM    8  C   UNL     1      63.766   8.773   4.523  1.00  0.00     0.025 C 
HETATM    9  C   UNL     1      63.269   7.673   3.557  1.00  0.00    -0.007 C 
HETATM   10  H   UNL     1      66.561   8.473   7.325  1.00  0.00     0.174 HD
HETATM   11  H   UNL     1      68.185   8.385   6.816  1.00  0.00     0.174 HD
HETATM   12  H   UNL     1      67.625   6.670   3.861  1.00  0.00     0.174 HD
HETATM   13  H   UNL     1      68.817   7.371   4.860  1.00  0.00     0.174 HD
ENDROOT
BRANCH   9  14
HETATM   14  C   UNL     1      62.719   8.338   2.277  1.00  0.00     0.043 C 
BRANCH  14  15
HETATM   15  C   UNL     1      61.255   8.060   2.038  1.00  0.00    -0.058 A 
HETATM   16  C   UNL     1      60.429   7.645   3.094  1.00  0.00     0.007 A 
HETATM   17  C   UNL     1      59.069   7.400   2.873  1.00  0.00     0.001 A 
HETATM   18  C   UNL     1      58.526   7.570   1.597  1.00  0.00     0.000 A 
HETATM   19  C   UNL     1      59.342   7.982   0.539  1.00  0.00     0.001 A 
HETATM   20  C   UNL     1      60.700   8.228   0.756  1.00  0.00     0.007 A 
ENDBRANCH  14  15
ENDBRANCH   9  14
TORSDOF 2
ENDMDL
MODEL 8
REMARK VINA RESULT:      -4.8      3.659      6.601
REMARK  2 active torsions:
REMARK  status: ('A' for Active; 'I' for Inactive)
REMARK       I    between atoms: C_1  and  N_2 
REMARK       I    between atoms: C_1  and  N_6 
REMARK    1  A    between atoms: C_7  and  C_10 
REMARK    2  A    between atoms: C_7  and  C_11 
ROOT
HETATM    1  C   UNL     1      60.353   7.741   1.464  1.00  0.00     0.667 C 
HETATM    2  N   UNL     1      61.682   8.148   1.838  1.00  0.00    -0.219 N 
HETATM    3  N   UNL     1      59.513   8.571   0.950  1.00  0.00    -0.235 N 
HETATM    4  C   UNL     1      61.983   9.501   2.285  1.00  0.00     0.141 C 
HETATM    5  C   UNL     1      62.784   7.198   1.905  1.00  0.00     0.141 C 
HETATM    6  N   UNL     1      59.920   6.406   1.696  1.00  0.00    -0.235 N 
HETATM    7  C   UNL     1      63.240   7.064   3.356  1.00  0.00     0.025 C 
HETATM    8  C   UNL     1      62.403   9.421   3.756  1.00  0.00     0.025 C 
HETATM    9  C   UNL     1      63.589   8.449   3.950  1.00  0.00    -0.007 C 
HETATM   10  H   UNL     1      59.783   9.501   0.776  1.00  0.00     0.174 HD
HETATM   11  H   UNL     1      58.601   8.274   0.729  1.00  0.00     0.174 HD
HETATM   12  H   UNL     1      60.539   5.747   2.088  1.00  0.00     0.174 HD
HETATM   13  H   UNL     1      59.001   6.140   1.464  1.00  0.00     0.174 HD
ENDROOT
BRANCH   9  14
HETATM   14  C   UNL     1      63.904   8.333   5.457  1.00  0.00     0.043 C 
BRANCH  14  15
HETATM   15  C   UNL     1      65.213   7.638   5.745  1.00  0.00    -0.058 A 
HETATM   16  C   UNL     1      66.383   8.020   5.070  1.00  0.00     0.007 A 
HETATM   17  C   UNL     1      67.598   7.384   5.348  1.00  0.00     0.001 A 
HETATM   18  C   UNL     1      67.652   6.365   6.302  1.00  0.00     0.000 A 
HETATM   19  C   UNL     1      66.491   5.978   6.978  1.00  0.00     0.001 A 
HETATM   20  C   UNL     1      65.276   6.611   6.703  1.00  0.00     0.007 A 
ENDBRANCH  14  15
ENDBRANCH   9  14
TORSDOF 2
ENDMDL
MODEL 9
REMARK VINA RESULT:      -4.7      3.638      4.555
REMARK  2 active torsions:
REMARK  status: ('A' for Active; 'I' for Inactive)
REMARK       I    between atoms: C_1  and  N_2 
REMARK       I    between atoms: C_1  and  N_6 
REMARK    1  A    between atoms: C_7  and  C_10 
REMARK    2  A    between atoms: C_7  and  C_11 
ROOT
HETATM    1  C   UNL     1      59.911   3.325   5.844  1.00  0.00     0.667 C 
HETATM    2  N   UNL     1      59.978   4.763   5.835  1.00  0.00    -0.219 N 
HETATM    3  N   UNL     1      59.924   2.657   6.946  1.00  0.00    -0.235 N 
HETATM    4  C   UNL     1      60.683   5.515   6.864  1.00  0.00     0.141 C 
HETATM    5  C   UNL     1      59.446   5.546   4.728  1.00  0.00     0.141 C 
HETATM    6  N   UNL     1      59.871   2.600   4.621  1.00  0.00    -0.235 N 
HETATM    7  C   UNL     1      60.599   6.249   4.013  1.00  0.00     0.025 C 
HETATM    8  C   UNL     1      61.879   6.203   6.198  1.00  0.00     0.025 C 
HETATM    9  C   UNL     1      61.432   7.087   5.012  1.00  0.00    -0.007 C 
HETATM   10  H   UNL     1      59.951   3.130   7.809  1.00  0.00     0.174 HD
HETATM   11  H   UNL     1      59.906   1.673   6.924  1.00  0.00     0.174 HD
HETATM   12  H   UNL     1      59.860   3.082   3.762  1.00  0.00     0.174 HD
HETATM   13  H   UNL     1      59.854   1.616   4.634  1.00  0.00     0.174 HD
ENDROOT
BRANCH   9  14
HETATM   14  C   UNL     1      62.682   7.673   4.322  1.00  0.00     0.043 C 
BRANCH  14  15
HETATM   15  C   UNL     1      62.397   8.924   3.527  1.00  0.00    -0.058 A 
HETATM   16  C   UNL     1      62.319   8.874   2.126  1.00  0.00     0.007 A 
HETATM   17  C   UNL     1      62.041  10.032   1.392  1.00  0.00     0.001 A 
HETATM   18  C   UNL     1      61.838  11.247   2.052  1.00  0.00     0.000 A 
HETATM   19  C   UNL     1      61.915  11.306   3.446  1.00  0.00     0.001 A 
HETATM   20  C   UNL     1      62.191  10.151   4.183  1.00  0.00     0.007 A 
ENDBRANCH  14  15
ENDBRANCH   9  14
TORSDOF 2
ENDMDL
