MODEL 1
REMARK VINA RESULT:      -5.9      0.000      0.000
REMARK  2 active torsions:
REMARK  status: ('A' for Active; 'I' for Inactive)
REMARK    1  A    between atoms: C_1  and  C_7 
REMARK    2  A    between atoms: C_4  and  C_8 
ROOT
HETATM    1  C   UNK     1      65.002   6.465   6.977  1.00  0.00     0.117 A 
HETATM    2  N   UNK     1      64.698   7.675   6.348  1.00  0.00    -0.344 N 
ATOM      3  HN  UNK     1      65.160   8.562   6.547  1.00  0.00     0.167 HD
HETATM    4  C   UNK     1      63.734   7.515   5.461  1.00  0.00     0.085 A 
HETATM    5  S   UNK     1      63.111   5.909   5.366  1.00  0.00    -0.081 SA
HETATM    6  C   UNK     1      64.224   5.402   6.558  1.00  0.00     0.088 A 
ENDROOT
BRANCH   4   7
HETATM    7  C   UNK     1      63.163   8.602   4.643  1.00  0.00    -0.002 A 
HETATM    8  C   UNK     1      62.919   9.886   5.155  1.00  0.00     0.015 A 
HETATM    9  C   UNK     1      62.403  10.899   4.339  1.00  0.00     0.007 A 
HETATM   10  C   UNK     1      62.114  10.652   2.994  1.00  0.00    -0.062 A 
HETATM   11  C   UNK     1      62.331   9.370   2.480  1.00  0.00     0.007 A 
HETATM   12  C   UNK     1      61.588  11.758   2.128  1.00  0.00     0.048 C 
HETATM   13  C   UNK     1      62.844   8.357   3.299  1.00  0.00     0.015 A 
ENDBRANCH   4   7
BRANCH   1  14
HETATM   14  C   UNK     1      66.043   6.336   7.991  1.00  0.00     0.227 C 
HETATM   15  O   UNK     1      66.888   7.184   8.248  1.00  0.00    -0.643 OA
HETATM   16  O   UNK     1      66.035   5.169   8.674  1.00  0.00    -0.643 OA
ENDBRANCH   1  14
TORSDOF 2
ENDMDL
MODEL 2
REMARK VINA RESULT:      -5.5      1.687      1.923
REMARK  2 active torsions:
REMARK  status: ('A' for Active; 'I' for Inactive)
REMARK    1  A    between atoms: C_1  and  C_7 
REMARK    2  A    between atoms: C_4  and  C_8 
ROOT
HETATM    1  C   UNK     1      66.186   6.700   7.477  1.00  0.00     0.117 A 
HETATM    2  N   UNK     1      65.008   7.090   6.837  1.00  0.00    -0.344 N 
ATOM      3  HN  UNK     1      64.073   6.980   7.229  1.00  0.00     0.167 HD
HETATM    4  C   UNK     1      65.267   7.622   5.657  1.00  0.00     0.085 A 
HETATM    5  S   UNK     1      66.940   7.642   5.236  1.00  0.00    -0.081 SA
HETATM    6  C   UNK     1      67.332   6.929   6.737  1.00  0.00     0.088 A 
ENDROOT
BRANCH   4   7
HETATM    7  C   UNK     1      64.240   8.111   4.718  1.00  0.00    -0.002 A 
HETATM    8  C   UNK     1      63.531   9.305   4.925  1.00  0.00     0.015 A 
HETATM    9  C   UNK     1      62.586   9.750   3.995  1.00  0.00     0.007 A 
HETATM   10  C   UNK     1      62.322   9.011   2.838  1.00  0.00    -0.062 A 
HETATM   11  C   UNK     1      63.005   7.809   2.634  1.00  0.00     0.007 A 
HETATM   12  C   UNK     1      61.325   9.520   1.840  1.00  0.00     0.048 C 
HETATM   13  C   UNK     1      63.948   7.363   3.567  1.00  0.00     0.015 A 
ENDBRANCH   4   7
BRANCH   1  14
HETATM   14  C   UNK     1      66.207   6.100   8.807  1.00  0.00     0.227 C 
HETATM   15  O   UNK     1      66.230   6.722   9.862  1.00  0.00    -0.643 OA
HETATM   16  O   UNK     1      66.201   4.748   8.825  1.00  0.00    -0.643 OA
ENDBRANCH   1  14
TORSDOF 2
ENDMDL
MODEL 3
REMARK VINA RESULT:      -4.6      2.574      3.776
REMARK  2 active torsions:
REMARK  status: ('A' for Active; 'I' for Inactive)
REMARK    1  A    between atoms: C_1  and  C_7 
REMARK    2  A    between atoms: C_4  and  C_8 
ROOT
HETATM    1  C   UNK     1      67.110   4.358   8.234  1.00  0.00     0.117 A 
HETATM    2  N   UNK     1      66.151   4.803   7.320  1.00  0.00    -0.344 N 
ATOM      3  HN  UNK     1      65.642   4.198   6.676  1.00  0.00     0.167 HD
HETATM    4  C   UNK     1      65.993   6.110   7.403  1.00  0.00     0.085 A 
HETATM    5  S   UNK     1      67.019   6.882   8.556  1.00  0.00    -0.081 SA
HETATM    6  C   UNK     1      67.684   5.368   8.984  1.00  0.00     0.088 A 
ENDROOT
BRANCH   4   7
HETATM    7  C   UNK     1      65.074   6.896   6.558  1.00  0.00    -0.002 A 
HETATM    8  C   UNK     1      63.694   6.644   6.503  1.00  0.00     0.015 A 
HETATM    9  C   UNK     1      62.851   7.431   5.711  1.00  0.00     0.007 A 
HETATM   10  C   UNK     1      63.366   8.485   4.952  1.00  0.00    -0.062 A 
HETATM   11  C   UNK     1      64.742   8.730   4.981  1.00  0.00     0.007 A 
HETATM   12  C   UNK     1      62.442   9.335   4.131  1.00  0.00     0.048 C 
HETATM   13  C   UNK     1      65.585   7.939   5.771  1.00  0.00     0.015 A 
ENDBRANCH   4   7
BRANCH   1  14
HETATM   14  C   UNK     1      67.478   2.954   8.380  1.00  0.00     0.227 C 
HETATM   15  O   UNK     1      67.322   2.285   9.394  1.00  0.00    -0.643 OA
HETATM   16  O   UNK     1      68.031   2.390   7.282  1.00  0.00    -0.643 OA
ENDBRANCH   1  14
TORSDOF 2
ENDMDL
MODEL 4
REMARK VINA RESULT:      -4.6     12.459     13.776
REMARK  2 active torsions:
REMARK  status: ('A' for Active; 'I' for Inactive)
REMARK    1  A    between atoms: C_1  and  C_7 
REMARK    2  A    between atoms: C_4  and  C_8 
ROOT
HETATM    1  C   UNK     1      54.531   3.193  13.786  1.00  0.00     0.117 A 
HETATM    2  N   UNK     1      55.853   2.877  13.466  1.00  0.00    -0.344 N 
ATOM      3  HN  UNK     1      56.527   3.536  13.075  1.00  0.00     0.167 HD
HETATM    4  C   UNK     1      56.115   1.613  13.738  1.00  0.00     0.085 A 
HETATM    5  S   UNK     1      54.770   0.724  14.355  1.00  0.00    -0.081 SA
HETATM    6  C   UNK     1      53.801   2.128  14.281  1.00  0.00     0.088 A 
ENDROOT
BRANCH   4   7
HETATM    7  C   UNK     1      57.412   0.956  13.492  1.00  0.00    -0.002 A 
HETATM    8  C   UNK     1      57.549  -0.437  13.391  1.00  0.00     0.015 A 
HETATM    9  C   UNK     1      58.792  -1.021  13.128  1.00  0.00     0.007 A 
HETATM   10  C   UNK     1      59.931  -0.226  12.964  1.00  0.00    -0.062 A 
HETATM   11  C   UNK     1      59.811   1.161  13.086  1.00  0.00     0.007 A 
HETATM   12  C   UNK     1      61.250  -0.869  12.654  1.00  0.00     0.048 C 
HETATM   13  C   UNK     1      58.566   1.743  13.353  1.00  0.00     0.015 A 
ENDBRANCH   4   7
BRANCH   1  14
HETATM   14  C   UNK     1      53.967   4.528  13.610  1.00  0.00     0.227 C 
HETATM   15  O   UNK     1      54.006   5.426  14.442  1.00  0.00    -0.643 OA
HETATM   16  O   UNK     1      53.364   4.741  12.419  1.00  0.00    -0.643 OA
ENDBRANCH   1  14
TORSDOF 2
ENDMDL
MODEL 5
REMARK VINA RESULT:      -4.5      5.038      6.332
REMARK  2 active torsions:
REMARK  status: ('A' for Active; 'I' for Inactive)
REMARK    1  A    between atoms: C_1  and  C_7 
REMARK    2  A    between atoms: C_4  and  C_8 
ROOT
HETATM    1  C   UNK     1      61.815   9.965   3.704  1.00  0.00     0.117 A 
HETATM    2  N   UNK     1      60.723   9.165   3.360  1.00  0.00    -0.344 N 
ATOM      3  HN  UNK     1      59.889   9.501   2.877  1.00  0.00     0.167 HD
HETATM    4  C   UNK     1      60.914   7.917   3.742  1.00  0.00     0.085 A 
HETATM    5  S   UNK     1      62.401   7.646   4.575  1.00  0.00    -0.081 SA
HETATM    6  C   UNK     1      62.817   9.291   4.377  1.00  0.00     0.088 A 
ENDROOT
BRANCH   4   7
HETATM    7  C   UNK     1      59.939   6.826   3.552  1.00  0.00    -0.002 A 
HETATM    8  C   UNK     1      59.417   6.082   4.622  1.00  0.00     0.015 A 
HETATM    9  C   UNK     1      58.472   5.075   4.403  1.00  0.00     0.007 A 
HETATM   10  C   UNK     1      58.029   4.783   3.110  1.00  0.00    -0.062 A 
HETATM   11  C   UNK     1      58.560   5.501   2.035  1.00  0.00     0.007 A 
HETATM   12  C   UNK     1      56.994   3.718   2.898  1.00  0.00     0.048 C 
HETATM   13  C   UNK     1      59.509   6.507   2.255  1.00  0.00     0.015 A 
ENDBRANCH   4   7
BRANCH   1  14
HETATM   14  C   UNK     1      61.890  11.388   3.387  1.00  0.00     0.227 C 
HETATM   15  O   UNK     1      61.967  11.856   2.258  1.00  0.00    -0.643 OA
HETATM   16  O   UNK     1      61.870  12.214   4.457  1.00  0.00    -0.643 OA
ENDBRANCH   1  14
TORSDOF 2
ENDMDL
MODEL 6
REMARK VINA RESULT:      -4.4      4.093      5.060
REMARK  2 active torsions:
REMARK  status: ('A' for Active; 'I' for Inactive)
REMARK    1  A    between atoms: C_1  and  C_7 
REMARK    2  A    between atoms: C_4  and  C_8 
ROOT
HETATM    1  C   UNK     1      62.992   8.630   4.283  1.00  0.00     0.117 A 
HETATM    2  N   UNK     1      61.608   8.625   4.094  1.00  0.00    -0.344 N 
ATOM      3  HN  UNK     1      60.950   9.195   4.626  1.00  0.00     0.167 HD
HETATM    4  C   UNK     1      61.266   7.786   3.135  1.00  0.00     0.085 A 
HETATM    5  S   UNK     1      62.589   6.925   2.436  1.00  0.00    -0.081 SA
HETATM    6  C   UNK     1      63.676   7.754   3.459  1.00  0.00     0.088 A 
ENDROOT
BRANCH   4   7
HETATM    7  C   UNK     1      59.879   7.527   2.707  1.00  0.00    -0.002 A 
HETATM    8  C   UNK     1      59.518   7.377   1.358  1.00  0.00     0.015 A 
HETATM    9  C   UNK     1      58.196   7.102   0.994  1.00  0.00     0.007 A 
HETATM   10  C   UNK     1      57.201   6.975   1.968  1.00  0.00    -0.062 A 
HETATM   11  C   UNK     1      57.544   7.146   3.312  1.00  0.00     0.007 A 
HETATM   12  C   UNK     1      55.794   6.652   1.560  1.00  0.00     0.048 C 
HETATM   13  C   UNK     1      58.868   7.425   3.674  1.00  0.00     0.015 A 
ENDBRANCH   4   7
BRANCH   1  14
HETATM   14  C   UNK     1      63.658   9.479   5.265  1.00  0.00     0.227 C 
HETATM   15  O   UNK     1      63.141  10.424   5.847  1.00  0.00    -0.643 OA
HETATM   16  O   UNK     1      64.946   9.157   5.520  1.00  0.00    -0.643 OA
ENDBRANCH   1  14
TORSDOF 2
ENDMDL
MODEL 7
REMARK VINA RESULT:      -4.3      2.916      3.335
REMARK  2 active torsions:
REMARK  status: ('A' for Active; 'I' for Inactive)
REMARK    1  A    between atoms: C_1  and  C_7 
REMARK    2  A    between atoms: C_4  and  C_8 
ROOT
HETATM    1  C   UNK     1      62.495   4.891   5.173  1.00  0.00     0.117 A 
HETATM    2  N   UNK     1      61.975   6.145   4.846  1.00  0.00    -0.344 N 
ATOM      3  HN  UNK     1      61.087   6.511   5.190  1.00  0.00     0.167 HD
HETATM    4  C   UNK     1      62.787   6.795   4.033  1.00  0.00     0.085 A 
HETATM    5  S   UNK     1      64.201   5.914   3.584  1.00  0.00    -0.081 SA
HETATM    6  C   UNK     1      63.704   4.607   4.564  1.00  0.00     0.088 A 
ENDROOT
BRANCH   4   7
HETATM    7  C   UNK     1      62.519   8.135   3.479  1.00  0.00    -0.002 A 
HETATM    8  C   UNK     1      62.362   8.369   2.104  1.00  0.00     0.015 A 
HETATM    9  C   UNK     1      62.079   9.651   1.620  1.00  0.00     0.007 A 
HETATM   10  C   UNK     1      61.950  10.731   2.499  1.00  0.00    -0.062 A 
HETATM   11  C   UNK     1      62.127  10.514   3.868  1.00  0.00     0.007 A 
HETATM   12  C   UNK     1      61.618  12.092   1.963  1.00  0.00     0.048 C 
HETATM   13  C   UNK     1      62.415   9.231   4.350  1.00  0.00     0.015 A 
ENDBRANCH   4   7
BRANCH   1  14
HETATM   14  C   UNK     1      61.822   3.960   6.072  1.00  0.00     0.227 C 
HETATM   15  O   UNK     1      61.265   4.268   7.119  1.00  0.00    -0.643 OA
HETATM   16  O   UNK     1      61.840   2.667   5.676  1.00  0.00    -0.643 OA
ENDBRANCH   1  14
TORSDOF 2
ENDMDL
MODEL 8
REMARK VINA RESULT:      -4.2      6.114      6.908
REMARK  2 active torsions:
REMARK  status: ('A' for Active; 'I' for Inactive)
REMARK    1  A    between atoms: C_1  and  C_7 
REMARK    2  A    between atoms: C_4  and  C_8 
ROOT
HETATM    1  C   UNK     1      60.990   8.497   3.583  1.00  0.00     0.117 A 
HETATM    2  N   UNK     1      59.606   8.390   3.432  1.00  0.00    -0.344 N 
ATOM      3  HN  UNK     1      59.010   9.115   3.031  1.00  0.00     0.167 HD
HETATM    4  C   UNK     1      59.173   7.225   3.874  1.00  0.00     0.085 A 
HETATM    5  S   UNK     1      60.403   6.211   4.536  1.00  0.00    -0.081 SA
HETATM    6  C   UNK     1      61.580   7.395   4.174  1.00  0.00     0.088 A 
ENDROOT
BRANCH   4   7
HETATM    7  C   UNK     1      57.758   6.807   3.882  1.00  0.00    -0.002 A 
HETATM    8  C   UNK     1      57.082   6.443   5.057  1.00  0.00     0.015 A 
HETATM    9  C   UNK     1      55.732   6.081   5.027  1.00  0.00     0.007 A 
HETATM   10  C   UNK     1      55.025   6.069   3.821  1.00  0.00    -0.062 A 
HETATM   11  C   UNK     1      55.694   6.407   2.641  1.00  0.00     0.007 A 
HETATM   12  C   UNK     1      53.569   5.706   3.813  1.00  0.00     0.048 C 
HETATM   13  C   UNK     1      57.047   6.765   2.673  1.00  0.00     0.015 A 
ENDBRANCH   4   7
BRANCH   1  14
HETATM   14  C   UNK     1      61.748   9.671   3.160  1.00  0.00     0.227 C 
HETATM   15  O   UNK     1      62.445   9.736   2.156  1.00  0.00    -0.643 OA
HETATM   16  O   UNK     1      61.639  10.745   3.973  1.00  0.00    -0.643 OA
ENDBRANCH   1  14
TORSDOF 2
ENDMDL
MODEL 9
REMARK VINA RESULT:      -4.2      4.901      6.457
REMARK  2 active torsions:
REMARK  status: ('A' for Active; 'I' for Inactive)
REMARK    1  A    between atoms: C_1  and  C_7 
REMARK    2  A    between atoms: C_4  and  C_8 
ROOT
HETATM    1  C   UNK     1      59.786   7.384   2.423  1.00  0.00     0.117 A 
HETATM    2  N   UNK     1      61.161   7.626   2.457  1.00  0.00    -0.344 N 
ATOM      3  HN  UNK     1      61.693   8.046   1.694  1.00  0.00     0.167 HD
HETATM    4  C   UNK     1      61.680   7.238   3.606  1.00  0.00     0.085 A 
HETATM    5  S   UNK     1      60.548   6.522   4.694  1.00  0.00    -0.081 SA
HETATM    6  C   UNK     1      59.292   6.782   3.566  1.00  0.00     0.088 A 
ENDROOT
BRANCH   4   7
HETATM    7  C   UNK     1      63.111   7.330   3.950  1.00  0.00    -0.002 A 
HETATM    8  C   UNK     1      64.064   6.412   3.480  1.00  0.00     0.015 A 
HETATM    9  C   UNK     1      65.417   6.551   3.805  1.00  0.00     0.007 A 
HETATM   10  C   UNK     1      65.851   7.606   4.612  1.00  0.00    -0.062 A 
HETATM   11  C   UNK     1      64.908   8.512   5.106  1.00  0.00     0.007 A 
HETATM   12  C   UNK     1      67.311   7.754   4.926  1.00  0.00     0.048 C 
HETATM   13  C   UNK     1      63.553   8.370   4.782  1.00  0.00     0.015 A 
ENDBRANCH   4   7
BRANCH   1  14
HETATM   14  C   UNK     1      58.945   7.732   1.282  1.00  0.00     0.227 C 
HETATM   15  O   UNK     1      57.725   7.634   1.249  1.00  0.00    -0.643 OA
HETATM   16  O   UNK     1      59.611   8.193   0.200  1.00  0.00    -0.643 OA
ENDBRANCH   1  14
TORSDOF 2
ENDMDL
