MODEL 1
REMARK VINA RESULT:      -5.2      0.000      0.000
REMARK  3 active torsions:
REMARK  status: ('A' for Active; 'I' for Inactive)
REMARK    1  A    between atoms: C_1  and  N_2 
REMARK    2  A    between atoms: C_6  and  C_12 
REMARK    3  A    between atoms: O_11  and  C_12 
ROOT
HETATM    1  C   UNL     1      64.495   8.082   5.218  1.00  0.00     0.102 A 
HETATM    2  N   UNL     1      64.135   9.268   5.756  1.00  0.00    -0.352 N 
ATOM      3  HN  UNL     1      64.527   9.578   6.645  1.00  0.00     0.166 HD
HETATM    4  C   UNL     1      63.928   7.647   4.020  1.00  0.00     0.049 A 
HETATM    5  C   UNL     1      62.685   9.699   3.860  1.00  0.00    -0.019 A 
HETATM    6  C   UNL     1      63.242  10.035   5.086  1.00  0.00     0.099 A 
HETATM    7  C   UNL     1      63.030   8.460   3.332  1.00  0.00     0.014 A 
ENDROOT
BRANCH   1   8
HETATM    8  N   UNL     1      65.533   7.357   5.780  1.00  0.00    -0.367 N 
HETATM    9  C   UNL     1      65.265   6.647   7.027  1.00  0.00     0.124 C 
HETATM   10  C   UNL     1      66.569   6.631   7.829  1.00  0.00     0.020 C 
HETATM   11  C   UNL     1      67.731   6.056   7.016  1.00  0.00     0.003 C 
HETATM   12  C   UNL     1      67.848   6.711   5.635  1.00  0.00     0.020 C 
HETATM   13  C   UNL     1      66.505   6.712   4.905  1.00  0.00     0.124 C 
ENDBRANCH   1   8
BRANCH   5  14
HETATM   14  C   UNL     1      61.797  10.643   3.114  1.00  0.00     0.204 C 
BRANCH  14  15
HETATM   15  O   UNL     1      61.872  11.947   3.680  1.00  0.00    -0.396 OA
HETATM   16  H   UNL     1      62.604  11.982   4.315  1.00  0.00     0.209 HD
ENDBRANCH  14  15
ENDBRANCH   5  14
TORSDOF 3
ENDMDL
MODEL 2
REMARK VINA RESULT:      -5.1      0.626      1.316
REMARK  3 active torsions:
REMARK  status: ('A' for Active; 'I' for Inactive)
REMARK    1  A    between atoms: C_1  and  N_2 
REMARK    2  A    between atoms: C_6  and  C_12 
REMARK    3  A    between atoms: O_11  and  C_12 
ROOT
HETATM    1  C   UNL     1      64.492   8.026   5.237  1.00  0.00     0.102 A 
HETATM    2  N   UNL     1      64.097   9.199   5.777  1.00  0.00    -0.352 N 
ATOM      3  HN  UNL     1      64.443   9.496   6.690  1.00  0.00     0.166 HD
HETATM    4  C   UNL     1      63.988   7.608   4.005  1.00  0.00     0.049 A 
HETATM    5  C   UNL     1      62.737   9.654   3.821  1.00  0.00    -0.019 A 
HETATM    6  C   UNL     1      63.230   9.972   5.079  1.00  0.00     0.099 A 
HETATM    7  C   UNL     1      63.118   8.427   3.289  1.00  0.00     0.014 A 
ENDROOT
BRANCH   1   8
HETATM    8  N   UNL     1      65.508   7.299   5.836  1.00  0.00    -0.367 N 
HETATM    9  C   UNL     1      66.840   7.895   5.866  1.00  0.00     0.124 C 
HETATM   10  C   UNL     1      67.851   6.747   5.791  1.00  0.00     0.020 C 
HETATM   11  C   UNL     1      67.607   5.700   6.881  1.00  0.00     0.003 C 
HETATM   12  C   UNL     1      66.143   5.248   6.927  1.00  0.00     0.020 C 
HETATM   13  C   UNL     1      65.194   6.445   6.976  1.00  0.00     0.124 C 
ENDBRANCH   1   8
BRANCH   5  14
HETATM   14  C   UNL     1      61.878  10.603   3.049  1.00  0.00     0.204 C 
BRANCH  14  15
HETATM   15  O   UNL     1      61.980  11.916   3.590  1.00  0.00    -0.396 OA
HETATM   16  H   UNL     1      62.906  12.202   3.571  1.00  0.00     0.209 HD
ENDBRANCH  14  15
ENDBRANCH   5  14
TORSDOF 3
ENDMDL
MODEL 3
REMARK VINA RESULT:      -4.8      2.834      5.783
REMARK  3 active torsions:
REMARK  status: ('A' for Active; 'I' for Inactive)
REMARK    1  A    between atoms: C_1  and  N_2 
REMARK    2  A    between atoms: C_6  and  C_12 
REMARK    3  A    between atoms: O_11  and  C_12 
ROOT
HETATM    1  C   UNL     1      64.934   7.911   5.601  1.00  0.00     0.102 A 
HETATM    2  N   UNL     1      64.678   7.280   6.767  1.00  0.00    -0.352 N 
ATOM      3  HN  UNL     1      63.734   7.259   7.153  1.00  0.00     0.166 HD
HETATM    4  C   UNL     1      66.234   7.969   5.096  1.00  0.00     0.049 A 
HETATM    5  C   UNL     1      67.010   6.634   6.940  1.00  0.00    -0.019 A 
HETATM    6  C   UNL     1      65.706   6.675   7.412  1.00  0.00     0.099 A 
HETATM    7  C   UNL     1      67.273   7.320   5.759  1.00  0.00     0.014 A 
ENDROOT
BRANCH   1   8
HETATM    8  N   UNL     1      63.885   8.384   4.829  1.00  0.00    -0.367 N 
HETATM    9  C   UNL     1      63.300   7.472   3.852  1.00  0.00     0.124 C 
HETATM   10  C   UNL     1      62.820   8.321   2.670  1.00  0.00     0.020 C 
HETATM   11  C   UNL     1      61.883   9.445   3.121  1.00  0.00     0.003 C 
HETATM   12  C   UNL     1      62.472  10.255   4.281  1.00  0.00     0.020 C 
HETATM   13  C   UNL     1      62.951   9.342   5.409  1.00  0.00     0.124 C 
ENDBRANCH   1   8
BRANCH   5  14
HETATM   14  C   UNL     1      68.075   5.849   7.637  1.00  0.00     0.204 C 
BRANCH  14  15
HETATM   15  O   UNL     1      68.075   6.141   9.030  1.00  0.00    -0.396 OA
HETATM   16  H   UNL     1      68.664   6.891   9.204  1.00  0.00     0.209 HD
ENDBRANCH  14  15
ENDBRANCH   5  14
TORSDOF 3
ENDMDL
MODEL 4
REMARK VINA RESULT:      -4.6      1.099      1.485
REMARK  3 active torsions:
REMARK  status: ('A' for Active; 'I' for Inactive)
REMARK    1  A    between atoms: C_1  and  N_2 
REMARK    2  A    between atoms: C_6  and  C_12 
REMARK    3  A    between atoms: O_11  and  C_12 
ROOT
HETATM    1  C   UNL     1      64.793   7.650   4.853  1.00  0.00     0.102 A 
HETATM    2  N   UNL     1      64.270   7.149   3.712  1.00  0.00    -0.352 N 
ATOM      3  HN  UNL     1      64.610   6.268   3.325  1.00  0.00     0.166 HD
HETATM    4  C   UNL     1      64.350   8.873   5.358  1.00  0.00     0.049 A 
HETATM    5  C   UNL     1      62.748   9.032   3.571  1.00  0.00    -0.019 A 
HETATM    6  C   UNL     1      63.284   7.844   3.095  1.00  0.00     0.099 A 
HETATM    7  C   UNL     1      63.317   9.561   4.724  1.00  0.00     0.014 A 
ENDROOT
BRANCH   1   8
HETATM    8  N   UNL     1      65.671   6.885   5.603  1.00  0.00    -0.367 N 
HETATM    9  C   UNL     1      65.468   6.842   7.047  1.00  0.00     0.124 C 
HETATM   10  C   UNL     1      66.848   6.685   7.694  1.00  0.00     0.020 C 
HETATM   11  C   UNL     1      67.608   5.482   7.130  1.00  0.00     0.003 C 
HETATM   12  C   UNL     1      67.626   5.479   5.598  1.00  0.00     0.020 C 
HETATM   13  C   UNL     1      66.221   5.664   5.025  1.00  0.00     0.124 C 
ENDBRANCH   1   8
BRANCH   5  14
HETATM   14  C   UNL     1      61.579   9.689   2.910  1.00  0.00     0.204 C 
BRANCH  14  15
HETATM   15  O   UNL     1      61.381  10.996   3.438  1.00  0.00    -0.396 OA
HETATM   16  H   UNL     1      61.835  11.072   4.292  1.00  0.00     0.209 HD
ENDBRANCH  14  15
ENDBRANCH   5  14
TORSDOF 3
ENDMDL
MODEL 5
REMARK VINA RESULT:      -4.2      2.973      5.782
REMARK  3 active torsions:
REMARK  status: ('A' for Active; 'I' for Inactive)
REMARK    1  A    between atoms: C_1  and  N_2 
REMARK    2  A    between atoms: C_6  and  C_12 
REMARK    3  A    between atoms: O_11  and  C_12 
ROOT
HETATM    1  C   UNL     1      64.015   7.723   5.514  1.00  0.00     0.102 A 
HETATM    2  N   UNL     1      63.352   6.591   5.833  1.00  0.00    -0.352 N 
ATOM      3  HN  UNL     1      62.355   6.496   5.637  1.00  0.00     0.166 HD
HETATM    4  C   UNL     1      65.369   7.862   5.818  1.00  0.00     0.049 A 
HETATM    5  C   UNL     1      65.403   5.622   6.694  1.00  0.00    -0.019 A 
HETATM    6  C   UNL     1      64.042   5.583   6.420  1.00  0.00     0.099 A 
HETATM    7  C   UNL     1      66.069   6.806   6.398  1.00  0.00     0.014 A 
ENDROOT
BRANCH   1   8
HETATM    8  N   UNL     1      63.387   8.699   4.757  1.00  0.00    -0.367 N 
HETATM    9  C   UNL     1      63.679  10.093   5.072  1.00  0.00     0.124 C 
HETATM   10  C   UNL     1      62.416  10.903   4.763  1.00  0.00     0.020 C 
HETATM   11  C   UNL     1      61.928  10.671   3.330  1.00  0.00     0.003 C 
HETATM   12  C   UNL     1      61.820   9.180   2.993  1.00  0.00     0.020 C 
HETATM   13  C   UNL     1      63.105   8.435   3.350  1.00  0.00     0.124 C 
ENDBRANCH   1   8
BRANCH   5  14
HETATM   14  C   UNL     1      66.132   4.433   7.232  1.00  0.00     0.204 C 
BRANCH  14  15
HETATM   15  O   UNL     1      66.231   4.513   8.650  1.00  0.00    -0.396 OA
HETATM   16  H   UNL     1      67.068   4.939   8.892  1.00  0.00     0.209 HD
ENDBRANCH  14  15
ENDBRANCH   5  14
TORSDOF 3
ENDMDL
MODEL 6
REMARK VINA RESULT:      -4.2      2.864      3.763
REMARK  3 active torsions:
REMARK  status: ('A' for Active; 'I' for Inactive)
REMARK    1  A    between atoms: C_1  and  N_2 
REMARK    2  A    between atoms: C_6  and  C_12 
REMARK    3  A    between atoms: O_11  and  C_12 
ROOT
HETATM    1  C   UNL     1      62.236   7.312   5.059  1.00  0.00     0.102 A 
HETATM    2  N   UNL     1      61.287   7.551   4.127  1.00  0.00    -0.352 N 
ATOM      3  HN  UNL     1      60.623   6.824   3.860  1.00  0.00     0.166 HD
HETATM    4  C   UNL     1      63.164   8.298   5.394  1.00  0.00     0.049 A 
HETATM    5  C   UNL     1      62.086   9.828   3.884  1.00  0.00    -0.019 A 
HETATM    6  C   UNL     1      61.240   8.779   3.556  1.00  0.00     0.099 A 
HETATM    7  C   UNL     1      63.084   9.563   4.816  1.00  0.00     0.014 A 
ENDROOT
BRANCH   1   8
HETATM    8  N   UNL     1      62.203   6.135   5.788  1.00  0.00    -0.367 N 
HETATM    9  C   UNL     1      63.475   5.594   6.257  1.00  0.00     0.124 C 
HETATM   10  C   UNL     1      63.339   4.068   6.279  1.00  0.00     0.020 C 
HETATM   11  C   UNL     1      62.124   3.617   7.096  1.00  0.00     0.003 C 
HETATM   12  C   UNL     1      60.848   4.359   6.686  1.00  0.00     0.020 C 
HETATM   13  C   UNL     1      61.066   5.871   6.663  1.00  0.00     0.124 C 
ENDBRANCH   1   8
BRANCH   5  14
HETATM   14  C   UNL     1      61.906  11.196   3.306  1.00  0.00     0.204 C 
BRANCH  14  15
HETATM   15  O   UNL     1      62.085  12.187   4.312  1.00  0.00    -0.396 OA
HETATM   16  H   UNL     1      62.475  11.779   5.102  1.00  0.00     0.209 HD
ENDBRANCH  14  15
ENDBRANCH   5  14
TORSDOF 3
ENDMDL
MODEL 7
REMARK VINA RESULT:      -4.2      2.955      5.898
REMARK  3 active torsions:
REMARK  status: ('A' for Active; 'I' for Inactive)
REMARK    1  A    between atoms: C_1  and  N_2 
REMARK    2  A    between atoms: C_6  and  C_12 
REMARK    3  A    between atoms: O_11  and  C_12 
ROOT
HETATM    1  C   UNL     1      62.968   7.657   4.179  1.00  0.00     0.102 A 
HETATM    2  N   UNL     1      63.071   6.526   4.910  1.00  0.00    -0.352 N 
ATOM      3  HN  UNL     1      62.400   5.767   4.795  1.00  0.00     0.166 HD
HETATM    4  C   UNL     1      63.867   8.707   4.367  1.00  0.00     0.049 A 
HETATM    5  C   UNL     1      65.058   7.398   5.995  1.00  0.00    -0.019 A 
HETATM    6  C   UNL     1      64.088   6.424   5.800  1.00  0.00     0.099 A 
HETATM    7  C   UNL     1      64.922   8.575   5.267  1.00  0.00     0.014 A 
ENDROOT
BRANCH   1   8
HETATM    8  N   UNL     1      62.054   7.724   3.140  1.00  0.00    -0.367 N 
HETATM    9  C   UNL     1      62.558   8.078   1.817  1.00  0.00     0.124 C 
HETATM   10  C   UNL     1      61.444   8.846   1.098  1.00  0.00     0.020 C 
HETATM   11  C   UNL     1      60.131   8.059   1.081  1.00  0.00     0.003 C 
HETATM   12  C   UNL     1      59.747   7.549   2.474  1.00  0.00     0.020 C 
HETATM   13  C   UNL     1      60.912   6.817   3.138  1.00  0.00     0.124 C 
ENDBRANCH   1   8
BRANCH   5  14
HETATM   14  C   UNL     1      66.224   7.176   6.905  1.00  0.00     0.204 C 
BRANCH  14  15
HETATM   15  O   UNL     1      66.854   8.415   7.214  1.00  0.00    -0.396 OA
HETATM   16  H   UNL     1      66.703   9.044   6.491  1.00  0.00     0.209 HD
ENDBRANCH  14  15
ENDBRANCH   5  14
TORSDOF 3
ENDMDL
MODEL 8
REMARK VINA RESULT:      -4.1      5.111      6.808
REMARK  3 active torsions:
REMARK  status: ('A' for Active; 'I' for Inactive)
REMARK    1  A    between atoms: C_1  and  N_2 
REMARK    2  A    between atoms: C_6  and  C_12 
REMARK    3  A    between atoms: O_11  and  C_12 
ROOT
HETATM    1  C   UNL     1      59.463   7.285   3.986  1.00  0.00     0.102 A 
HETATM    2  N   UNL     1      59.917   6.453   4.949  1.00  0.00    -0.352 N 
ATOM      3  HN  UNL     1      60.896   6.168   4.974  1.00  0.00     0.166 HD
HETATM    4  C   UNL     1      58.116   7.643   3.934  1.00  0.00     0.049 A 
HETATM    5  C   UNL     1      57.701   6.369   5.931  1.00  0.00    -0.019 A 
HETATM    6  C   UNL     1      59.039   6.006   5.879  1.00  0.00     0.099 A 
HETATM    7  C   UNL     1      57.233   7.194   4.914  1.00  0.00     0.014 A 
ENDROOT
BRANCH   1   8
HETATM    8  N   UNL     1      60.362   7.900   3.129  1.00  0.00    -0.367 N 
HETATM    9  C   UNL     1      61.527   8.550   3.721  1.00  0.00     0.124 C 
HETATM   10  C   UNL     1      61.881   9.744   2.831  1.00  0.00     0.020 C 
HETATM   11  C   UNL     1      62.069   9.329   1.369  1.00  0.00     0.003 C 
HETATM   12  C   UNL     1      60.897   8.486   0.855  1.00  0.00     0.020 C 
HETATM   13  C   UNL     1      60.585   7.330   1.805  1.00  0.00     0.124 C 
ENDBRANCH   1   8
BRANCH   5  14
HETATM   14  C   UNL     1      56.811   5.937   7.053  1.00  0.00     0.204 C 
BRANCH  14  15
HETATM   15  O   UNL     1      57.340   6.374   8.301  1.00  0.00    -0.396 OA
HETATM   16  H   UNL     1      56.737   6.116   9.016  1.00  0.00     0.209 HD
ENDBRANCH  14  15
ENDBRANCH   5  14
TORSDOF 3
ENDMDL
MODEL 9
REMARK VINA RESULT:      -4.0      5.352      6.793
REMARK  3 active torsions:
REMARK  status: ('A' for Active; 'I' for Inactive)
REMARK    1  A    between atoms: C_1  and  N_2 
REMARK    2  A    between atoms: C_6  and  C_12 
REMARK    3  A    between atoms: O_11  and  C_12 
ROOT
HETATM    1  C   UNL     1      59.622   7.593   3.702  1.00  0.00     0.102 A 
HETATM    2  N   UNL     1      58.362   8.081   3.685  1.00  0.00    -0.352 N 
ATOM      3  HN  UNL     1      58.103   8.835   3.049  1.00  0.00     0.166 HD
HETATM    4  C   UNL     1      59.981   6.586   4.599  1.00  0.00     0.049 A 
HETATM    5  C   UNL     1      57.717   6.497   5.405  1.00  0.00    -0.019 A 
HETATM    6  C   UNL     1      57.452   7.543   4.532  1.00  0.00     0.099 A 
HETATM    7  C   UNL     1      59.025   6.028   5.445  1.00  0.00     0.014 A 
ENDROOT
BRANCH   1   8
HETATM    8  N   UNL     1      60.528   7.992   2.733  1.00  0.00    -0.367 N 
HETATM    9  C   UNL     1      61.537   8.976   3.113  1.00  0.00     0.124 C 
HETATM   10  C   UNL     1      61.841   9.817   1.870  1.00  0.00     0.020 C 
HETATM   11  C   UNL     1      62.234   8.945   0.674  1.00  0.00     0.003 C 
HETATM   12  C   UNL     1      61.233   7.809   0.437  1.00  0.00     0.020 C 
HETATM   13  C   UNL     1      60.960   7.031   1.724  1.00  0.00     0.124 C 
ENDBRANCH   1   8
BRANCH   5  14
HETATM   14  C   UNL     1      56.639   5.867   6.229  1.00  0.00     0.204 C 
BRANCH  14  15
HETATM   15  O   UNL     1      56.187   6.774   7.230  1.00  0.00    -0.396 OA
HETATM   16  H   UNL     1      55.627   6.301   7.865  1.00  0.00     0.209 HD
ENDBRANCH  14  15
ENDBRANCH   5  14
TORSDOF 3
ENDMDL
