MODEL 1
REMARK VINA RESULT:      -5.4      0.000      0.000
REMARK  2 active torsions:
REMARK  status: ('A' for Active; 'I' for Inactive)
REMARK    1  A    between atoms: C_5  and  C_10 
REMARK    2  A    between atoms: O_7  and  C_10 
ROOT
HETATM    1  O   UNL     1      64.602   9.525   5.409  1.00  0.00    -0.343 OA
HETATM    2  C   UNL     1      64.907   8.339   4.788  1.00  0.00     0.075 A 
HETATM    3  C   UNL     1      64.045   7.696   3.891  1.00  0.00    -0.025 A 
HETATM    4  C   UNL     1      62.709   8.287   3.545  1.00  0.00     0.044 C 
HETATM    5  C   UNL     1      63.199   9.856   5.390  1.00  0.00     0.152 C 
HETATM    6  C   UNL     1      62.644   9.747   3.973  1.00  0.00     0.039 C 
HETATM    7  C   UNL     1      66.161   7.799   5.071  1.00  0.00     0.037 A 
HETATM    8  C   UNL     1      64.434   6.472   3.330  1.00  0.00     0.010 A 
HETATM    9  C   UNL     1      66.547   6.588   4.494  1.00  0.00     0.003 A 
HETATM   10  C   UNL     1      65.681   5.921   3.631  1.00  0.00     0.001 A 
ENDROOT
BRANCH   5  11
HETATM   11  C   UNL     1      63.044  11.270   5.962  1.00  0.00     0.196 C 
BRANCH  11  12
HETATM   12  O   UNL     1      64.256  11.738   6.548  1.00  0.00    -0.398 OA
HETATM   13  H   UNL     1      64.262  12.708   6.548  1.00  0.00     0.209 HD
ENDBRANCH  11  12
ENDBRANCH   5  11
TORSDOF 2
ENDMDL
MODEL 2
REMARK VINA RESULT:      -5.3      1.376      3.832
REMARK  2 active torsions:
REMARK  status: ('A' for Active; 'I' for Inactive)
REMARK    1  A    between atoms: C_5  and  C_10 
REMARK    2  A    between atoms: O_7  and  C_10 
ROOT
HETATM    1  O   UNL     1      64.846   9.101   5.896  1.00  0.00    -0.343 OA
HETATM    2  C   UNL     1      63.847   9.452   5.022  1.00  0.00     0.075 A 
HETATM    3  C   UNL     1      63.448   8.649   3.947  1.00  0.00    -0.025 A 
HETATM    4  C   UNL     1      64.103   7.322   3.688  1.00  0.00     0.044 C 
HETATM    5  C   UNL     1      65.715   8.060   5.410  1.00  0.00     0.152 C 
HETATM    6  C   UNL     1      64.899   6.874   4.907  1.00  0.00     0.039 C 
HETATM    7  C   UNL     1      63.204  10.664   5.274  1.00  0.00     0.037 A 
HETATM    8  C   UNL     1      62.437   9.106   3.091  1.00  0.00     0.010 A 
HETATM    9  C   UNL     1      62.186  11.104   4.427  1.00  0.00     0.003 A 
HETATM   10  C   UNL     1      61.808  10.330   3.332  1.00  0.00     0.001 A 
ENDROOT
BRANCH   5  11
HETATM   11  C   UNL     1      66.659   7.667   6.552  1.00  0.00     0.196 C 
BRANCH  11  12
HETATM   12  O   UNL     1      67.039   8.795   7.336  1.00  0.00    -0.398 OA
HETATM   13  H   UNL     1      68.006   8.867   7.353  1.00  0.00     0.209 HD
ENDBRANCH  11  12
ENDBRANCH   5  11
TORSDOF 2
ENDMDL
MODEL 3
REMARK VINA RESULT:      -4.7      1.396      1.690
REMARK  2 active torsions:
REMARK  status: ('A' for Active; 'I' for Inactive)
REMARK    1  A    between atoms: C_5  and  C_10 
REMARK    2  A    between atoms: O_7  and  C_10 
ROOT
HETATM    1  O   UNL     1      64.504   9.438   5.388  1.00  0.00    -0.343 OA
HETATM    2  C   UNL     1      65.261   8.298   5.277  1.00  0.00     0.075 A 
HETATM    3  C   UNL     1      64.937   7.239   4.420  1.00  0.00    -0.025 A 
HETATM    4  C   UNL     1      63.716   7.296   3.548  1.00  0.00     0.044 C 
HETATM    5  C   UNL     1      63.163   9.306   4.875  1.00  0.00     0.152 C 
HETATM    6  C   UNL     1      63.186   8.722   3.466  1.00  0.00     0.039 C 
HETATM    7  C   UNL     1      66.418   8.249   6.054  1.00  0.00     0.037 A 
HETATM    8  C   UNL     1      65.758   6.103   4.399  1.00  0.00     0.010 A 
HETATM    9  C   UNL     1      67.239   7.121   6.014  1.00  0.00     0.003 A 
HETATM   10  C   UNL     1      66.905   6.046   5.194  1.00  0.00     0.001 A 
ENDROOT
BRANCH   5  11
HETATM   11  C   UNL     1      62.509  10.693   4.912  1.00  0.00     0.196 C 
BRANCH  11  12
HETATM   12  O   UNL     1      61.444  10.800   3.972  1.00  0.00    -0.398 OA
HETATM   13  H   UNL     1      60.983  11.644   4.100  1.00  0.00     0.209 HD
ENDBRANCH  11  12
ENDBRANCH   5  11
TORSDOF 2
ENDMDL
MODEL 4
REMARK VINA RESULT:      -4.5      2.299      3.976
REMARK  2 active torsions:
REMARK  status: ('A' for Active; 'I' for Inactive)
REMARK    1  A    between atoms: C_5  and  C_10 
REMARK    2  A    between atoms: O_7  and  C_10 
ROOT
HETATM    1  O   UNL     1      63.784   7.009   3.781  1.00  0.00    -0.343 OA
HETATM    2  C   UNL     1      63.099   7.743   2.844  1.00  0.00     0.075 A 
HETATM    3  C   UNL     1      62.638   9.046   3.073  1.00  0.00    -0.025 A 
HETATM    4  C   UNL     1      62.881   9.731   4.387  1.00  0.00     0.044 C 
HETATM    5  C   UNL     1      63.650   7.503   5.128  1.00  0.00     0.152 C 
HETATM    6  C   UNL     1      63.953   8.997   5.182  1.00  0.00     0.039 C 
HETATM    7  C   UNL     1      62.900   7.132   1.607  1.00  0.00     0.037 A 
HETATM    8  C   UNL     1      61.922   9.704   2.064  1.00  0.00     0.010 A 
HETATM    9  C   UNL     1      62.201   7.802   0.601  1.00  0.00     0.003 A 
HETATM   10  C   UNL     1      61.706   9.083   0.832  1.00  0.00     0.001 A 
ENDROOT
BRANCH   5  11
HETATM   11  C   UNL     1      64.597   6.691   6.020  1.00  0.00     0.196 C 
BRANCH  11  12
HETATM   12  O   UNL     1      64.572   7.146   7.370  1.00  0.00    -0.398 OA
HETATM   13  H   UNL     1      64.556   8.116   7.384  1.00  0.00     0.209 HD
ENDBRANCH  11  12
ENDBRANCH   5  11
TORSDOF 2
ENDMDL
MODEL 5
REMARK VINA RESULT:      -4.2      2.847      5.431
REMARK  2 active torsions:
REMARK  status: ('A' for Active; 'I' for Inactive)
REMARK    1  A    between atoms: C_5  and  C_10 
REMARK    2  A    between atoms: O_7  and  C_10 
ROOT
HETATM    1  O   UNL     1      62.644   8.058   1.417  1.00  0.00    -0.343 OA
HETATM    2  C   UNL     1      62.456   9.117   2.270  1.00  0.00     0.075 A 
HETATM    3  C   UNL     1      62.762   9.070   3.636  1.00  0.00    -0.025 A 
HETATM    4  C   UNL     1      63.334   7.828   4.257  1.00  0.00     0.044 C 
HETATM    5  C   UNL     1      62.796   6.787   2.081  1.00  0.00     0.152 C 
HETATM    6  C   UNL     1      63.850   6.881   3.180  1.00  0.00     0.039 C 
HETATM    7  C   UNL     1      61.961  10.288   1.699  1.00  0.00     0.037 A 
HETATM    8  C   UNL     1      62.507  10.195   4.432  1.00  0.00     0.010 A 
HETATM    9  C   UNL     1      61.727  11.410   2.495  1.00  0.00     0.003 A 
HETATM   10  C   UNL     1      61.992  11.361   3.862  1.00  0.00     0.001 A 
ENDROOT
BRANCH   5  11
HETATM   11  C   UNL     1      63.164   5.745   1.018  1.00  0.00     0.196 C 
BRANCH  11  12
HETATM   12  O   UNL     1      62.958   4.416   1.489  1.00  0.00    -0.398 OA
HETATM   13  H   UNL     1      63.015   3.796   0.744  1.00  0.00     0.209 HD
ENDBRANCH  11  12
ENDBRANCH   5  11
TORSDOF 2
ENDMDL
MODEL 6
REMARK VINA RESULT:      -4.2      2.639      4.382
REMARK  2 active torsions:
REMARK  status: ('A' for Active; 'I' for Inactive)
REMARK    1  A    between atoms: C_5  and  C_10 
REMARK    2  A    between atoms: O_7  and  C_10 
ROOT
HETATM    1  O   UNL     1      64.631   6.955   7.303  1.00  0.00    -0.343 OA
HETATM    2  C   UNL     1      64.107   7.193   6.056  1.00  0.00     0.075 A 
HETATM    3  C   UNL     1      64.839   7.046   4.872  1.00  0.00    -0.025 A 
HETATM    4  C   UNL     1      66.273   6.601   4.900  1.00  0.00     0.044 C 
HETATM    5  C   UNL     1      66.072   6.933   7.341  1.00  0.00     0.152 C 
HETATM    6  C   UNL     1      66.621   6.007   6.259  1.00  0.00     0.039 C 
HETATM    7  C   UNL     1      62.765   7.571   6.014  1.00  0.00     0.037 A 
HETATM    8  C   UNL     1      64.224   7.343   3.648  1.00  0.00     0.010 A 
HETATM    9  C   UNL     1      62.155   7.847   4.789  1.00  0.00     0.003 A 
HETATM   10  C   UNL     1      62.886   7.741   3.608  1.00  0.00     0.001 A 
ENDROOT
BRANCH   5  11
HETATM   11  C   UNL     1      66.496   6.490   8.746  1.00  0.00     0.196 C 
BRANCH  11  12
HETATM   12  O   UNL     1      66.211   5.113   8.975  1.00  0.00    -0.398 OA
HETATM   13  H   UNL     1      65.653   5.024   9.763  1.00  0.00     0.209 HD
ENDBRANCH  11  12
ENDBRANCH   5  11
TORSDOF 2
ENDMDL
MODEL 7
REMARK VINA RESULT:      -4.0      2.517      3.617
REMARK  2 active torsions:
REMARK  status: ('A' for Active; 'I' for Inactive)
REMARK    1  A    between atoms: C_5  and  C_10 
REMARK    2  A    between atoms: O_7  and  C_10 
ROOT
HETATM    1  O   UNL     1      62.677   7.490   2.309  1.00  0.00    -0.343 OA
HETATM    2  C   UNL     1      63.638   7.605   3.283  1.00  0.00     0.075 A 
HETATM    3  C   UNL     1      63.657   8.637   4.229  1.00  0.00    -0.025 A 
HETATM    4  C   UNL     1      62.595   9.698   4.235  1.00  0.00     0.044 C 
HETATM    5  C   UNL     1      61.930   8.700   2.075  1.00  0.00     0.152 C 
HETATM    6  C   UNL     1      61.404   9.266   3.390  1.00  0.00     0.039 C 
HETATM    7  C   UNL     1      64.609   6.604   3.312  1.00  0.00     0.037 A 
HETATM    8  C   UNL     1      64.698   8.685   5.166  1.00  0.00     0.010 A 
HETATM    9  C   UNL     1      65.632   6.649   4.260  1.00  0.00     0.003 A 
HETATM   10  C   UNL     1      65.682   7.693   5.181  1.00  0.00     0.001 A 
ENDROOT
BRANCH   5  11
HETATM   11  C   UNL     1      60.797   8.368   1.097  1.00  0.00     0.196 C 
BRANCH  11  12
HETATM   12  O   UNL     1      59.520   8.436   1.725  1.00  0.00    -0.398 OA
HETATM   13  H   UNL     1      59.232   9.361   1.775  1.00  0.00     0.209 HD
ENDBRANCH  11  12
ENDBRANCH   5  11
TORSDOF 2
ENDMDL
MODEL 8
REMARK VINA RESULT:      -4.0      2.272      4.725
REMARK  2 active torsions:
REMARK  status: ('A' for Active; 'I' for Inactive)
REMARK    1  A    between atoms: C_5  and  C_10 
REMARK    2  A    between atoms: O_7  and  C_10 
ROOT
HETATM    1  O   UNL     1      64.502   6.689   3.113  1.00  0.00    -0.343 OA
HETATM    2  C   UNL     1      63.702   7.780   3.348  1.00  0.00     0.075 A 
HETATM    3  C   UNL     1      63.864   8.631   4.448  1.00  0.00    -0.025 A 
HETATM    4  C   UNL     1      64.954   8.395   5.453  1.00  0.00     0.044 C 
HETATM    5  C   UNL     1      65.251   6.250   4.263  1.00  0.00     0.152 C 
HETATM    6  C   UNL     1      65.989   7.423   4.900  1.00  0.00     0.039 C 
HETATM    7  C   UNL     1      62.709   8.032   2.402  1.00  0.00     0.037 A 
HETATM    8  C   UNL     1      62.977   9.703   4.618  1.00  0.00     0.010 A 
HETATM    9  C   UNL     1      61.841   9.112   2.569  1.00  0.00     0.003 A 
HETATM   10  C   UNL     1      61.970   9.942   3.681  1.00  0.00     0.001 A 
ENDROOT
BRANCH   5  11
HETATM   11  C   UNL     1      66.212   5.147   3.802  1.00  0.00     0.196 C 
BRANCH  11  12
HETATM   12  O   UNL     1      67.438   5.685   3.315  1.00  0.00    -0.398 OA
HETATM   13  H   UNL     1      67.971   4.975   2.924  1.00  0.00     0.209 HD
ENDBRANCH  11  12
ENDBRANCH   5  11
TORSDOF 2
ENDMDL
MODEL 9
REMARK VINA RESULT:      -4.0      2.791      3.831
REMARK  2 active torsions:
REMARK  status: ('A' for Active; 'I' for Inactive)
REMARK    1  A    between atoms: C_5  and  C_10 
REMARK    2  A    between atoms: O_7  and  C_10 
ROOT
HETATM    1  O   UNL     1      61.100   9.284   3.481  1.00  0.00    -0.343 OA
HETATM    2  C   UNL     1      61.324   8.006   3.928  1.00  0.00     0.075 A 
HETATM    3  C   UNL     1      62.416   7.649   4.728  1.00  0.00    -0.025 A 
HETATM    4  C   UNL     1      63.425   8.675   5.158  1.00  0.00     0.044 C 
HETATM    5  C   UNL     1      62.256  10.142   3.550  1.00  0.00     0.152 C 
HETATM    6  C   UNL     1      62.883  10.082   4.940  1.00  0.00     0.039 C 
HETATM    7  C   UNL     1      60.373   7.051   3.567  1.00  0.00     0.037 A 
HETATM    8  C   UNL     1      62.574   6.310   5.111  1.00  0.00     0.010 A 
HETATM    9  C   UNL     1      60.529   5.723   3.967  1.00  0.00     0.003 A 
HETATM   10  C   UNL     1      61.633   5.352   4.731  1.00  0.00     0.001 A 
ENDROOT
BRANCH   5  11
HETATM   11  C   UNL     1      61.808  11.562   3.183  1.00  0.00     0.196 C 
BRANCH  11  12
HETATM   12  O   UNL     1      62.120  11.881   1.830  1.00  0.00    -0.398 OA
HETATM   13  H   UNL     1      61.320  11.807   1.287  1.00  0.00     0.209 HD
ENDBRANCH  11  12
ENDBRANCH   5  11
TORSDOF 2
ENDMDL
