MODEL 1
REMARK VINA RESULT:      -5.2      0.000      0.000
REMARK  1 active torsions:
REMARK  status: ('A' for Active; 'I' for Inactive)
REMARK    1  A    between atoms: C_1  and  C_2 
REMARK       I    between atoms: C_1  and  N_5 
ROOT
HETATM    1  C   UNL     1      64.135   8.323   4.610  1.00  0.00     0.034 A 
HETATM    2  C   UNL     1      63.849   7.538   3.490  1.00  0.00     0.049 A 
HETATM    3  C   UNL     1      62.861   7.897   2.586  1.00  0.00     0.060 A 
HETATM    4  N   UNL     1      62.715   7.165   1.465  1.00  0.00    -0.363 N 
ATOM      5  HN  UNL     1      63.291   6.345   1.278  1.00  0.00     0.165 HD
HETATM    6  N   UNL     1      61.086   9.411   1.983  1.00  0.00    -0.363 N 
ATOM      7  HN  UNL     1      60.484  10.212   2.171  1.00  0.00     0.165 HD
HETATM    8  C   UNL     1      62.050   9.029   2.844  1.00  0.00     0.059 A 
HETATM    9  C   UNL     1      63.306   9.417   4.883  1.00  0.00     0.019 A 
HETATM   10  C   UNL     1      62.267   9.752   4.009  1.00  0.00     0.033 A 
HETATM   11  C   UNL     1      61.763   7.578   0.603  1.00  0.00     0.105 A 
HETATM   12  C   UNL     1      60.962   8.673   0.857  1.00  0.00     0.105 A 
ENDROOT
BRANCH   1  13
HETATM   13  C   UNL     1      65.244   8.032   5.564  1.00  0.00     0.253 C 
HETATM   14  N   UNL     1      65.178   6.965   6.466  1.00  0.00    -0.357 N 
HETATM   15  C   UNL     1      66.304   6.749   7.362  1.00  0.00     0.152 C 
HETATM   16  C   UNL     1      64.088   6.007   6.599  1.00  0.00     0.152 C 
HETATM   17  O   UNL     1      66.236   8.760   5.483  1.00  0.00    -0.267 OA
ENDBRANCH   1  13
TORSDOF 1
ENDMDL
MODEL 2
REMARK VINA RESULT:      -5.1      2.044      3.126
REMARK  1 active torsions:
REMARK  status: ('A' for Active; 'I' for Inactive)
REMARK    1  A    between atoms: C_1  and  C_2 
REMARK       I    between atoms: C_1  and  N_5 
ROOT
HETATM    1  C   UNL     1      65.640   7.095   5.035  1.00  0.00     0.034 A 
HETATM    2  C   UNL     1      65.265   8.351   5.516  1.00  0.00     0.049 A 
HETATM    3  C   UNL     1      64.166   9.025   5.004  1.00  0.00     0.060 A 
HETATM    4  N   UNL     1      63.783  10.175   5.590  1.00  0.00    -0.363 N 
ATOM      5  HN  UNL     1      64.293  10.573   6.379  1.00  0.00     0.165 HD
HETATM    6  N   UNL     1      62.384   9.107   3.385  1.00  0.00    -0.363 N 
ATOM      7  HN  UNL     1      61.882   8.735   2.578  1.00  0.00     0.165 HD
HETATM    8  C   UNL     1      63.460   8.483   3.902  1.00  0.00     0.059 A 
HETATM    9  C   UNL     1      64.966   6.581   3.920  1.00  0.00     0.019 A 
HETATM   10  C   UNL     1      63.895   7.283   3.357  1.00  0.00     0.033 A 
HETATM   11  C   UNL     1      62.688  10.772   5.076  1.00  0.00     0.105 A 
HETATM   12  C   UNL     1      62.005  10.254   3.994  1.00  0.00     0.105 A 
ENDROOT
BRANCH   1  13
HETATM   13  C   UNL     1      66.756   6.288   5.608  1.00  0.00     0.253 C 
HETATM   14  N   UNL     1      66.535   5.328   6.601  1.00  0.00    -0.357 N 
HETATM   15  C   UNL     1      67.678   4.582   7.107  1.00  0.00     0.152 C 
HETATM   16  C   UNL     1      65.251   4.965   7.187  1.00  0.00     0.152 C 
HETATM   17  O   UNL     1      67.874   6.487   5.129  1.00  0.00    -0.267 OA
ENDBRANCH   1  13
TORSDOF 1
ENDMDL
MODEL 3
REMARK VINA RESULT:      -5.0      1.898      5.453
REMARK  1 active torsions:
REMARK  status: ('A' for Active; 'I' for Inactive)
REMARK    1  A    between atoms: C_1  and  C_2 
REMARK       I    between atoms: C_1  and  N_5 
ROOT
HETATM    1  C   UNL     1      63.225   8.986   4.930  1.00  0.00     0.034 A 
HETATM    2  C   UNL     1      64.607   8.872   5.100  1.00  0.00     0.049 A 
HETATM    3  C   UNL     1      65.172   7.769   5.722  1.00  0.00     0.060 A 
HETATM    4  N   UNL     1      66.514   7.660   5.749  1.00  0.00    -0.363 N 
ATOM      5  HN  UNL     1      67.120   8.376   5.349  1.00  0.00     0.165 HD
HETATM    6  N   UNL     1      64.851   5.688   6.893  1.00  0.00    -0.363 N 
ATOM      7  HN  UNL     1      64.257   4.978   7.321  1.00  0.00     0.165 HD
HETATM    8  C   UNL     1      64.335   6.776   6.289  1.00  0.00     0.059 A 
HETATM    9  C   UNL     1      62.400   8.024   5.526  1.00  0.00     0.019 A 
HETATM   10  C   UNL     1      62.960   6.939   6.208  1.00  0.00     0.033 A 
HETATM   11  C   UNL     1      67.011   6.551   6.334  1.00  0.00     0.105 A 
HETATM   12  C   UNL     1      66.200   5.588   6.899  1.00  0.00     0.105 A 
ENDROOT
BRANCH   1  13
HETATM   13  C   UNL     1      62.571  10.105   4.191  1.00  0.00     0.253 C 
HETATM   14  N   UNL     1      62.249  10.001   2.833  1.00  0.00    -0.357 N 
HETATM   15  C   UNL     1      61.611  11.138   2.187  1.00  0.00     0.152 C 
HETATM   16  C   UNL     1      62.468   8.844   1.976  1.00  0.00     0.152 C 
HETATM   17  O   UNL     1      62.296  11.107   4.853  1.00  0.00    -0.267 OA
ENDBRANCH   1  13
TORSDOF 1
ENDMDL
MODEL 4
REMARK VINA RESULT:      -4.8      2.154      5.254
REMARK  1 active torsions:
REMARK  status: ('A' for Active; 'I' for Inactive)
REMARK    1  A    between atoms: C_1  and  C_2 
REMARK       I    between atoms: C_1  and  N_5 
ROOT
HETATM    1  C   UNL     1      62.595   8.459   2.852  1.00  0.00     0.034 A 
HETATM    2  C   UNL     1      63.530   7.430   2.987  1.00  0.00     0.049 A 
HETATM    3  C   UNL     1      64.356   7.342   4.097  1.00  0.00     0.060 A 
HETATM    4  N   UNL     1      65.151   6.264   4.226  1.00  0.00    -0.363 N 
ATOM      5  HN  UNL     1      65.179   5.528   3.521  1.00  0.00     0.165 HD
HETATM    6  N   UNL     1      65.113   8.308   6.170  1.00  0.00    -0.363 N 
ATOM      7  HN  UNL     1      65.116   9.051   6.870  1.00  0.00     0.165 HD
HETATM    8  C   UNL     1      64.330   8.366   5.076  1.00  0.00     0.059 A 
HETATM    9  C   UNL     1      62.599   9.490   3.800  1.00  0.00     0.019 A 
HETATM   10  C   UNL     1      63.472   9.442   4.892  1.00  0.00     0.033 A 
HETATM   11  C   UNL     1      65.908   6.210   5.342  1.00  0.00     0.105 A 
HETATM   12  C   UNL     1      65.895   7.211   6.291  1.00  0.00     0.105 A 
ENDROOT
BRANCH   1  13
HETATM   13  C   UNL     1      61.622   8.552   1.725  1.00  0.00     0.253 C 
HETATM   14  N   UNL     1      60.350   7.974   1.802  1.00  0.00    -0.357 N 
HETATM   15  C   UNL     1      59.461   8.112   0.658  1.00  0.00     0.152 C 
HETATM   16  C   UNL     1      59.794   7.249   2.936  1.00  0.00     0.152 C 
HETATM   17  O   UNL     1      61.988   9.200   0.742  1.00  0.00    -0.267 OA
ENDBRANCH   1  13
TORSDOF 1
ENDMDL
MODEL 5
REMARK VINA RESULT:      -4.8      2.467      2.682
REMARK  1 active torsions:
REMARK  status: ('A' for Active; 'I' for Inactive)
REMARK    1  A    between atoms: C_1  and  C_2 
REMARK       I    between atoms: C_1  and  N_5 
ROOT
HETATM    1  C   UNL     1      63.523   8.287   4.708  1.00  0.00     0.034 A 
HETATM    2  C   UNL     1      62.630   7.363   5.256  1.00  0.00     0.049 A 
HETATM    3  C   UNL     1      61.346   7.213   4.757  1.00  0.00     0.060 A 
HETATM    4  N   UNL     1      60.574   6.225   5.247  1.00  0.00    -0.363 N 
ATOM      5  HN  UNL     1      60.899   5.605   5.988  1.00  0.00     0.165 HD
HETATM    6  N   UNL     1      59.644   7.955   3.221  1.00  0.00    -0.363 N 
ATOM      7  HN  UNL     1      59.295   8.586   2.500  1.00  0.00     0.165 HD
HETATM    8  C   UNL     1      60.883   8.078   3.734  1.00  0.00     0.059 A 
HETATM    9  C   UNL     1      63.051   9.166   3.726  1.00  0.00     0.019 A 
HETATM   10  C   UNL     1      61.737   9.063   3.259  1.00  0.00     0.033 A 
HETATM   11  C   UNL     1      59.346   6.100   4.703  1.00  0.00     0.105 A 
HETATM   12  C   UNL     1      58.887   6.949   3.716  1.00  0.00     0.105 A 
ENDROOT
BRANCH   1  13
HETATM   13  C   UNL     1      64.943   8.427   5.146  1.00  0.00     0.253 C 
HETATM   14  N   UNL     1      65.939   7.550   4.703  1.00  0.00    -0.357 N 
HETATM   15  C   UNL     1      67.299   7.757   5.177  1.00  0.00     0.152 C 
HETATM   16  C   UNL     1      65.767   6.435   3.781  1.00  0.00     0.152 C 
HETATM   17  O   UNL     1      65.193   9.381   5.884  1.00  0.00    -0.267 OA
ENDBRANCH   1  13
TORSDOF 1
ENDMDL
MODEL 6
REMARK VINA RESULT:      -4.8      1.907      6.055
REMARK  1 active torsions:
REMARK  status: ('A' for Active; 'I' for Inactive)
REMARK    1  A    between atoms: C_1  and  C_2 
REMARK       I    between atoms: C_1  and  N_5 
ROOT
HETATM    1  C   UNL     1      64.588   7.960   5.671  1.00  0.00     0.034 A 
HETATM    2  C   UNL     1      64.531   6.776   6.411  1.00  0.00     0.049 A 
HETATM    3  C   UNL     1      65.673   6.202   6.947  1.00  0.00     0.060 A 
HETATM    4  N   UNL     1      65.540   5.130   7.751  1.00  0.00    -0.363 N 
ATOM      5  HN  UNL     1      64.630   4.718   7.953  1.00  0.00     0.165 HD
HETATM    6  N   UNL     1      68.072   6.234   7.174  1.00  0.00    -0.363 N 
ATOM      7  HN  UNL     1      68.991   6.619   6.958  1.00  0.00     0.165 HD
HETATM    8  C   UNL     1      66.942   6.763   6.663  1.00  0.00     0.059 A 
HETATM    9  C   UNL     1      65.846   8.488   5.358  1.00  0.00     0.019 A 
HETATM   10  C   UNL     1      67.008   7.881   5.843  1.00  0.00     0.033 A 
HETATM   11  C   UNL     1      66.679   4.631   8.275  1.00  0.00     0.105 A 
HETATM   12  C   UNL     1      67.919   5.166   7.989  1.00  0.00     0.105 A 
ENDROOT
BRANCH   1  13
HETATM   13  C   UNL     1      63.383   8.668   5.148  1.00  0.00     0.253 C 
HETATM   14  N   UNL     1      62.827   8.353   3.904  1.00  0.00    -0.357 N 
HETATM   15  C   UNL     1      61.650   9.091   3.469  1.00  0.00     0.152 C 
HETATM   16  C   UNL     1      63.293   7.329   2.979  1.00  0.00     0.152 C 
HETATM   17  O   UNL     1      62.884   9.515   5.892  1.00  0.00    -0.267 OA
ENDBRANCH   1  13
TORSDOF 1
ENDMDL
MODEL 7
REMARK VINA RESULT:      -4.7      2.101      3.203
REMARK  1 active torsions:
REMARK  status: ('A' for Active; 'I' for Inactive)
REMARK    1  A    between atoms: C_1  and  C_2 
REMARK       I    between atoms: C_1  and  N_5 
ROOT
HETATM    1  C   UNL     1      65.098   6.720   4.282  1.00  0.00     0.034 A 
HETATM    2  C   UNL     1      64.979   7.908   5.007  1.00  0.00     0.049 A 
HETATM    3  C   UNL     1      63.985   8.832   4.725  1.00  0.00     0.060 A 
HETATM    4  N   UNL     1      63.846   9.899   5.535  1.00  0.00    -0.363 N 
ATOM      5  HN  UNL     1      64.465  10.055   6.330  1.00  0.00     0.165 HD
HETATM    6  N   UNL     1      62.147   9.501   3.318  1.00  0.00    -0.363 N 
ATOM      7  HN  UNL     1      61.538   9.371   2.509  1.00  0.00     0.165 HD
HETATM    8  C   UNL     1      63.128   8.626   3.616  1.00  0.00     0.059 A 
HETATM    9  C   UNL     1      64.277   6.539   3.163  1.00  0.00     0.019 A 
HETATM   10  C   UNL     1      63.311   7.495   2.833  1.00  0.00     0.033 A 
HETATM   11  C   UNL     1      62.842  10.749   5.236  1.00  0.00     0.105 A 
HETATM   12  C   UNL     1      62.013  10.559   4.149  1.00  0.00     0.105 A 
ENDROOT
BRANCH   1  13
HETATM   13  C   UNL     1      66.090   5.651   4.600  1.00  0.00     0.253 C 
HETATM   14  N   UNL     1      65.812   4.643   5.528  1.00  0.00    -0.357 N 
HETATM   15  C   UNL     1      66.834   3.637   5.780  1.00  0.00     0.152 C 
HETATM   16  C   UNL     1      64.574   4.469   6.276  1.00  0.00     0.152 C 
HETATM   17  O   UNL     1      67.148   5.686   3.969  1.00  0.00    -0.267 OA
ENDBRANCH   1  13
TORSDOF 1
ENDMDL
MODEL 8
REMARK VINA RESULT:      -4.6      2.251      2.744
REMARK  1 active torsions:
REMARK  status: ('A' for Active; 'I' for Inactive)
REMARK    1  A    between atoms: C_1  and  C_2 
REMARK       I    between atoms: C_1  and  N_5 
ROOT
HETATM    1  C   UNL     1      64.246   7.726   5.270  1.00  0.00     0.034 A 
HETATM    2  C   UNL     1      63.483   8.066   4.150  1.00  0.00     0.049 A 
HETATM    3  C   UNL     1      62.148   7.708   4.047  1.00  0.00     0.060 A 
HETATM    4  N   UNL     1      61.435   8.167   3.002  1.00  0.00    -0.363 N 
ATOM      5  HN  UNL     1      61.855   8.747   2.276  1.00  0.00     0.165 HD
HETATM    6  N   UNL     1      60.262   6.534   4.981  1.00  0.00    -0.363 N 
ATOM      7  HN  UNL     1      59.835   5.932   5.685  1.00  0.00     0.165 HD
HETATM    8  C   UNL     1      61.559   6.894   5.046  1.00  0.00     0.059 A 
HETATM    9  C   UNL     1      63.673   6.889   6.235  1.00  0.00     0.019 A 
HETATM   10  C   UNL     1      62.345   6.471   6.109  1.00  0.00     0.033 A 
HETATM   11  C   UNL     1      60.132   7.819   2.967  1.00  0.00     0.105 A 
HETATM   12  C   UNL     1      59.558   7.015   3.932  1.00  0.00     0.105 A 
ENDROOT
BRANCH   1  13
HETATM   13  C   UNL     1      65.658   8.162   5.473  1.00  0.00     0.253 C 
HETATM   14  N   UNL     1      66.726   7.515   4.841  1.00  0.00    -0.357 N 
HETATM   15  C   UNL     1      68.074   8.004   5.092  1.00  0.00     0.152 C 
HETATM   16  C   UNL     1      66.636   6.390   3.920  1.00  0.00     0.152 C 
HETATM   17  O   UNL     1      65.825   9.146   6.195  1.00  0.00    -0.267 OA
ENDBRANCH   1  13
TORSDOF 1
ENDMDL
MODEL 9
REMARK VINA RESULT:      -4.5      2.216      3.301
REMARK  1 active torsions:
REMARK  status: ('A' for Active; 'I' for Inactive)
REMARK    1  A    between atoms: C_1  and  C_2 
REMARK       I    between atoms: C_1  and  N_5 
ROOT
HETATM    1  C   UNL     1      65.417   6.873   6.838  1.00  0.00     0.034 A 
HETATM    2  C   UNL     1      64.094   6.510   6.575  1.00  0.00     0.049 A 
HETATM    3  C   UNL     1      63.348   7.151   5.598  1.00  0.00     0.060 A 
HETATM    4  N   UNL     1      62.121   6.678   5.309  1.00  0.00    -0.363 N 
ATOM      5  HN  UNL     1      61.720   5.882   5.805  1.00  0.00     0.165 HD
HETATM    6  N   UNL     1      63.200   8.903   3.951  1.00  0.00    -0.363 N 
ATOM      7  HN  UNL     1      63.577   9.718   3.467  1.00  0.00     0.165 HD
HETATM    8  C   UNL     1      63.894   8.263   4.912  1.00  0.00     0.059 A 
HETATM    9  C   UNL     1      65.940   7.997   6.187  1.00  0.00     0.019 A 
HETATM   10  C   UNL     1      65.173   8.688   5.244  1.00  0.00     0.033 A 
HETATM   11  C   UNL     1      61.451   7.315   4.326  1.00  0.00     0.105 A 
HETATM   12  C   UNL     1      61.975   8.407   3.664  1.00  0.00     0.105 A 
ENDROOT
BRANCH   1  13
HETATM   13  C   UNL     1      66.293   6.160   7.813  1.00  0.00     0.253 C 
HETATM   14  N   UNL     1      67.195   5.172   7.406  1.00  0.00    -0.357 N 
HETATM   15  C   UNL     1      68.014   4.526   8.422  1.00  0.00     0.152 C 
HETATM   16  C   UNL     1      67.428   4.719   6.042  1.00  0.00     0.152 C 
HETATM   17  O   UNL     1      66.204   6.521   8.989  1.00  0.00    -0.267 OA
ENDBRANCH   1  13
TORSDOF 1
ENDMDL
