MODEL 1
REMARK VINA RESULT:      -5.2      0.000      0.000
REMARK  1 active torsions:
REMARK  status: ('A' for Active; 'I' for Inactive)
REMARK       I    between atoms: C_1  and  N_2 
REMARK    1  A    between atoms: C_1  and  C_4 
ROOT
HETATM    1  C   UNL     1      63.808   9.055   5.007  1.00  0.00     0.224 C 
HETATM    2  N   UNL     1      62.711   9.065   4.148  1.00  0.00    -0.352 N 
HETATM    3  O   UNL     1      64.155  10.052   5.639  1.00  0.00    -0.273 OA
HETATM    4  C   UNL     1      61.996  10.318   3.906  1.00  0.00     0.125 C 
HETATM    5  C   UNL     1      62.196   7.929   3.379  1.00  0.00     0.125 C 
HETATM    6  C   UNL     1      62.303   8.221   1.885  1.00  0.00     0.020 C 
HETATM    7  C   UNL     1      62.056  10.676   2.419  1.00  0.00     0.020 C 
HETATM    8  C   UNL     1      61.576   9.518   1.538  1.00  0.00     0.003 C 
ENDROOT
BRANCH   1   9
HETATM    9  C   UNL     1      64.618   7.761   5.086  1.00  0.00     0.082 C 
HETATM   10  C   UNL     1      64.279   6.913   6.314  1.00  0.00     0.040 C 
HETATM   11  C   UNL     1      65.172   5.675   6.328  1.00  0.00     0.168 C 
HETATM   12  O   UNL     1      66.550   6.043   6.340  1.00  0.00    -0.391 OA
HETATM   13  C   UNL     1      66.929   6.801   5.193  1.00  0.00     0.168 C 
HETATM   14  C   UNL     1      66.115   8.083   5.099  1.00  0.00     0.040 C 
ENDBRANCH   1   9
TORSDOF 1
ENDMDL
MODEL 2
REMARK VINA RESULT:      -5.0      1.934      5.287
REMARK  1 active torsions:
REMARK  status: ('A' for Active; 'I' for Inactive)
REMARK       I    between atoms: C_1  and  N_2 
REMARK    1  A    between atoms: C_1  and  C_4 
ROOT
HETATM    1  C   UNL     1      63.845   7.826   6.029  1.00  0.00     0.224 C 
HETATM    2  N   UNL     1      65.192   7.477   5.975  1.00  0.00    -0.352 N 
HETATM    3  O   UNL     1      63.083   7.372   6.883  1.00  0.00    -0.273 OA
HETATM    4  C   UNL     1      65.713   6.467   6.896  1.00  0.00     0.125 C 
HETATM    5  C   UNL     1      66.186   7.983   5.026  1.00  0.00     0.125 C 
HETATM    6  C   UNL     1      66.722   6.837   4.173  1.00  0.00     0.020 C 
HETATM    7  C   UNL     1      66.276   5.281   6.109  1.00  0.00     0.020 C 
HETATM    8  C   UNL     1      67.294   5.732   5.057  1.00  0.00     0.003 C 
ENDROOT
BRANCH   1   9
HETATM    9  C   UNL     1      63.322   8.755   4.933  1.00  0.00     0.082 C 
HETATM   10  C   UNL     1      62.983  10.157   5.444  1.00  0.00     0.040 C 
HETATM   11  C   UNL     1      62.425  10.986   4.290  1.00  0.00     0.168 C 
HETATM   12  O   UNL     1      61.269  10.366   3.730  1.00  0.00    -0.391 OA
HETATM   13  C   UNL     1      61.541   9.069   3.200  1.00  0.00     0.168 C 
HETATM   14  C   UNL     1      62.077   8.145   4.283  1.00  0.00     0.040 C 
ENDBRANCH   1   9
TORSDOF 1
ENDMDL
MODEL 3
REMARK VINA RESULT:      -4.7      2.435      4.108
REMARK  1 active torsions:
REMARK  status: ('A' for Active; 'I' for Inactive)
REMARK       I    between atoms: C_1  and  N_2 
REMARK    1  A    between atoms: C_1  and  C_4 
ROOT
HETATM    1  C   UNL     1      61.568   9.251   2.203  1.00  0.00     0.224 C 
HETATM    2  N   UNL     1      60.546   8.333   1.973  1.00  0.00    -0.352 N 
HETATM    3  O   UNL     1      62.071   9.914   1.295  1.00  0.00    -0.273 OA
HETATM    4  C   UNL     1      60.111   8.067   0.602  1.00  0.00     0.125 C 
HETATM    5  C   UNL     1      59.859   7.523   2.982  1.00  0.00     0.125 C 
HETATM    6  C   UNL     1      60.107   6.042   2.716  1.00  0.00     0.020 C 
HETATM    7  C   UNL     1      60.325   6.590   0.262  1.00  0.00     0.020 C 
HETATM    8  C   UNL     1      59.674   5.670   1.300  1.00  0.00     0.003 C 
ENDROOT
BRANCH   1   9
HETATM    9  C   UNL     1      62.097   9.360   3.633  1.00  0.00     0.082 C 
HETATM   10  C   UNL     1      62.317  10.805   4.085  1.00  0.00     0.040 C 
HETATM   11  C   UNL     1      62.891  10.803   5.499  1.00  0.00     0.168 C 
HETATM   12  O   UNL     1      64.116  10.073   5.550  1.00  0.00    -0.391 OA
HETATM   13  C   UNL     1      63.958   8.706   5.177  1.00  0.00     0.168 C 
HETATM   14  C   UNL     1      63.416   8.591   3.760  1.00  0.00     0.040 C 
ENDBRANCH   1   9
TORSDOF 1
ENDMDL
MODEL 4
REMARK VINA RESULT:      -4.4      1.961      5.362
REMARK  1 active torsions:
REMARK  status: ('A' for Active; 'I' for Inactive)
REMARK       I    between atoms: C_1  and  N_2 
REMARK    1  A    between atoms: C_1  and  C_4 
ROOT
HETATM    1  C   UNL     1      62.777   7.676   4.635  1.00  0.00     0.224 C 
HETATM    2  N   UNL     1      63.898   7.682   5.462  1.00  0.00    -0.352 N 
HETATM    3  O   UNL     1      61.864   6.862   4.774  1.00  0.00    -0.273 OA
HETATM    4  C   UNL     1      64.057   6.634   6.469  1.00  0.00     0.125 C 
HETATM    5  C   UNL     1      65.018   8.624   5.403  1.00  0.00     0.125 C 
HETATM    6  C   UNL     1      66.308   7.880   5.071  1.00  0.00     0.020 C 
HETATM    7  C   UNL     1      65.340   5.842   6.203  1.00  0.00     0.020 C 
HETATM    8  C   UNL     1      66.558   6.763   6.081  1.00  0.00     0.003 C 
ENDROOT
BRANCH   1   9
HETATM    9  C   UNL     1      62.750   8.690   3.492  1.00  0.00     0.082 C 
HETATM   10  C   UNL     1      61.782   9.849   3.738  1.00  0.00     0.040 C 
HETATM   11  C   UNL     1      61.791  10.774   2.523  1.00  0.00     0.168 C 
HETATM   12  O   UNL     1      61.427  10.063   1.341  1.00  0.00    -0.391 OA
HETATM   13  C   UNL     1      62.324   8.994   1.042  1.00  0.00     0.168 C 
HETATM   14  C   UNL     1      62.368   7.990   2.184  1.00  0.00     0.040 C 
ENDBRANCH   1   9
TORSDOF 1
ENDMDL
MODEL 5
REMARK VINA RESULT:      -4.2      2.134      5.556
REMARK  1 active torsions:
REMARK  status: ('A' for Active; 'I' for Inactive)
REMARK       I    between atoms: C_1  and  N_2 
REMARK    1  A    between atoms: C_1  and  C_4 
ROOT
HETATM    1  C   UNL     1      64.861   6.614   4.367  1.00  0.00     0.224 C 
HETATM    2  N   UNL     1      65.393   5.975   5.485  1.00  0.00    -0.352 N 
HETATM    3  O   UNL     1      65.340   6.475   3.242  1.00  0.00    -0.273 OA
HETATM    4  C   UNL     1      66.617   5.187   5.350  1.00  0.00     0.125 C 
HETATM    5  C   UNL     1      64.880   6.045   6.856  1.00  0.00     0.125 C 
HETATM    6  C   UNL     1      65.923   6.683   7.769  1.00  0.00     0.020 C 
HETATM    7  C   UNL     1      67.715   5.766   6.246  1.00  0.00     0.020 C 
HETATM    8  C   UNL     1      67.242   5.917   7.695  1.00  0.00     0.003 C 
ENDROOT
BRANCH   1   9
HETATM    9  C   UNL     1      63.684   7.561   4.602  1.00  0.00     0.082 C 
HETATM   10  C   UNL     1      62.749   7.669   3.395  1.00  0.00     0.040 C 
HETATM   11  C   UNL     1      61.641   8.671   3.711  1.00  0.00     0.168 C 
HETATM   12  O   UNL     1      62.188   9.948   4.035  1.00  0.00    -0.391 OA
HETATM   13  C   UNL     1      63.037   9.910   5.181  1.00  0.00     0.168 C 
HETATM   14  C   UNL     1      64.201   8.957   4.960  1.00  0.00     0.040 C 
ENDBRANCH   1   9
TORSDOF 1
ENDMDL
MODEL 6
REMARK VINA RESULT:      -4.2      1.728      1.926
REMARK  1 active torsions:
REMARK  status: ('A' for Active; 'I' for Inactive)
REMARK       I    between atoms: C_1  and  N_2 
REMARK    1  A    between atoms: C_1  and  C_4 
ROOT
HETATM    1  C   UNL     1      63.219   7.197   5.748  1.00  0.00     0.224 C 
HETATM    2  N   UNL     1      62.483   6.971   4.587  1.00  0.00    -0.352 N 
HETATM    3  O   UNL     1      62.715   7.685   6.760  1.00  0.00    -0.273 OA
HETATM    4  C   UNL     1      61.090   7.411   4.520  1.00  0.00     0.125 C 
HETATM    5  C   UNL     1      62.976   6.368   3.347  1.00  0.00     0.125 C 
HETATM    6  C   UNL     1      62.882   7.375   2.205  1.00  0.00     0.020 C 
HETATM    7  C   UNL     1      60.915   8.426   3.388  1.00  0.00     0.020 C 
HETATM    8  C   UNL     1      61.451   7.887   2.058  1.00  0.00     0.003 C 
ENDROOT
BRANCH   1   9
HETATM    9  C   UNL     1      64.713   6.874   5.699  1.00  0.00     0.082 C 
HETATM   10  C   UNL     1      65.266   6.382   7.038  1.00  0.00     0.040 C 
HETATM   11  C   UNL     1      66.767   6.137   6.897  1.00  0.00     0.168 C 
HETATM   12  O   UNL     1      67.439   7.326   6.487  1.00  0.00    -0.391 OA
HETATM   13  C   UNL     1      66.988   7.806   5.221  1.00  0.00     0.168 C 
HETATM   14  C   UNL     1      65.499   8.113   5.259  1.00  0.00     0.040 C 
ENDBRANCH   1   9
TORSDOF 1
ENDMDL
MODEL 7
REMARK VINA RESULT:      -4.0      2.782      3.552
REMARK  1 active torsions:
REMARK  status: ('A' for Active; 'I' for Inactive)
REMARK       I    between atoms: C_1  and  N_2 
REMARK    1  A    between atoms: C_1  and  C_4 
ROOT
HETATM    1  C   UNL     1      61.542   6.604   5.884  1.00  0.00     0.224 C 
HETATM    2  N   UNL     1      60.633   6.352   4.858  1.00  0.00    -0.352 N 
HETATM    3  O   UNL     1      61.253   6.445   7.070  1.00  0.00    -0.273 OA
HETATM    4  C   UNL     1      59.258   5.980   5.189  1.00  0.00     0.125 C 
HETATM    5  C   UNL     1      60.886   6.475   3.420  1.00  0.00     0.125 C 
HETATM    6  C   UNL     1      59.979   7.546   2.823  1.00  0.00     0.020 C 
HETATM    7  C   UNL     1      58.284   7.011   4.615  1.00  0.00     0.020 C 
HETATM    8  C   UNL     1      58.513   7.234   3.117  1.00  0.00     0.003 C 
ENDROOT
BRANCH   1   9
HETATM    9  C   UNL     1      62.910   7.155   5.481  1.00  0.00     0.082 C 
HETATM   10  C   UNL     1      64.023   6.777   6.461  1.00  0.00     0.040 C 
HETATM   11  C   UNL     1      65.331   7.414   5.999  1.00  0.00     0.168 C 
HETATM   12  O   UNL     1      65.203   8.832   5.913  1.00  0.00    -0.391 OA
HETATM   13  C   UNL     1      64.204   9.239   4.980  1.00  0.00     0.168 C 
HETATM   14  C   UNL     1      62.844   8.680   5.365  1.00  0.00     0.040 C 
ENDBRANCH   1   9
TORSDOF 1
ENDMDL
MODEL 8
REMARK VINA RESULT:      -4.0      2.646      3.848
REMARK  1 active torsions:
REMARK  status: ('A' for Active; 'I' for Inactive)
REMARK       I    between atoms: C_1  and  N_2 
REMARK    1  A    between atoms: C_1  and  C_4 
ROOT
HETATM    1  C   UNL     1      64.664   5.422   6.383  1.00  0.00     0.224 C 
HETATM    2  N   UNL     1      64.330   6.324   5.375  1.00  0.00    -0.352 N 
HETATM    3  O   UNL     1      63.869   4.581   6.800  1.00  0.00    -0.273 OA
HETATM    4  C   UNL     1      62.964   6.348   4.853  1.00  0.00     0.125 C 
HETATM    5  C   UNL     1      65.208   7.337   4.786  1.00  0.00     0.125 C 
HETATM    6  C   UNL     1      64.652   8.731   5.059  1.00  0.00     0.020 C 
HETATM    7  C   UNL     1      62.338   7.725   5.087  1.00  0.00     0.020 C 
HETATM    8  C   UNL     1      63.221   8.849   4.539  1.00  0.00     0.003 C 
ENDROOT
BRANCH   1   9
HETATM    9  C   UNL     1      66.052   5.560   7.008  1.00  0.00     0.082 C 
HETATM   10  C   UNL     1      66.719   4.214   7.296  1.00  0.00     0.040 C 
HETATM   11  C   UNL     1      68.071   4.459   7.961  1.00  0.00     0.168 C 
HETATM   12  O   UNL     1      67.916   5.207   9.166  1.00  0.00    -0.391 OA
HETATM   13  C   UNL     1      67.335   6.491   8.947  1.00  0.00     0.168 C 
HETATM   14  C   UNL     1      65.961   6.361   8.310  1.00  0.00     0.040 C 
ENDBRANCH   1   9
TORSDOF 1
ENDMDL
MODEL 9
REMARK VINA RESULT:      -3.8      3.485      5.543
REMARK  1 active torsions:
REMARK  status: ('A' for Active; 'I' for Inactive)
REMARK       I    between atoms: C_1  and  N_2 
REMARK    1  A    between atoms: C_1  and  C_4 
ROOT
HETATM    1  C   UNL     1      61.098   7.365   4.218  1.00  0.00     0.224 C 
HETATM    2  N   UNL     1      59.886   6.705   4.410  1.00  0.00    -0.352 N 
HETATM    3  O   UNL     1      62.100   7.105   4.885  1.00  0.00    -0.273 OA
HETATM    4  C   UNL     1      59.757   5.738   5.500  1.00  0.00     0.125 C 
HETATM    5  C   UNL     1      58.651   6.914   3.652  1.00  0.00     0.125 C 
HETATM    6  C   UNL     1      57.553   7.431   4.577  1.00  0.00     0.020 C 
HETATM    7  C   UNL     1      58.664   6.188   6.472  1.00  0.00     0.020 C 
HETATM    8  C   UNL     1      57.345   6.474   5.749  1.00  0.00     0.003 C 
ENDROOT
BRANCH   1   9
HETATM    9  C   UNL     1      61.123   8.486   3.179  1.00  0.00     0.082 C 
HETATM   10  C   UNL     1      61.903   8.118   1.915  1.00  0.00     0.040 C 
HETATM   11  C   UNL     1      61.911   9.316   0.968  1.00  0.00     0.168 C 
HETATM   12  O   UNL     1      62.490  10.457   1.597  1.00  0.00    -0.391 OA
HETATM   13  C   UNL     1      61.775  10.868   2.761  1.00  0.00     0.168 C 
HETATM   14  C   UNL     1      61.732   9.751   3.791  1.00  0.00     0.040 C 
ENDBRANCH   1   9
TORSDOF 1
ENDMDL
