MODEL 1
REMARK VINA RESULT:      -4.0      0.000      0.000
REMARK  1 active torsions:
REMARK  status: ('A' for Active; 'I' for Inactive)
REMARK    1  A    between atoms: C_5  and  N_9 
ROOT
HETATM    1  N   UNL     1      63.235   9.496   4.788  1.00  0.00    -0.350 N 
ATOM      2  HN  UNL     1      63.813   8.961   5.437  1.00  0.00     0.166 HD
HETATM    3  N   UNL     1      61.627  10.957   2.968  1.00  0.00    -0.365 N 
ATOM      4  HN  UNL     1      61.051  11.494   2.319  1.00  0.00     0.165 HD
HETATM    5  C   UNL     1      62.856  10.761   5.044  1.00  0.00     0.114 A 
HETATM    6  C   UNL     1      62.050  11.464   4.152  1.00  0.00     0.136 A 
HETATM    7  C   UNL     1      62.020   9.689   2.706  1.00  0.00     0.020 A 
HETATM    8  C   UNL     1      62.800   8.978   3.613  1.00  0.00     0.114 A 
HETATM    9  C   UNL     1      61.589   9.071   1.415  1.00  0.00     0.069 C 
ENDROOT
BRANCH   5  10
HETATM   10  N   UNL     1      63.275  11.310   6.254  1.00  0.00    -0.384 N 
HETATM   11  H   UNL     1      63.425  10.727   7.033  1.00  0.00     0.157 HD
HETATM   12  H   UNL     1      63.420  12.281   6.331  1.00  0.00     0.157 HD
ENDBRANCH   5  10
TORSDOF 1
ENDMDL
MODEL 2
REMARK VINA RESULT:      -3.4      1.326      3.741
REMARK  1 active torsions:
REMARK  status: ('A' for Active; 'I' for Inactive)
REMARK    1  A    between atoms: C_5  and  N_9 
ROOT
HETATM    1  N   UNL     1      61.589  10.704   2.113  1.00  0.00    -0.350 N 
ATOM      2  HN  UNL     1      61.097  11.233   1.392  1.00  0.00     0.166 HD
HETATM    3  N   UNL     1      62.951   9.260   4.136  1.00  0.00    -0.365 N 
ATOM      4  HN  UNL     1      63.445   8.731   4.854  1.00  0.00     0.165 HD
HETATM    5  C   UNL     1      62.012   9.444   1.911  1.00  0.00     0.114 A 
HETATM    6  C   UNL     1      62.663   8.736   2.918  1.00  0.00     0.136 A 
HETATM    7  C   UNL     1      62.537  10.533   4.331  1.00  0.00     0.020 A 
HETATM    8  C   UNL     1      61.859  11.228   3.334  1.00  0.00     0.114 A 
HETATM    9  C   UNL     1      62.825  11.172   5.651  1.00  0.00     0.069 C 
ENDROOT
BRANCH   5  10
HETATM   10  N   UNL     1      61.730   8.876   0.671  1.00  0.00    -0.384 N 
HETATM   11  H   UNL     1      60.898   9.111   0.200  1.00  0.00     0.157 HD
HETATM   12  H   UNL     1      62.362   8.240   0.265  1.00  0.00     0.157 HD
ENDBRANCH   5  10
TORSDOF 1
ENDMDL
MODEL 3
REMARK VINA RESULT:      -3.4      1.634      3.063
REMARK  1 active torsions:
REMARK  status: ('A' for Active; 'I' for Inactive)
REMARK    1  A    between atoms: C_5  and  N_9 
ROOT
HETATM    1  N   UNL     1      61.687   9.133   3.356  1.00  0.00    -0.350 N 
ATOM      2  HN  UNL     1      61.172   8.953   2.493  1.00  0.00     0.166 HD
HETATM    3  N   UNL     1      63.122   9.600   5.755  1.00  0.00    -0.365 N 
ATOM      4  HN  UNL     1      63.635   9.782   6.617  1.00  0.00     0.165 HD
HETATM    5  C   UNL     1      62.024  10.377   3.741  1.00  0.00     0.114 A 
HETATM    6  C   UNL     1      62.745  10.594   4.913  1.00  0.00     0.136 A 
HETATM    7  C   UNL     1      62.771   8.352   5.371  1.00  0.00     0.020 A 
HETATM    8  C   UNL     1      62.076   8.133   4.185  1.00  0.00     0.114 A 
HETATM    9  C   UNL     1      63.154   7.210   6.257  1.00  0.00     0.069 C 
ENDROOT
BRANCH   5  10
HETATM   10  N   UNL     1      61.651  11.420   2.896  1.00  0.00    -0.384 N 
HETATM   11  H   UNL     1      62.228  11.668   2.138  1.00  0.00     0.157 HD
HETATM   12  H   UNL     1      60.813  11.909   3.058  1.00  0.00     0.157 HD
ENDBRANCH   5  10
TORSDOF 1
ENDMDL
MODEL 4
REMARK VINA RESULT:      -3.4      6.801      7.905
REMARK  1 active torsions:
REMARK  status: ('A' for Active; 'I' for Inactive)
REMARK    1  A    between atoms: C_5  and  N_9 
ROOT
HETATM    1  N   UNL     1      67.942   6.426   6.832  1.00  0.00    -0.350 N 
ATOM      2  HN  UNL     1      68.552   6.872   6.146  1.00  0.00     0.166 HD
HETATM    3  N   UNL     1      66.266   5.160   8.734  1.00  0.00    -0.365 N 
ATOM      4  HN  UNL     1      65.653   4.715   9.419  1.00  0.00     0.165 HD
HETATM    5  C   UNL     1      66.955   7.095   7.453  1.00  0.00     0.114 A 
HETATM    6  C   UNL     1      66.149   6.469   8.400  1.00  0.00     0.136 A 
HETATM    7  C   UNL     1      67.250   4.486   8.098  1.00  0.00     0.020 A 
HETATM    8  C   UNL     1      68.075   5.120   7.174  1.00  0.00     0.114 A 
HETATM    9  C   UNL     1      67.432   3.037   8.419  1.00  0.00     0.069 C 
ENDROOT
BRANCH   5  10
HETATM   10  N   UNL     1      66.810   8.443   7.131  1.00  0.00    -0.384 N 
HETATM   11  H   UNL     1      67.585   8.958   6.812  1.00  0.00     0.157 HD
HETATM   12  H   UNL     1      65.933   8.880   7.225  1.00  0.00     0.157 HD
ENDBRANCH   5  10
TORSDOF 1
ENDMDL
MODEL 5
REMARK VINA RESULT:      -3.2      5.918      7.172
REMARK  1 active torsions:
REMARK  status: ('A' for Active; 'I' for Inactive)
REMARK    1  A    between atoms: C_5  and  N_9 
ROOT
HETATM    1  N   UNL     1      67.570   5.655   5.800  1.00  0.00    -0.350 N 
ATOM      2  HN  UNL     1      67.843   4.835   5.257  1.00  0.00     0.166 HD
HETATM    3  N   UNL     1      66.813   7.914   7.335  1.00  0.00    -0.365 N 
ATOM      4  HN  UNL     1      66.537   8.734   7.876  1.00  0.00     0.165 HD
HETATM    5  C   UNL     1      67.365   6.855   5.228  1.00  0.00     0.114 A 
HETATM    6  C   UNL     1      67.012   7.963   5.994  1.00  0.00     0.136 A 
HETATM    7  C   UNL     1      67.006   6.702   7.905  1.00  0.00     0.020 A 
HETATM    8  C   UNL     1      67.389   5.603   7.143  1.00  0.00     0.114 A 
HETATM    9  C   UNL     1      66.800   6.578   9.380  1.00  0.00     0.069 C 
ENDROOT
BRANCH   5  10
HETATM   10  N   UNL     1      67.563   6.938   3.852  1.00  0.00    -0.384 N 
HETATM   11  H   UNL     1      68.364   7.387   3.497  1.00  0.00     0.157 HD
HETATM   12  H   UNL     1      66.901   6.550   3.235  1.00  0.00     0.157 HD
ENDBRANCH   5  10
TORSDOF 1
ENDMDL
MODEL 6
REMARK VINA RESULT:      -3.2      1.694      2.634
REMARK  1 active torsions:
REMARK  status: ('A' for Active; 'I' for Inactive)
REMARK    1  A    between atoms: C_5  and  N_9 
ROOT
HETATM    1  N   UNL     1      63.157   9.346   5.577  1.00  0.00    -0.350 N 
ATOM      2  HN  UNL     1      63.155   9.782   6.499  1.00  0.00     0.166 HD
HETATM    3  N   UNL     1      63.149   8.163   3.001  1.00  0.00    -0.365 N 
ATOM      4  HN  UNL     1      63.151   7.725   2.080  1.00  0.00     0.165 HD
HETATM    5  C   UNL     1      63.750   8.161   5.347  1.00  0.00     0.114 A 
HETATM    6  C   UNL     1      63.757   7.597   4.074  1.00  0.00     0.136 A 
HETATM    7  C   UNL     1      62.542   9.348   3.238  1.00  0.00     0.020 A 
HETATM    8  C   UNL     1      62.562   9.925   4.504  1.00  0.00     0.114 A 
HETATM    9  C   UNL     1      61.850  10.024   2.098  1.00  0.00     0.069 C 
ENDROOT
BRANCH   5  10
HETATM   10  N   UNL     1      64.384   7.555   6.429  1.00  0.00    -0.384 N 
HETATM   11  H   UNL     1      63.860   7.285   7.218  1.00  0.00     0.157 HD
HETATM   12  H   UNL     1      65.356   7.398   6.405  1.00  0.00     0.157 HD
ENDBRANCH   5  10
TORSDOF 1
ENDMDL
MODEL 7
REMARK VINA RESULT:      -3.2      5.079      6.437
REMARK  1 active torsions:
REMARK  status: ('A' for Active; 'I' for Inactive)
REMARK    1  A    between atoms: C_5  and  N_9 
ROOT
HETATM    1  N   UNL     1      64.758   6.762   6.606  1.00  0.00    -0.350 N 
ATOM      2  HN  UNL     1      63.838   6.389   6.369  1.00  0.00     0.166 HD
HETATM    3  N   UNL     1      67.316   7.774   7.285  1.00  0.00    -0.365 N 
ATOM      4  HN  UNL     1      68.235   8.150   7.522  1.00  0.00     0.165 HD
HETATM    5  C   UNL     1      65.336   7.743   5.892  1.00  0.00     0.114 A 
HETATM    6  C   UNL     1      66.602   8.221   6.223  1.00  0.00     0.136 A 
HETATM    7  C   UNL     1      66.726   6.796   8.010  1.00  0.00     0.020 A 
HETATM    8  C   UNL     1      65.474   6.299   7.660  1.00  0.00     0.114 A 
HETATM    9  C   UNL     1      67.459   6.261   9.198  1.00  0.00     0.069 C 
ENDROOT
BRANCH   5  10
HETATM   10  N   UNL     1      64.628   8.223   4.792  1.00  0.00    -0.384 N 
HETATM   11  H   UNL     1      64.783   9.140   4.470  1.00  0.00     0.157 HD
HETATM   12  H   UNL     1      63.972   7.645   4.339  1.00  0.00     0.157 HD
ENDBRANCH   5  10
TORSDOF 1
ENDMDL
MODEL 8
REMARK VINA RESULT:      -3.0      2.020      3.841
REMARK  1 active torsions:
REMARK  status: ('A' for Active; 'I' for Inactive)
REMARK    1  A    between atoms: C_5  and  N_9 
ROOT
HETATM    1  N   UNL     1      61.240   9.664   3.192  1.00  0.00    -0.350 N 
ATOM      2  HN  UNL     1      60.467  10.328   3.251  1.00  0.00     0.166 HD
HETATM    3  N   UNL     1      63.396   7.830   3.057  1.00  0.00    -0.365 N 
ATOM      4  HN  UNL     1      64.169   7.167   2.996  1.00  0.00     0.165 HD
HETATM    5  C   UNL     1      61.323   8.750   2.210  1.00  0.00     0.114 A 
HETATM    6  C   UNL     1      62.377   7.840   2.163  1.00  0.00     0.136 A 
HETATM    7  C   UNL     1      63.317   8.760   4.037  1.00  0.00     0.020 A 
HETATM    8  C   UNL     1      62.247   9.647   4.100  1.00  0.00     0.114 A 
HETATM    9  C   UNL     1      64.411   8.804   5.055  1.00  0.00     0.069 C 
ENDROOT
BRANCH   5  10
HETATM   10  N   UNL     1      60.289   8.734   1.276  1.00  0.00    -0.384 N 
HETATM   11  H   UNL     1      59.430   8.308   1.500  1.00  0.00     0.157 HD
HETATM   12  H   UNL     1      60.418   9.148   0.392  1.00  0.00     0.157 HD
ENDBRANCH   5  10
TORSDOF 1
ENDMDL
MODEL 9
REMARK VINA RESULT:      -2.9      5.635      6.380
REMARK  1 active torsions:
REMARK  status: ('A' for Active; 'I' for Inactive)
REMARK    1  A    between atoms: C_5  and  N_9 
ROOT
HETATM    1  N   UNL     1      67.816   6.539   7.535  1.00  0.00    -0.350 N 
ATOM      2  HN  UNL     1      68.674   6.521   8.087  1.00  0.00     0.166 HD
HETATM    3  N   UNL     1      65.451   6.587   5.974  1.00  0.00    -0.365 N 
ATOM      4  HN  UNL     1      64.592   6.608   5.423  1.00  0.00     0.165 HD
HETATM    5  C   UNL     1      66.599   6.591   8.105  1.00  0.00     0.114 A 
HETATM    6  C   UNL     1      65.443   6.595   7.330  1.00  0.00     0.136 A 
HETATM    7  C   UNL     1      66.676   6.549   5.402  1.00  0.00     0.020 A 
HETATM    8  C   UNL     1      67.830   6.514   6.179  1.00  0.00     0.114 A 
HETATM    9  C   UNL     1      66.756   6.542   3.910  1.00  0.00     0.069 C 
ENDROOT
BRANCH   5  10
HETATM   10  N   UNL     1      66.557   6.598   9.498  1.00  0.00    -0.384 N 
HETATM   11  H   UNL     1      66.896   7.378   9.996  1.00  0.00     0.157 HD
HETATM   12  H   UNL     1      66.191   5.825   9.984  1.00  0.00     0.157 HD
ENDBRANCH   5  10
TORSDOF 1
ENDMDL
