MODEL 1
REMARK VINA RESULT:      -4.9      0.000      0.000
REMARK  3 active torsions:
REMARK  status: ('A' for Active; 'I' for Inactive)
REMARK    1  A    between atoms: C_1  and  S_3 
REMARK    2  A    between atoms: C_2  and  C_4 
REMARK       I    between atoms: C_2  and  N_11 
REMARK    3  A    between atoms: S_3  and  C_12 
ROOT
HETATM    1  C   UNL     1      62.767   9.535   3.875  1.00  0.00     0.031 A 
HETATM    2  C   UNL     1      62.791   8.522   2.910  1.00  0.00     0.018 A 
HETATM    3  C   UNL     1      63.484   9.369   5.064  1.00  0.00     0.018 A 
HETATM    4  C   UNL     1      64.242   7.180   4.318  1.00  0.00     0.009 A 
HETATM    5  C   UNL     1      63.514   7.345   3.136  1.00  0.00     0.020 A 
HETATM    6  C   UNL     1      64.212   8.194   5.284  1.00  0.00     0.020 A 
ENDROOT
BRANCH   1   7
HETATM    7  C   UNL     1      61.993  10.770   3.582  1.00  0.00     0.249 C 
HETATM    8  O   UNL     1      61.933  11.693   4.385  1.00  0.00    -0.268 OA
HETATM    9  N   UNL     1      61.380  10.860   2.364  1.00  0.00    -0.366 N 
HETATM   10  H   UNL     1      61.437  10.112   1.727  1.00  0.00     0.159 HD
HETATM   11  H   UNL     1      60.881  11.674   2.123  1.00  0.00     0.159 HD
ENDBRANCH   1   7
BRANCH   4  12
HETATM   12  S   UNL     1      65.124   5.673   4.673  1.00  0.00    -0.016 SA
BRANCH  12  13
HETATM   13  C   UNL     1      66.832   6.243   4.717  1.00  0.00     0.448 C 
HETATM   14  F   UNL     1      67.203   6.776   5.903  1.00  0.00    -0.160 F 
HETATM   15  F   UNL     1      67.041   7.192   3.771  1.00  0.00    -0.160 F 
HETATM   16  F   UNL     1      67.684   5.223   4.451  1.00  0.00    -0.160 F 
ENDBRANCH  12  13
ENDBRANCH   4  12
TORSDOF 3
ENDMDL
MODEL 2
REMARK VINA RESULT:      -4.8      1.703      2.180
REMARK  3 active torsions:
REMARK  status: ('A' for Active; 'I' for Inactive)
REMARK    1  A    between atoms: C_1  and  S_3 
REMARK    2  A    between atoms: C_2  and  C_4 
REMARK       I    between atoms: C_2  and  N_11 
REMARK    3  A    between atoms: S_3  and  C_12 
ROOT
HETATM    1  C   UNL     1      62.590   9.103   3.046  1.00  0.00     0.031 A 
HETATM    2  C   UNL     1      63.135   7.840   2.789  1.00  0.00     0.018 A 
HETATM    3  C   UNL     1      62.833   9.721   4.277  1.00  0.00     0.018 A 
HETATM    4  C   UNL     1      64.162   7.810   4.988  1.00  0.00     0.009 A 
HETATM    5  C   UNL     1      63.906   7.191   3.760  1.00  0.00     0.020 A 
HETATM    6  C   UNL     1      63.611   9.072   5.243  1.00  0.00     0.020 A 
ENDROOT
BRANCH   1   7
HETATM    7  C   UNL     1      61.787   9.756   1.978  1.00  0.00     0.249 C 
HETATM    8  O   UNL     1      61.383   9.127   1.007  1.00  0.00    -0.268 OA
HETATM    9  N   UNL     1      61.479  11.078   2.134  1.00  0.00    -0.366 N 
HETATM   10  H   UNL     1      61.809  11.572   2.919  1.00  0.00     0.159 HD
HETATM   11  H   UNL     1      60.927  11.537   1.460  1.00  0.00     0.159 HD
ENDBRANCH   1   7
BRANCH   4  12
HETATM   12  S   UNL     1      65.085   6.993   6.274  1.00  0.00    -0.016 SA
BRANCH  12  13
HETATM   13  C   UNL     1      66.707   7.760   6.113  1.00  0.00     0.448 C 
HETATM   14  F   UNL     1      66.977   8.221   4.870  1.00  0.00    -0.160 F 
HETATM   15  F   UNL     1      67.684   6.876   6.432  1.00  0.00    -0.160 F 
HETATM   16  F   UNL     1      66.827   8.809   6.964  1.00  0.00    -0.160 F 
ENDBRANCH  12  13
ENDBRANCH   4  12
TORSDOF 3
ENDMDL
MODEL 3
REMARK VINA RESULT:      -4.8      4.370      5.390
REMARK  3 active torsions:
REMARK  status: ('A' for Active; 'I' for Inactive)
REMARK    1  A    between atoms: C_1  and  S_3 
REMARK    2  A    between atoms: C_2  and  C_4 
REMARK       I    between atoms: C_2  and  N_11 
REMARK    3  A    between atoms: S_3  and  C_12 
ROOT
HETATM    1  C   UNL     1      65.194   7.985   4.877  1.00  0.00     0.031 A 
HETATM    2  C   UNL     1      64.183   8.935   5.059  1.00  0.00     0.018 A 
HETATM    3  C   UNL     1      65.003   6.942   3.964  1.00  0.00     0.018 A 
HETATM    4  C   UNL     1      62.792   7.803   3.423  1.00  0.00     0.009 A 
HETATM    5  C   UNL     1      62.983   8.837   4.345  1.00  0.00     0.020 A 
HETATM    6  C   UNL     1      63.804   6.852   3.247  1.00  0.00     0.020 A 
ENDROOT
BRANCH   1   7
HETATM    7  C   UNL     1      66.454   8.139   5.650  1.00  0.00     0.249 C 
HETATM    8  O   UNL     1      66.500   8.814   6.671  1.00  0.00    -0.268 OA
HETATM    9  N   UNL     1      67.558   7.467   5.205  1.00  0.00    -0.366 N 
HETATM   10  H   UNL     1      67.509   6.927   4.383  1.00  0.00     0.159 HD
HETATM   11  H   UNL     1      68.404   7.524   5.706  1.00  0.00     0.159 HD
ENDBRANCH   1   7
BRANCH   4  12
HETATM   12  S   UNL     1      61.257   7.607   2.541  1.00  0.00    -0.016 SA
BRANCH  12  13
HETATM   13  C   UNL     1      61.430   8.816   1.217  1.00  0.00     0.448 C 
HETATM   14  F   UNL     1      61.415  10.101   1.640  1.00  0.00    -0.160 F 
HETATM   15  F   UNL     1      60.426   8.681   0.316  1.00  0.00    -0.160 F 
HETATM   16  F   UNL     1      62.593   8.628   0.546  1.00  0.00    -0.160 F 
ENDBRANCH  12  13
ENDBRANCH   4  12
TORSDOF 3
ENDMDL
MODEL 4
REMARK VINA RESULT:      -4.8      4.413      5.517
REMARK  3 active torsions:
REMARK  status: ('A' for Active; 'I' for Inactive)
REMARK    1  A    between atoms: C_1  and  S_3 
REMARK    2  A    between atoms: C_2  and  C_4 
REMARK       I    between atoms: C_2  and  N_11 
REMARK    3  A    between atoms: S_3  and  C_12 
ROOT
HETATM    1  C   UNL     1      65.384   7.963   4.942  1.00  0.00     0.031 A 
HETATM    2  C   UNL     1      64.499   9.011   5.218  1.00  0.00     0.018 A 
HETATM    3  C   UNL     1      65.016   6.975   4.024  1.00  0.00     0.018 A 
HETATM    4  C   UNL     1      62.881   8.086   3.664  1.00  0.00     0.009 A 
HETATM    5  C   UNL     1      63.249   9.065   4.591  1.00  0.00     0.020 A 
HETATM    6  C   UNL     1      63.767   7.036   3.395  1.00  0.00     0.020 A 
ENDROOT
BRANCH   1   7
HETATM    7  C   UNL     1      66.705   7.957   5.625  1.00  0.00     0.249 C 
HETATM    8  O   UNL     1      67.712   7.543   5.065  1.00  0.00    -0.268 OA
HETATM    9  N   UNL     1      66.766   8.468   6.891  1.00  0.00    -0.366 N 
HETATM   10  H   UNL     1      65.949   8.798   7.330  1.00  0.00     0.159 HD
HETATM   11  H   UNL     1      67.628   8.505   7.365  1.00  0.00     0.159 HD
ENDBRANCH   1   7
BRANCH   4  12
HETATM   12  S   UNL     1      61.275   8.083   2.892  1.00  0.00    -0.016 SA
BRANCH  12  13
HETATM   13  C   UNL     1      61.564   9.090   1.427  1.00  0.00     0.448 C 
HETATM   14  F   UNL     1      62.781   8.908   0.866  1.00  0.00    -0.160 F 
HETATM   15  F   UNL     1      61.457  10.408   1.728  1.00  0.00    -0.160 F 
HETATM   16  F   UNL     1      60.639   8.825   0.472  1.00  0.00    -0.160 F 
ENDBRANCH  12  13
ENDBRANCH   4  12
TORSDOF 3
ENDMDL
MODEL 5
REMARK VINA RESULT:      -4.6      1.677      2.160
REMARK  3 active torsions:
REMARK  status: ('A' for Active; 'I' for Inactive)
REMARK    1  A    between atoms: C_1  and  S_3 
REMARK    2  A    between atoms: C_2  and  C_4 
REMARK       I    between atoms: C_2  and  N_11 
REMARK    3  A    between atoms: S_3  and  C_12 
ROOT
HETATM    1  C   UNL     1      62.921   8.962   4.025  1.00  0.00     0.031 A 
HETATM    2  C   UNL     1      63.798   9.410   5.020  1.00  0.00     0.018 A 
HETATM    3  C   UNL     1      63.211   7.782   3.333  1.00  0.00     0.018 A 
HETATM    4  C   UNL     1      65.251   7.505   4.631  1.00  0.00     0.009 A 
HETATM    5  C   UNL     1      64.963   8.692   5.312  1.00  0.00     0.020 A 
HETATM    6  C   UNL     1      64.374   7.063   3.633  1.00  0.00     0.020 A 
ENDROOT
BRANCH   1   7
HETATM    7  C   UNL     1      61.692   9.754   3.760  1.00  0.00     0.249 C 
HETATM    8  O   UNL     1      61.634  10.951   4.015  1.00  0.00    -0.268 OA
HETATM    9  N   UNL     1      60.634   9.109   3.182  1.00  0.00    -0.366 N 
HETATM   10  H   UNL     1      60.693   8.147   2.981  1.00  0.00     0.159 HD
HETATM   11  H   UNL     1      59.812   9.607   2.967  1.00  0.00     0.159 HD
ENDBRANCH   1   7
BRANCH   4  12
HETATM   12  S   UNL     1      66.753   6.595   4.929  1.00  0.00    -0.016 SA
BRANCH  12  13
HETATM   13  C   UNL     1      66.646   6.267   6.697  1.00  0.00     0.448 C 
HETATM   14  F   UNL     1      65.401   5.954   7.123  1.00  0.00    -0.160 F 
HETATM   15  F   UNL     1      67.050   7.350   7.406  1.00  0.00    -0.160 F 
HETATM   16  F   UNL     1      67.459   5.240   7.044  1.00  0.00    -0.160 F 
ENDBRANCH  12  13
ENDBRANCH   4  12
TORSDOF 3
ENDMDL
MODEL 6
REMARK VINA RESULT:      -4.6      1.420      2.063
REMARK  3 active torsions:
REMARK  status: ('A' for Active; 'I' for Inactive)
REMARK    1  A    between atoms: C_1  and  S_3 
REMARK    2  A    between atoms: C_2  and  C_4 
REMARK       I    between atoms: C_2  and  N_11 
REMARK    3  A    between atoms: S_3  and  C_12 
ROOT
HETATM    1  C   UNL     1      63.247   9.367   4.463  1.00  0.00     0.031 A 
HETATM    2  C   UNL     1      64.155   8.752   5.333  1.00  0.00     0.018 A 
HETATM    3  C   UNL     1      62.881   8.717   3.280  1.00  0.00     0.018 A 
HETATM    4  C   UNL     1      64.334   6.847   3.841  1.00  0.00     0.009 A 
HETATM    5  C   UNL     1      64.705   7.505   5.017  1.00  0.00     0.020 A 
HETATM    6  C   UNL     1      63.428   7.467   2.971  1.00  0.00     0.020 A 
ENDROOT
BRANCH   1   7
HETATM    7  C   UNL     1      62.682  10.686   4.850  1.00  0.00     0.249 C 
HETATM    8  O   UNL     1      61.760  11.196   4.225  1.00  0.00    -0.268 OA
HETATM    9  N   UNL     1      63.202  11.299   5.956  1.00  0.00    -0.366 N 
HETATM   10  H   UNL     1      63.942  10.879   6.450  1.00  0.00     0.159 HD
HETATM   11  H   UNL     1      62.835  12.161   6.258  1.00  0.00     0.159 HD
ENDBRANCH   1   7
BRANCH   4  12
HETATM   12  S   UNL     1      65.057   5.289   3.371  1.00  0.00    -0.016 SA
BRANCH  12  13
HETATM   13  C   UNL     1      66.813   5.602   3.623  1.00  0.00     0.448 C 
HETATM   14  F   UNL     1      67.171   6.895   3.451  1.00  0.00    -0.160 F 
HETATM   15  F   UNL     1      67.556   4.865   2.761  1.00  0.00    -0.160 F 
HETATM   16  F   UNL     1      67.188   5.245   4.876  1.00  0.00    -0.160 F 
ENDBRANCH  12  13
ENDBRANCH   4  12
TORSDOF 3
ENDMDL
MODEL 7
REMARK VINA RESULT:      -4.5      2.082      2.428
REMARK  3 active torsions:
REMARK  status: ('A' for Active; 'I' for Inactive)
REMARK    1  A    between atoms: C_1  and  S_3 
REMARK    2  A    between atoms: C_2  and  C_4 
REMARK       I    between atoms: C_2  and  N_11 
REMARK    3  A    between atoms: S_3  and  C_12 
ROOT
HETATM    1  C   UNL     1      62.529   9.879   3.811  1.00  0.00     0.031 A 
HETATM    2  C   UNL     1      62.171   8.813   2.978  1.00  0.00     0.018 A 
HETATM    3  C   UNL     1      63.449   9.667   4.843  1.00  0.00     0.018 A 
HETATM    4  C   UNL     1      63.645   7.326   4.206  1.00  0.00     0.009 A 
HETATM    5  C   UNL     1      62.716   7.540   3.183  1.00  0.00     0.020 A 
HETATM    6  C   UNL     1      63.997   8.395   5.040  1.00  0.00     0.020 A 
ENDROOT
BRANCH   1   7
HETATM    7  C   UNL     1      61.930  11.214   3.546  1.00  0.00     0.249 C 
HETATM    8  O   UNL     1      61.803  12.046   4.435  1.00  0.00    -0.268 OA
HETATM    9  N   UNL     1      61.559  11.498   2.261  1.00  0.00    -0.366 N 
HETATM   10  H   UNL     1      61.667  10.820   1.556  1.00  0.00     0.159 HD
HETATM   11  H   UNL     1      61.184  12.382   2.042  1.00  0.00     0.159 HD
ENDBRANCH   1   7
BRANCH   4  12
HETATM   12  S   UNL     1      64.315   5.710   4.540  1.00  0.00    -0.016 SA
BRANCH  12  13
HETATM   13  C   UNL     1      63.820   5.448   6.251  1.00  0.00     0.448 C 
HETATM   14  F   UNL     1      64.619   6.058   7.155  1.00  0.00    -0.160 F 
HETATM   15  F   UNL     1      63.820   4.124   6.548  1.00  0.00    -0.160 F 
HETATM   16  F   UNL     1      62.559   5.901   6.460  1.00  0.00    -0.160 F 
ENDBRANCH  12  13
ENDBRANCH   4  12
TORSDOF 3
ENDMDL
MODEL 8
REMARK VINA RESULT:      -4.4      4.677      5.542
REMARK  3 active torsions:
REMARK  status: ('A' for Active; 'I' for Inactive)
REMARK    1  A    between atoms: C_1  and  S_3 
REMARK    2  A    between atoms: C_2  and  C_4 
REMARK       I    between atoms: C_2  and  N_11 
REMARK    3  A    between atoms: S_3  and  C_12 
ROOT
HETATM    1  C   UNL     1      63.088   9.411   4.103  1.00  0.00     0.031 A 
HETATM    2  C   UNL     1      63.450   8.111   3.729  1.00  0.00     0.018 A 
HETATM    3  C   UNL     1      62.139  10.106   3.346  1.00  0.00     0.018 A 
HETATM    4  C   UNL     1      61.921   8.201   1.847  1.00  0.00     0.009 A 
HETATM    5  C   UNL     1      62.878   7.515   2.599  1.00  0.00     0.020 A 
HETATM    6  C   UNL     1      61.566   9.503   2.221  1.00  0.00     0.020 A 
ENDROOT
BRANCH   1   7
HETATM    7  C   UNL     1      63.715   9.995   5.318  1.00  0.00     0.249 C 
HETATM    8  O   UNL     1      64.727   9.512   5.811  1.00  0.00    -0.268 OA
HETATM    9  N   UNL     1      63.146  11.120   5.846  1.00  0.00    -0.366 N 
HETATM   10  H   UNL     1      62.334  11.499   5.440  1.00  0.00     0.159 HD
HETATM   11  H   UNL     1      63.549  11.551   6.634  1.00  0.00     0.159 HD
ENDBRANCH   1   7
BRANCH   4  12
HETATM   12  S   UNL     1      61.216   7.503   0.367  1.00  0.00    -0.016 SA
BRANCH  12  13
HETATM   13  C   UNL     1      59.570   7.031   0.925  1.00  0.00     0.448 C 
HETATM   14  F   UNL     1      58.607   7.931   0.623  1.00  0.00    -0.160 F 
HETATM   15  F   UNL     1      59.554   6.866   2.271  1.00  0.00    -0.160 F 
HETATM   16  F   UNL     1      59.199   5.848   0.377  1.00  0.00    -0.160 F 
ENDBRANCH  12  13
ENDBRANCH   4  12
TORSDOF 3
ENDMDL
MODEL 9
REMARK VINA RESULT:      -4.4      4.732      5.794
REMARK  3 active torsions:
REMARK  status: ('A' for Active; 'I' for Inactive)
REMARK    1  A    between atoms: C_1  and  S_3 
REMARK    2  A    between atoms: C_2  and  C_4 
REMARK       I    between atoms: C_2  and  N_11 
REMARK    3  A    between atoms: S_3  and  C_12 
ROOT
HETATM    1  C   UNL     1      65.541   6.716   7.036  1.00  0.00     0.031 A 
HETATM    2  C   UNL     1      65.998   7.791   6.265  1.00  0.00     0.018 A 
HETATM    3  C   UNL     1      64.397   6.019   6.635  1.00  0.00     0.018 A 
HETATM    4  C   UNL     1      64.173   7.474   4.697  1.00  0.00     0.009 A 
HETATM    5  C   UNL     1      65.310   8.176   5.109  1.00  0.00     0.020 A 
HETATM    6  C   UNL     1      63.716   6.403   5.475  1.00  0.00     0.020 A 
ENDROOT
BRANCH   1   7
HETATM    7  C   UNL     1      66.313   6.339   8.250  1.00  0.00     0.249 C 
HETATM    8  O   UNL     1      66.006   5.366   8.926  1.00  0.00    -0.268 OA
HETATM    9  N   UNL     1      67.407   7.096   8.566  1.00  0.00    -0.366 N 
HETATM   10  H   UNL     1      67.643   7.876   8.013  1.00  0.00     0.159 HD
HETATM   11  H   UNL     1      67.958   6.861   9.347  1.00  0.00     0.159 HD
ENDBRANCH   1   7
BRANCH   4  12
HETATM   12  S   UNL     1      63.233   7.970   3.268  1.00  0.00    -0.016 SA
BRANCH  12  13
HETATM   13  C   UNL     1      62.232   9.315   3.928  1.00  0.00     0.448 C 
HETATM   14  F   UNL     1      62.443   9.563   5.241  1.00  0.00    -0.160 F 
HETATM   15  F   UNL     1      60.913   9.041   3.780  1.00  0.00    -0.160 F 
HETATM   16  F   UNL     1      62.476  10.468   3.258  1.00  0.00    -0.160 F 
ENDBRANCH  12  13
ENDBRANCH   4  12
TORSDOF 3
ENDMDL
