MODEL 1
REMARK VINA RESULT:      -4.7      0.000      0.000
REMARK  1 active torsions:
REMARK  status: ('A' for Active; 'I' for Inactive)
REMARK       I    between atoms: C_1  and  N_2 
REMARK    1  A    between atoms: C_1  and  C_3 
ROOT
HETATM    1  C   UNL     1      62.653   8.103   4.288  1.00  0.00     0.248 C 
HETATM    2  N   UNL     1      62.227   9.204   3.584  1.00  0.00    -0.350 N 
HETATM    3  O   UNL     1      62.498   6.977   3.802  1.00  0.00    -0.270 OA
HETATM    4  C   UNL     1      61.602   9.058   2.284  1.00  0.00     0.126 C 
HETATM    5  C   UNL     1      62.338  10.600   3.961  1.00  0.00     0.126 C 
HETATM    6  C   UNL     1      61.763  11.372   2.774  1.00  0.00     0.021 C 
HETATM    7  C   UNL     1      61.819  10.397   1.611  1.00  0.00     0.021 C 
ENDROOT
BRANCH   1   8
HETATM    8  C   UNL     1      63.429   8.292   5.635  1.00  0.00     0.213 C 
HETATM    9  O   UNL     1      63.373   7.341   6.687  1.00  0.00    -0.376 OA
HETATM   10  C   UNL     1      64.185   6.173   6.574  1.00  0.00     0.168 C 
HETATM   11  C   UNL     1      65.579   6.358   5.976  1.00  0.00     0.026 C 
HETATM   12  C   UNL     1      65.591   7.361   4.843  1.00  0.00     0.005 C 
HETATM   13  C   UNL     1      64.894   8.627   5.322  1.00  0.00     0.042 C 
ENDBRANCH   1   8
TORSDOF 1
ENDMDL
MODEL 2
REMARK VINA RESULT:      -4.4      2.247      5.423
REMARK  1 active torsions:
REMARK  status: ('A' for Active; 'I' for Inactive)
REMARK       I    between atoms: C_1  and  N_2 
REMARK    1  A    between atoms: C_1  and  C_3 
ROOT
HETATM    1  C   UNL     1      65.264   7.895   5.739  1.00  0.00     0.248 C 
HETATM    2  N   UNL     1      65.958   6.886   6.362  1.00  0.00    -0.350 N 
HETATM    3  O   UNL     1      65.882   8.748   5.093  1.00  0.00    -0.270 OA
HETATM    4  C   UNL     1      67.404   6.813   6.268  1.00  0.00     0.126 C 
HETATM    5  C   UNL     1      65.425   5.783   7.138  1.00  0.00     0.126 C 
HETATM    6  C   UNL     1      66.647   4.948   7.522  1.00  0.00     0.021 C 
HETATM    7  C   UNL     1      67.723   5.357   6.533  1.00  0.00     0.021 C 
ENDROOT
BRANCH   1   8
HETATM    8  C   UNL     1      63.697   7.887   5.756  1.00  0.00     0.213 C 
HETATM    9  O   UNL     1      62.930   9.071   5.914  1.00  0.00    -0.376 OA
HETATM   10  C   UNL     1      62.749   9.906   4.771  1.00  0.00     0.168 C 
HETATM   11  C   UNL     1      62.540   9.203   3.430  1.00  0.00     0.026 C 
HETATM   12  C   UNL     1      63.392   7.960   3.292  1.00  0.00     0.005 C 
HETATM   13  C   UNL     1      63.190   7.105   4.536  1.00  0.00     0.042 C 
ENDBRANCH   1   8
TORSDOF 1
ENDMDL
MODEL 3
REMARK VINA RESULT:      -4.4      1.259      1.519
REMARK  1 active torsions:
REMARK  status: ('A' for Active; 'I' for Inactive)
REMARK       I    between atoms: C_1  and  N_2 
REMARK    1  A    between atoms: C_1  and  C_3 
ROOT
HETATM    1  C   UNL     1      64.065   7.958   4.632  1.00  0.00     0.248 C 
HETATM    2  N   UNL     1      63.242   9.032   4.390  1.00  0.00    -0.350 N 
HETATM    3  O   UNL     1      63.999   6.967   3.897  1.00  0.00    -0.270 OA
HETATM    4  C   UNL     1      62.303   9.013   3.286  1.00  0.00     0.126 C 
HETATM    5  C   UNL     1      63.182  10.289   5.111  1.00  0.00     0.126 C 
HETATM    6  C   UNL     1      62.141  11.120   4.360  1.00  0.00     0.021 C 
HETATM    7  C   UNL     1      62.042  10.475   2.990  1.00  0.00     0.021 C 
ENDROOT
BRANCH   1   8
HETATM    8  C   UNL     1      65.151   8.048   5.757  1.00  0.00     0.213 C 
HETATM    9  O   UNL     1      65.114   7.236   6.920  1.00  0.00    -0.376 OA
HETATM   10  C   UNL     1      65.576   5.890   6.810  1.00  0.00     0.168 C 
HETATM   11  C   UNL     1      66.798   5.653   5.924  1.00  0.00     0.026 C 
HETATM   12  C   UNL     1      66.789   6.520   4.684  1.00  0.00     0.005 C 
HETATM   13  C   UNL     1      66.542   7.959   5.113  1.00  0.00     0.042 C 
ENDBRANCH   1   8
TORSDOF 1
ENDMDL
MODEL 4
REMARK VINA RESULT:      -4.4      1.902      2.717
REMARK  1 active torsions:
REMARK  status: ('A' for Active; 'I' for Inactive)
REMARK       I    between atoms: C_1  and  N_2 
REMARK    1  A    between atoms: C_1  and  C_3 
ROOT
HETATM    1  C   UNL     1      63.838   7.747   5.654  1.00  0.00     0.248 C 
HETATM    2  N   UNL     1      62.890   7.749   4.660  1.00  0.00    -0.350 N 
HETATM    3  O   UNL     1      63.563   7.254   6.754  1.00  0.00    -0.270 OA
HETATM    4  C   UNL     1      61.575   7.181   4.889  1.00  0.00     0.126 C 
HETATM    5  C   UNL     1      63.019   8.249   3.305  1.00  0.00     0.126 C 
HETATM    6  C   UNL     1      61.680   7.927   2.640  1.00  0.00     0.021 C 
HETATM    7  C   UNL     1      61.070   6.837   3.503  1.00  0.00     0.021 C 
ENDROOT
BRANCH   1   8
HETATM    8  C   UNL     1      65.287   8.260   5.349  1.00  0.00     0.213 C 
HETATM    9  O   UNL     1      66.150   8.754   6.361  1.00  0.00    -0.376 OA
HETATM   10  C   UNL     1      66.836   7.803   7.175  1.00  0.00     0.168 C 
HETATM   11  C   UNL     1      67.350   6.544   6.479  1.00  0.00     0.026 C 
HETATM   12  C   UNL     1      66.390   6.036   5.425  1.00  0.00     0.005 C 
HETATM   13  C   UNL     1      66.024   7.201   4.516  1.00  0.00     0.042 C 
ENDBRANCH   1   8
TORSDOF 1
ENDMDL
MODEL 5
REMARK VINA RESULT:      -4.4      1.934      3.056
REMARK  1 active torsions:
REMARK  status: ('A' for Active; 'I' for Inactive)
REMARK       I    between atoms: C_1  and  N_2 
REMARK    1  A    between atoms: C_1  and  C_3 
ROOT
HETATM    1  C   UNL     1      65.121   8.381   5.337  1.00  0.00     0.248 C 
HETATM    2  N   UNL     1      64.049   8.838   4.608  1.00  0.00    -0.350 N 
HETATM    3  O   UNL     1      65.599   9.096   6.224  1.00  0.00    -0.270 OA
HETATM    4  C   UNL     1      63.478  10.145   4.869  1.00  0.00     0.126 C 
HETATM    5  C   UNL     1      63.331   8.151   3.553  1.00  0.00     0.126 C 
HETATM    6  C   UNL     1      62.204   9.106   3.160  1.00  0.00     0.021 C 
HETATM    7  C   UNL     1      62.061  10.046   4.344  1.00  0.00     0.021 C 
ENDROOT
BRANCH   1   8
HETATM    8  C   UNL     1      65.647   6.922   5.118  1.00  0.00     0.213 C 
HETATM    9  O   UNL     1      67.027   6.621   4.980  1.00  0.00    -0.376 OA
HETATM   10  C   UNL     1      67.815   6.550   6.168  1.00  0.00     0.168 C 
HETATM   11  C   UNL     1      67.159   5.916   7.393  1.00  0.00     0.026 C 
HETATM   12  C   UNL     1      65.695   6.280   7.516  1.00  0.00     0.005 C 
HETATM   13  C   UNL     1      65.024   6.003   6.178  1.00  0.00     0.042 C 
ENDBRANCH   1   8
TORSDOF 1
ENDMDL
MODEL 6
REMARK VINA RESULT:      -4.2      2.236      5.369
REMARK  1 active torsions:
REMARK  status: ('A' for Active; 'I' for Inactive)
REMARK       I    between atoms: C_1  and  N_2 
REMARK    1  A    between atoms: C_1  and  C_3 
ROOT
HETATM    1  C   UNL     1      64.007   6.689   6.145  1.00  0.00     0.248 C 
HETATM    2  N   UNL     1      65.243   6.220   6.519  1.00  0.00    -0.350 N 
HETATM    3  O   UNL     1      63.387   7.439   6.907  1.00  0.00    -0.270 OA
HETATM    4  C   UNL     1      65.825   6.596   7.793  1.00  0.00     0.126 C 
HETATM    5  C   UNL     1      66.136   5.359   5.767  1.00  0.00     0.126 C 
HETATM    6  C   UNL     1      67.382   5.228   6.642  1.00  0.00     0.021 C 
HETATM    7  C   UNL     1      67.314   6.408   7.595  1.00  0.00     0.021 C 
ENDROOT
BRANCH   1   8
HETATM    8  C   UNL     1      63.450   6.364   4.717  1.00  0.00     0.213 C 
HETATM    9  O   UNL     1      62.068   6.165   4.464  1.00  0.00    -0.376 OA
HETATM   10  C   UNL     1      61.239   7.321   4.344  1.00  0.00     0.168 C 
HETATM   11  C   UNL     1      61.838   8.525   3.619  1.00  0.00     0.026 C 
HETATM   12  C   UNL     1      63.306   8.716   3.933  1.00  0.00     0.005 C 
HETATM   13  C   UNL     1      64.013   7.385   3.719  1.00  0.00     0.042 C 
ENDBRANCH   1   8
TORSDOF 1
ENDMDL
MODEL 7
REMARK VINA RESULT:      -4.2      2.209      3.333
REMARK  1 active torsions:
REMARK  status: ('A' for Active; 'I' for Inactive)
REMARK       I    between atoms: C_1  and  N_2 
REMARK    1  A    between atoms: C_1  and  C_3 
ROOT
HETATM    1  C   UNL     1      64.755   6.688   6.480  1.00  0.00     0.248 C 
HETATM    2  N   UNL     1      64.018   7.440   5.597  1.00  0.00    -0.350 N 
HETATM    3  O   UNL     1      64.364   5.556   6.786  1.00  0.00    -0.270 OA
HETATM    4  C   UNL     1      62.791   6.920   5.025  1.00  0.00     0.126 C 
HETATM    5  C   UNL     1      64.313   8.766   5.093  1.00  0.00     0.126 C 
HETATM    6  C   UNL     1      63.189   9.067   4.102  1.00  0.00     0.021 C 
HETATM    7  C   UNL     1      62.610   7.709   3.746  1.00  0.00     0.021 C 
ENDROOT
BRANCH   1   8
HETATM    8  C   UNL     1      66.135   7.222   6.994  1.00  0.00     0.213 C 
HETATM    9  O   UNL     1      66.616   6.957   8.303  1.00  0.00    -0.376 OA
HETATM   10  C   UNL     1      67.203   5.681   8.553  1.00  0.00     0.168 C 
HETATM   11  C   UNL     1      68.071   5.093   7.441  1.00  0.00     0.026 C 
HETATM   12  C   UNL     1      67.512   5.376   6.063  1.00  0.00     0.005 C 
HETATM   13  C   UNL     1      67.220   6.867   5.967  1.00  0.00     0.042 C 
ENDBRANCH   1   8
TORSDOF 1
ENDMDL
MODEL 8
REMARK VINA RESULT:      -4.1      2.317      3.428
REMARK  1 active torsions:
REMARK  status: ('A' for Active; 'I' for Inactive)
REMARK       I    between atoms: C_1  and  N_2 
REMARK    1  A    between atoms: C_1  and  C_3 
ROOT
HETATM    1  C   UNL     1      62.474   7.480   5.566  1.00  0.00     0.248 C 
HETATM    2  N   UNL     1      62.439   8.607   4.780  1.00  0.00    -0.350 N 
HETATM    3  O   UNL     1      62.977   7.542   6.693  1.00  0.00    -0.270 OA
HETATM    4  C   UNL     1      62.984   9.862   5.260  1.00  0.00     0.126 C 
HETATM    5  C   UNL     1      61.875   8.751   3.452  1.00  0.00     0.126 C 
HETATM    6  C   UNL     1      62.061  10.229   3.107  1.00  0.00     0.021 C 
HETATM    7  C   UNL     1      62.268  10.917   4.444  1.00  0.00     0.021 C 
ENDROOT
BRANCH   1   8
HETATM    8  C   UNL     1      61.777   6.166   5.074  1.00  0.00     0.213 C 
HETATM    9  O   UNL     1      62.325   4.878   5.307  1.00  0.00    -0.376 OA
HETATM   10  C   UNL     1      62.139   4.297   6.597  1.00  0.00     0.168 C 
HETATM   11  C   UNL     1      60.786   4.528   7.268  1.00  0.00     0.026 C 
HETATM   12  C   UNL     1      60.247   5.920   7.016  1.00  0.00     0.005 C 
HETATM   13  C   UNL     1      60.307   6.187   5.518  1.00  0.00     0.042 C 
ENDBRANCH   1   8
TORSDOF 1
ENDMDL
MODEL 9
REMARK VINA RESULT:      -4.0      2.504      4.672
REMARK  1 active torsions:
REMARK  status: ('A' for Active; 'I' for Inactive)
REMARK       I    between atoms: C_1  and  N_2 
REMARK    1  A    between atoms: C_1  and  C_3 
ROOT
HETATM    1  C   UNL     1      62.360   7.390   5.870  1.00  0.00     0.248 C 
HETATM    2  N   UNL     1      61.297   6.529   5.745  1.00  0.00    -0.350 N 
HETATM    3  O   UNL     1      62.838   7.604   6.989  1.00  0.00    -0.270 OA
HETATM    4  C   UNL     1      60.733   5.873   6.909  1.00  0.00     0.126 C 
HETATM    5  C   UNL     1      60.613   6.125   4.532  1.00  0.00     0.126 C 
HETATM    6  C   UNL     1      59.567   5.110   4.991  1.00  0.00     0.021 C 
HETATM    7  C   UNL     1      60.050   4.642   6.352  1.00  0.00     0.021 C 
ENDROOT
BRANCH   1   8
HETATM    8  C   UNL     1      63.026   7.995   4.588  1.00  0.00     0.213 C 
HETATM    9  O   UNL     1      62.282   8.322   3.424  1.00  0.00    -0.376 OA
HETATM   10  C   UNL     1      61.551   9.548   3.422  1.00  0.00     0.168 C 
HETATM   11  C   UNL     1      62.218  10.748   4.093  1.00  0.00     0.026 C 
HETATM   12  C   UNL     1      62.980  10.361   5.341  1.00  0.00     0.005 C 
HETATM   13  C   UNL     1      63.894   9.194   4.996  1.00  0.00     0.042 C 
ENDBRANCH   1   8
TORSDOF 1
ENDMDL
