MODEL 1
REMARK VINA RESULT:      -5.0      0.000      0.000
REMARK  2 active torsions:
REMARK  status: ('A' for Active; 'I' for Inactive)
REMARK    1  A    between atoms: S_1  and  C_2 
REMARK    2  A    between atoms: S_1  and  N_3 
ROOT
HETATM    1  S   UNL     1      63.787   8.655   5.356  1.00  0.00     0.250 S 
HETATM    2  O   UNL     1      62.744   8.169   6.236  1.00  0.00    -0.205 OA
HETATM    3  O   UNL     1      64.513   9.866   5.670  1.00  0.00    -0.205 OA
ENDROOT
BRANCH   1   4
HETATM    4  C   UNL     1      62.972   9.019   3.816  1.00  0.00     0.115 A 
HETATM    5  S   UNL     1      62.150  10.516   3.717  1.00  0.00    -0.089 SA
HETATM    6  C   UNL     1      61.698  10.234   2.089  1.00  0.00     0.051 A 
HETATM    7  C   UNL     1      62.153   9.018   1.630  1.00  0.00     0.009 A 
HETATM    8  C   UNL     1      62.889   8.316   2.627  1.00  0.00     0.033 A 
ENDBRANCH   1   4
BRANCH   1   9
HETATM    9  N   UNL     1      64.909   7.393   5.108  1.00  0.00    -0.202 NA
HETATM   10  C   UNL     1      66.342   7.796   4.979  1.00  0.00     0.134 C 
HETATM   11  C   UNL     1      66.967   8.086   6.354  1.00  0.00     0.183 C 
HETATM   12  O   UNL     1      66.820   6.971   7.249  1.00  0.00    -0.389 OA
HETATM   13  C   UNL     1      65.438   6.615   7.419  1.00  0.00     0.183 C 
HETATM   14  C   UNL     1      64.804   6.250   6.073  1.00  0.00     0.134 C 
ENDBRANCH   1   9
TORSDOF 2
ENDMDL
MODEL 2
REMARK VINA RESULT:      -4.9      1.525      1.784
REMARK  2 active torsions:
REMARK  status: ('A' for Active; 'I' for Inactive)
REMARK    1  A    between atoms: S_1  and  C_2 
REMARK    2  A    between atoms: S_1  and  N_3 
ROOT
HETATM    1  S   UNL     1      64.621   8.070   5.835  1.00  0.00     0.250 S 
HETATM    2  O   UNL     1      63.785   7.460   6.848  1.00  0.00    -0.205 OA
HETATM    3  O   UNL     1      65.667   9.001   6.200  1.00  0.00    -0.205 OA
ENDROOT
BRANCH   1   4
HETATM    4  C   UNL     1      63.513   9.030   4.825  1.00  0.00     0.115 A 
HETATM    5  S   UNL     1      62.997   8.315   3.359  1.00  0.00    -0.089 SA
HETATM    6  C   UNL     1      62.006   9.659   2.977  1.00  0.00     0.051 A 
HETATM    7  C   UNL     1      62.074  10.642   3.940  1.00  0.00     0.009 A 
HETATM    8  C   UNL     1      62.946  10.278   5.007  1.00  0.00     0.033 A 
ENDBRANCH   1   4
BRANCH   1   9
HETATM    9  N   UNL     1      65.304   6.826   4.886  1.00  0.00    -0.202 NA
HETATM   10  C   UNL     1      66.683   7.071   4.366  1.00  0.00     0.134 C 
HETATM   11  C   UNL     1      67.743   6.825   5.454  1.00  0.00     0.183 C 
HETATM   12  O   UNL     1      67.626   5.510   6.020  1.00  0.00    -0.389 OA
HETATM   13  C   UNL     1      66.317   5.290   6.571  1.00  0.00     0.183 C 
HETATM   14  C   UNL     1      65.242   5.456   5.492  1.00  0.00     0.134 C 
ENDBRANCH   1   9
TORSDOF 2
ENDMDL
MODEL 3
REMARK VINA RESULT:      -4.5      1.734      2.573
REMARK  2 active torsions:
REMARK  status: ('A' for Active; 'I' for Inactive)
REMARK    1  A    between atoms: S_1  and  C_2 
REMARK    2  A    between atoms: S_1  and  N_3 
ROOT
HETATM    1  S   UNL     1      64.401   7.300   5.077  1.00  0.00     0.250 S 
HETATM    2  O   UNL     1      65.283   7.046   3.957  1.00  0.00    -0.205 OA
HETATM    3  O   UNL     1      63.394   6.335   5.459  1.00  0.00    -0.205 OA
ENDROOT
BRANCH   1   4
HETATM    4  C   UNL     1      63.470   8.749   4.625  1.00  0.00     0.115 A 
HETATM    5  S   UNL     1      62.665   8.704   3.116  1.00  0.00    -0.089 SA
HETATM    6  C   UNL     1      61.997  10.263   3.353  1.00  0.00     0.051 A 
HETATM    7  C   UNL     1      62.387  10.816   4.552  1.00  0.00     0.009 A 
HETATM    8  C   UNL     1      63.239   9.941   5.287  1.00  0.00     0.033 A 
ENDBRANCH   1   4
BRANCH   1   9
HETATM    9  N   UNL     1      65.361   7.659   6.443  1.00  0.00    -0.202 NA
HETATM   10  C   UNL     1      65.474   6.583   7.473  1.00  0.00     0.134 C 
HETATM   11  C   UNL     1      66.482   5.503   7.045  1.00  0.00     0.183 C 
HETATM   12  O   UNL     1      67.767   6.068   6.740  1.00  0.00    -0.389 OA
HETATM   13  C   UNL     1      67.671   7.065   5.710  1.00  0.00     0.183 C 
HETATM   14  C   UNL     1      66.728   8.194   6.137  1.00  0.00     0.134 C 
ENDBRANCH   1   9
TORSDOF 2
ENDMDL
MODEL 4
REMARK VINA RESULT:      -4.4      1.929      5.222
REMARK  2 active torsions:
REMARK  status: ('A' for Active; 'I' for Inactive)
REMARK    1  A    between atoms: S_1  and  C_2 
REMARK    2  A    between atoms: S_1  and  N_3 
ROOT
HETATM    1  S   UNL     1      64.061   8.257   5.560  1.00  0.00     0.250 S 
HETATM    2  O   UNL     1      64.258   9.689   5.473  1.00  0.00    -0.205 OA
HETATM    3  O   UNL     1      63.268   7.682   6.625  1.00  0.00    -0.205 OA
ENDROOT
BRANCH   1   4
HETATM    4  C   UNL     1      65.686   7.572   5.807  1.00  0.00     0.115 A 
HETATM    5  S   UNL     1      65.935   6.686   7.249  1.00  0.00    -0.089 SA
HETATM    6  C   UNL     1      67.552   6.319   6.821  1.00  0.00     0.051 A 
HETATM    7  C   UNL     1      67.903   6.869   5.608  1.00  0.00     0.009 A 
HETATM    8  C   UNL     1      66.825   7.594   5.022  1.00  0.00     0.033 A 
ENDBRANCH   1   4
BRANCH   1   9
HETATM    9  N   UNL     1      63.447   7.710   4.064  1.00  0.00    -0.202 NA
HETATM   10  C   UNL     1      62.504   6.552   4.119  1.00  0.00     0.134 C 
HETATM   11  C   UNL     1      61.093   6.999   4.538  1.00  0.00     0.183 C 
HETATM   12  O   UNL     1      60.591   8.039   3.683  1.00  0.00    -0.389 OA
HETATM   13  C   UNL     1      61.467   9.177   3.670  1.00  0.00     0.183 C 
HETATM   14  C   UNL     1      62.865   8.777   3.187  1.00  0.00     0.134 C 
ENDBRANCH   1   9
TORSDOF 2
ENDMDL
MODEL 5
REMARK VINA RESULT:      -4.3      2.445      5.593
REMARK  2 active torsions:
REMARK  status: ('A' for Active; 'I' for Inactive)
REMARK    1  A    between atoms: S_1  and  C_2 
REMARK    2  A    between atoms: S_1  and  N_3 
ROOT
HETATM    1  S   UNL     1      65.620   7.759   5.973  1.00  0.00     0.250 S 
HETATM    2  O   UNL     1      65.909   7.253   4.647  1.00  0.00    -0.205 OA
HETATM    3  O   UNL     1      65.962   9.117   6.338  1.00  0.00    -0.205 OA
ENDROOT
BRANCH   1   4
HETATM    4  C   UNL     1      66.582   6.752   7.082  1.00  0.00     0.115 A 
HETATM    5  S   UNL     1      67.355   5.385   6.404  1.00  0.00    -0.089 SA
HETATM    6  C   UNL     1      68.072   4.966   7.902  1.00  0.00     0.051 A 
HETATM    7  C   UNL     1      67.721   5.842   8.906  1.00  0.00     0.009 A 
HETATM    8  C   UNL     1      66.860   6.873   8.432  1.00  0.00     0.033 A 
ENDBRANCH   1   4
BRANCH   1   9
HETATM    9  N   UNL     1      63.961   7.508   6.291  1.00  0.00    -0.202 NA
HETATM   10  C   UNL     1      63.002   8.317   5.479  1.00  0.00     0.134 C 
HETATM   11  C   UNL     1      62.825   7.725   4.070  1.00  0.00     0.183 C 
HETATM   12  O   UNL     1      62.428   6.345   4.121  1.00  0.00    -0.389 OA
HETATM   13  C   UNL     1      63.377   5.553   4.855  1.00  0.00     0.183 C 
HETATM   14  C   UNL     1      63.523   6.075   6.288  1.00  0.00     0.134 C 
ENDBRANCH   1   9
TORSDOF 2
ENDMDL
MODEL 6
REMARK VINA RESULT:      -4.1      1.630      2.077
REMARK  2 active torsions:
REMARK  status: ('A' for Active; 'I' for Inactive)
REMARK    1  A    between atoms: S_1  and  C_2 
REMARK    2  A    between atoms: S_1  and  N_3 
ROOT
HETATM    1  S   UNL     1      62.888   7.624   4.003  1.00  0.00     0.250 S 
HETATM    2  O   UNL     1      62.414   6.584   3.114  1.00  0.00    -0.205 OA
HETATM    3  O   UNL     1      62.384   7.728   5.356  1.00  0.00    -0.205 OA
ENDROOT
BRANCH   1   4
HETATM    4  C   UNL     1      62.404   9.157   3.237  1.00  0.00     0.115 A 
HETATM    5  S   UNL     1      62.251  10.515   4.266  1.00  0.00    -0.089 SA
HETATM    6  C   UNL     1      61.849  11.543   2.957  1.00  0.00     0.051 A 
HETATM    7  C   UNL     1      61.819  10.866   1.758  1.00  0.00     0.009 A 
HETATM    8  C   UNL     1      62.139   9.487   1.920  1.00  0.00     0.033 A 
ENDBRANCH   1   4
BRANCH   1   9
HETATM    9  N   UNL     1      64.592   7.544   4.059  1.00  0.00    -0.202 NA
HETATM   10  C   UNL     1      65.238   8.043   5.310  1.00  0.00     0.134 C 
HETATM   11  C   UNL     1      65.150   7.003   6.440  1.00  0.00     0.183 C 
HETATM   12  O   UNL     1      65.701   5.738   6.039  1.00  0.00    -0.389 OA
HETATM   13  C   UNL     1      65.045   5.227   4.867  1.00  0.00     0.183 C 
HETATM   14  C   UNL     1      65.179   6.211   3.701  1.00  0.00     0.134 C 
ENDBRANCH   1   9
TORSDOF 2
ENDMDL
MODEL 7
REMARK VINA RESULT:      -4.0      1.851      2.376
REMARK  2 active torsions:
REMARK  status: ('A' for Active; 'I' for Inactive)
REMARK    1  A    between atoms: S_1  and  C_2 
REMARK    2  A    between atoms: S_1  and  N_3 
ROOT
HETATM    1  S   UNL     1      65.392   7.354   4.680  1.00  0.00     0.250 S 
HETATM    2  O   UNL     1      66.218   8.427   5.193  1.00  0.00    -0.205 OA
HETATM    3  O   UNL     1      65.838   6.546   3.565  1.00  0.00    -0.205 OA
ENDROOT
BRANCH   1   4
HETATM    4  C   UNL     1      63.911   8.142   4.085  1.00  0.00     0.115 A 
HETATM    5  S   UNL     1      63.279   9.412   5.042  1.00  0.00    -0.089 SA
HETATM    6  C   UNL     1      62.008   9.702   3.932  1.00  0.00     0.051 A 
HETATM    7  C   UNL     1      62.053   8.842   2.857  1.00  0.00     0.009 A 
HETATM    8  C   UNL     1      63.153   7.940   2.946  1.00  0.00     0.033 A 
ENDBRANCH   1   4
BRANCH   1   9
HETATM    9  N   UNL     1      64.991   6.321   5.978  1.00  0.00    -0.202 NA
HETATM   10  C   UNL     1      65.345   4.879   5.812  1.00  0.00     0.134 C 
HETATM   11  C   UNL     1      66.841   4.637   6.078  1.00  0.00     0.183 C 
HETATM   12  O   UNL     1      67.234   5.123   7.372  1.00  0.00    -0.389 OA
HETATM   13  C   UNL     1      66.945   6.523   7.516  1.00  0.00     0.183 C 
HETATM   14  C   UNL     1      65.448   6.788   7.328  1.00  0.00     0.134 C 
ENDBRANCH   1   9
TORSDOF 2
ENDMDL
MODEL 8
REMARK VINA RESULT:      -3.7      3.353      4.017
REMARK  2 active torsions:
REMARK  status: ('A' for Active; 'I' for Inactive)
REMARK    1  A    between atoms: S_1  and  C_2 
REMARK    2  A    between atoms: S_1  and  N_3 
ROOT
HETATM    1  S   UNL     1      62.540   6.485   6.134  1.00  0.00     0.250 S 
HETATM    2  O   UNL     1      63.107   5.207   6.511  1.00  0.00    -0.205 OA
HETATM    3  O   UNL     1      62.555   7.602   7.054  1.00  0.00    -0.205 OA
ENDROOT
BRANCH   1   4
HETATM    4  C   UNL     1      60.809   6.170   5.857  1.00  0.00     0.115 A 
HETATM    5  S   UNL     1      59.877   5.749   7.229  1.00  0.00    -0.089 SA
HETATM    6  C   UNL     1      58.439   5.654   6.302  1.00  0.00     0.051 A 
HETATM    7  C   UNL     1      58.664   5.925   4.971  1.00  0.00     0.009 A 
HETATM    8  C   UNL     1      60.033   6.222   4.714  1.00  0.00     0.033 A 
ENDBRANCH   1   4
BRANCH   1   9
HETATM    9  N   UNL     1      63.258   6.976   4.665  1.00  0.00    -0.202 NA
HETATM   10  C   UNL     1      63.157   8.429   4.333  1.00  0.00     0.134 C 
HETATM   11  C   UNL     1      64.191   9.256   5.117  1.00  0.00     0.183 C 
HETATM   12  O   UNL     1      65.526   8.766   4.913  1.00  0.00    -0.389 OA
HETATM   13  C   UNL     1      65.641   7.383   5.284  1.00  0.00     0.183 C 
HETATM   14  C   UNL     1      64.673   6.522   4.466  1.00  0.00     0.134 C 
ENDBRANCH   1   9
TORSDOF 2
ENDMDL
MODEL 9
REMARK VINA RESULT:      -3.6      2.541      5.376
REMARK  2 active torsions:
REMARK  status: ('A' for Active; 'I' for Inactive)
REMARK    1  A    between atoms: S_1  and  C_2 
REMARK    2  A    between atoms: S_1  and  N_3 
ROOT
HETATM    1  S   UNL     1      63.280   6.862   4.030  1.00  0.00     0.250 S 
HETATM    2  O   UNL     1      62.639   5.672   4.550  1.00  0.00    -0.205 OA
HETATM    3  O   UNL     1      63.937   6.846   2.741  1.00  0.00    -0.205 OA
ENDROOT
BRANCH   1   4
HETATM    4  C   UNL     1      64.585   7.236   5.182  1.00  0.00     0.115 A 
HETATM    5  S   UNL     1      64.699   6.234   6.564  1.00  0.00    -0.089 SA
HETATM    6  C   UNL     1      66.081   7.070   7.135  1.00  0.00     0.051 A 
HETATM    7  C   UNL     1      66.444   8.101   6.298  1.00  0.00     0.009 A 
HETATM    8  C   UNL     1      65.580   8.197   5.169  1.00  0.00     0.033 A 
ENDBRANCH   1   4
BRANCH   1   9
HETATM    9  N   UNL     1      62.141   8.134   4.048  1.00  0.00    -0.202 NA
HETATM   10  C   UNL     1      62.479   9.336   3.228  1.00  0.00     0.134 C 
HETATM   11  C   UNL     1      62.190   9.095   1.736  1.00  0.00     0.183 C 
HETATM   12  O   UNL     1      60.832   8.683   1.519  1.00  0.00    -0.389 OA
HETATM   13  C   UNL     1      60.518   7.494   2.263  1.00  0.00     0.183 C 
HETATM   14  C   UNL     1      60.727   7.726   3.763  1.00  0.00     0.134 C 
ENDBRANCH   1   9
TORSDOF 2
ENDMDL
