MODEL 1
REMARK VINA RESULT:      -4.2      0.000      0.000
REMARK  2 active torsions:
REMARK  status: ('A' for Active; 'I' for Inactive)
REMARK    1  A    between atoms: C_3  and  N_5 
REMARK    2  A    between atoms: C_4  and  O_6 
ROOT
HETATM    1  N   UNL     1      63.839   9.567   5.365  1.00  0.00    -0.324 N 
ATOM      2  HN  UNL     1      64.532   9.273   6.054  1.00  0.00     0.169 HD
HETATM    3  C   UNL     1      63.229  10.758   5.450  1.00  0.00     0.100 A 
HETATM    4  C   UNL     1      63.496   8.771   4.328  1.00  0.00     0.143 A 
HETATM    5  C   UNL     1      61.952  10.360   3.464  1.00  0.00     0.008 A 
HETATM    6  C   UNL     1      62.291  11.196   4.524  1.00  0.00     0.048 A 
HETATM    7  C   UNL     1      62.566   9.118   3.362  1.00  0.00     0.056 A 
ENDROOT
BRANCH   3   8
HETATM    8  N   UNL     1      63.608  11.572   6.515  1.00  0.00    -0.385 N 
HETATM    9  H   UNL     1      63.865  11.168   7.375  1.00  0.00     0.157 HD
HETATM   10  H   UNL     1      63.618  12.550   6.407  1.00  0.00     0.157 HD
ENDBRANCH   3   8
BRANCH   4  11
HETATM   11  O   UNL     1      64.080   7.525   4.198  1.00  0.00    -0.341 OA
HETATM   12  C   UNL     1      65.387   7.469   4.761  1.00  0.00     0.211 C 
ENDBRANCH   4  11
TORSDOF 2
ENDMDL
MODEL 2
REMARK VINA RESULT:      -3.9      2.408      3.593
REMARK  2 active torsions:
REMARK  status: ('A' for Active; 'I' for Inactive)
REMARK    1  A    between atoms: C_3  and  N_5 
REMARK    2  A    between atoms: C_4  and  O_6 
ROOT
HETATM    1  N   UNL     1      62.654   9.341   3.960  1.00  0.00    -0.324 N 
ATOM      2  HN  UNL     1      62.918   9.119   4.920  1.00  0.00     0.169 HD
HETATM    3  C   UNL     1      62.754   8.432   2.979  1.00  0.00     0.100 A 
HETATM    4  C   UNL     1      62.189  10.564   3.621  1.00  0.00     0.143 A 
HETATM    5  C   UNL     1      61.917   9.960   1.337  1.00  0.00     0.008 A 
HETATM    6  C   UNL     1      62.393   8.694   1.664  1.00  0.00     0.048 A 
HETATM    7  C   UNL     1      61.813  10.919   2.337  1.00  0.00     0.056 A 
ENDROOT
BRANCH   3   8
HETATM    8  N   UNL     1      63.218   7.172   3.349  1.00  0.00    -0.385 N 
HETATM    9  H   UNL     1      62.850   6.726   4.145  1.00  0.00     0.157 HD
HETATM   10  H   UNL     1      63.914   6.727   2.814  1.00  0.00     0.157 HD
ENDBRANCH   3   8
BRANCH   4  11
HETATM   11  O   UNL     1      62.079  11.547   4.587  1.00  0.00    -0.341 OA
HETATM   12  C   UNL     1      62.877  11.279   5.736  1.00  0.00     0.211 C 
ENDBRANCH   4  11
TORSDOF 2
ENDMDL
MODEL 3
REMARK VINA RESULT:      -3.9      2.252      3.426
REMARK  2 active torsions:
REMARK  status: ('A' for Active; 'I' for Inactive)
REMARK    1  A    between atoms: C_3  and  N_5 
REMARK    2  A    between atoms: C_4  and  O_6 
ROOT
HETATM    1  N   UNL     1      62.589   9.896   4.879  1.00  0.00    -0.324 N 
ATOM      2  HN  UNL     1      62.620  10.542   5.668  1.00  0.00     0.169 HD
HETATM    3  C   UNL     1      62.907   8.601   5.023  1.00  0.00     0.100 A 
HETATM    4  C   UNL     1      62.227  10.308   3.644  1.00  0.00     0.143 A 
HETATM    5  C   UNL     1      62.488   8.136   2.711  1.00  0.00     0.008 A 
HETATM    6  C   UNL     1      62.864   7.690   3.975  1.00  0.00     0.048 A 
HETATM    7  C   UNL     1      62.163   9.476   2.539  1.00  0.00     0.056 A 
ENDROOT
BRANCH   3   8
HETATM    8  N   UNL     1      63.261   8.190   6.306  1.00  0.00    -0.385 N 
HETATM    9  H   UNL     1      62.563   7.943   6.953  1.00  0.00     0.157 HD
HETATM   10  H   UNL     1      64.210   8.146   6.563  1.00  0.00     0.157 HD
ENDBRANCH   3   8
BRANCH   4  11
HETATM   11  O   UNL     1      61.903  11.635   3.432  1.00  0.00    -0.341 OA
HETATM   12  C   UNL     1      61.712  11.941   2.055  1.00  0.00     0.211 C 
ENDBRANCH   4  11
TORSDOF 2
ENDMDL
MODEL 4
REMARK VINA RESULT:      -3.8      3.115      5.361
REMARK  2 active torsions:
REMARK  status: ('A' for Active; 'I' for Inactive)
REMARK    1  A    between atoms: C_3  and  N_5 
REMARK    2  A    between atoms: C_4  and  O_6 
ROOT
HETATM    1  N   UNL     1      65.700   7.214   7.211  1.00  0.00    -0.324 N 
ATOM      2  HN  UNL     1      64.921   7.461   7.822  1.00  0.00     0.169 HD
HETATM    3  C   UNL     1      66.435   6.113   7.425  1.00  0.00     0.100 A 
HETATM    4  C   UNL     1      66.035   7.982   6.151  1.00  0.00     0.143 A 
HETATM    5  C   UNL     1      67.821   6.544   5.521  1.00  0.00     0.008 A 
HETATM    6  C   UNL     1      67.493   5.739   6.608  1.00  0.00     0.048 A 
HETATM    7  C   UNL     1      67.078   7.694   5.286  1.00  0.00     0.056 A 
ENDROOT
BRANCH   3   8
HETATM    8  N   UNL     1      66.064   5.325   8.512  1.00  0.00    -0.385 N 
HETATM    9  H   UNL     1      65.374   4.632   8.404  1.00  0.00     0.157 HD
HETATM   10  H   UNL     1      66.493   5.460   9.387  1.00  0.00     0.157 HD
ENDBRANCH   3   8
BRANCH   4  11
HETATM   11  O   UNL     1      65.323   9.138   5.889  1.00  0.00    -0.341 OA
HETATM   12  C   UNL     1      64.200   8.911   5.044  1.00  0.00     0.211 C 
ENDBRANCH   4  11
TORSDOF 2
ENDMDL
MODEL 5
REMARK VINA RESULT:      -3.8      1.942      2.926
REMARK  2 active torsions:
REMARK  status: ('A' for Active; 'I' for Inactive)
REMARK    1  A    between atoms: C_3  and  N_5 
REMARK    2  A    between atoms: C_4  and  O_6 
ROOT
HETATM    1  N   UNL     1      62.308  10.639   4.003  1.00  0.00    -0.324 N 
ATOM      2  HN  UNL     1      61.806  11.525   3.952  1.00  0.00     0.169 HD
HETATM    3  C   UNL     1      63.091  10.338   5.049  1.00  0.00     0.100 A 
HETATM    4  C   UNL     1      62.213   9.717   3.019  1.00  0.00     0.143 A 
HETATM    5  C   UNL     1      63.667   8.202   4.134  1.00  0.00     0.008 A 
HETATM    6  C   UNL     1      63.779   9.137   5.159  1.00  0.00     0.048 A 
HETATM    7  C   UNL     1      62.868   8.498   3.037  1.00  0.00     0.056 A 
ENDROOT
BRANCH   3   8
HETATM    8  N   UNL     1      63.163  11.292   6.062  1.00  0.00    -0.385 N 
HETATM    9  H   UNL     1      63.201  12.248   5.834  1.00  0.00     0.157 HD
HETATM   10  H   UNL     1      63.176  11.008   7.004  1.00  0.00     0.157 HD
ENDBRANCH   3   8
BRANCH   4  11
HETATM   11  O   UNL     1      61.433   9.979   1.908  1.00  0.00    -0.341 OA
HETATM   12  C   UNL     1      61.128   8.804   1.162  1.00  0.00     0.211 C 
ENDBRANCH   4  11
TORSDOF 2
ENDMDL
MODEL 6
REMARK VINA RESULT:      -3.7      1.979      2.803
REMARK  2 active torsions:
REMARK  status: ('A' for Active; 'I' for Inactive)
REMARK    1  A    between atoms: C_3  and  N_5 
REMARK    2  A    between atoms: C_4  and  O_6 
ROOT
HETATM    1  N   UNL     1      62.854   8.879   3.553  1.00  0.00    -0.324 N 
ATOM      2  HN  UNL     1      63.111   7.931   3.277  1.00  0.00     0.169 HD
HETATM    3  C   UNL     1      62.246   9.714   2.698  1.00  0.00     0.100 A 
HETATM    4  C   UNL     1      63.113   9.346   4.794  1.00  0.00     0.143 A 
HETATM    5  C   UNL     1      62.147  11.468   4.326  1.00  0.00     0.008 A 
HETATM    6  C   UNL     1      61.871  11.007   3.042  1.00  0.00     0.048 A 
HETATM    7  C   UNL     1      62.785  10.621   5.223  1.00  0.00     0.056 A 
ENDROOT
BRANCH   3   8
HETATM    8  N   UNL     1      61.971   9.210   1.430  1.00  0.00    -0.385 N 
HETATM    9  H   UNL     1      62.092   9.781   0.637  1.00  0.00     0.157 HD
HETATM   10  H   UNL     1      61.658   8.283   1.326  1.00  0.00     0.157 HD
ENDBRANCH   3   8
BRANCH   4  11
HETATM   11  O   UNL     1      63.753   8.535   5.712  1.00  0.00    -0.341 OA
HETATM   12  C   UNL     1      62.939   7.450   6.147  1.00  0.00     0.211 C 
ENDBRANCH   4  11
TORSDOF 2
ENDMDL
MODEL 7
REMARK VINA RESULT:      -3.7      1.989      2.648
REMARK  2 active torsions:
REMARK  status: ('A' for Active; 'I' for Inactive)
REMARK    1  A    between atoms: C_3  and  N_5 
REMARK    2  A    between atoms: C_4  and  O_6 
ROOT
HETATM    1  N   UNL     1      62.784   8.843   3.592  1.00  0.00    -0.324 N 
ATOM      2  HN  UNL     1      63.167   7.972   3.961  1.00  0.00     0.169 HD
HETATM    3  C   UNL     1      62.619   9.920   4.374  1.00  0.00     0.100 A 
HETATM    4  C   UNL     1      62.422   8.961   2.296  1.00  0.00     0.143 A 
HETATM    5  C   UNL     1      61.747  11.225   2.566  1.00  0.00     0.008 A 
HETATM    6  C   UNL     1      62.114  11.125   3.905  1.00  0.00     0.048 A 
HETATM    7  C   UNL     1      61.902  10.118   1.741  1.00  0.00     0.056 A 
ENDROOT
BRANCH   3   8
HETATM    8  N   UNL     1      63.015   9.786   5.703  1.00  0.00    -0.385 N 
HETATM    9  H   UNL     1      63.849   9.312   5.922  1.00  0.00     0.157 HD
HETATM   10  H   UNL     1      62.460  10.165   6.422  1.00  0.00     0.157 HD
ENDBRANCH   3   8
BRANCH   4  11
HETATM   11  O   UNL     1      62.554   7.879   1.446  1.00  0.00    -0.341 OA
HETATM   12  C   UNL     1      61.299   7.332   1.053  1.00  0.00     0.211 C 
ENDBRANCH   4  11
TORSDOF 2
ENDMDL
MODEL 8
REMARK VINA RESULT:      -3.7      2.213      2.853
REMARK  2 active torsions:
REMARK  status: ('A' for Active; 'I' for Inactive)
REMARK    1  A    between atoms: C_3  and  N_5 
REMARK    2  A    between atoms: C_4  and  O_6 
ROOT
HETATM    1  N   UNL     1      62.413   9.901   3.458  1.00  0.00    -0.324 N 
ATOM      2  HN  UNL     1      62.432  10.551   4.244  1.00  0.00     0.169 HD
HETATM    3  C   UNL     1      61.957  10.275   2.253  1.00  0.00     0.100 A 
HETATM    4  C   UNL     1      62.847   8.628   3.586  1.00  0.00     0.143 A 
HETATM    5  C   UNL     1      62.380   8.114   1.311  1.00  0.00     0.008 A 
HETATM    6  C   UNL     1      61.929   9.422   1.157  1.00  0.00     0.048 A 
HETATM    7  C   UNL     1      62.849   7.705   2.553  1.00  0.00     0.056 A 
ENDROOT
BRANCH   3   8
HETATM    8  N   UNL     1      61.530  11.595   2.135  1.00  0.00    -0.385 N 
HETATM    9  H   UNL     1      61.025  12.015   2.867  1.00  0.00     0.157 HD
HETATM   10  H   UNL     1      61.736  12.107   1.320  1.00  0.00     0.157 HD
ENDBRANCH   3   8
BRANCH   4  11
HETATM   11  O   UNL     1      63.313   8.182   4.808  1.00  0.00    -0.341 OA
HETATM   12  C   UNL     1      64.597   8.709   5.131  1.00  0.00     0.211 C 
ENDBRANCH   4  11
TORSDOF 2
ENDMDL
MODEL 9
REMARK VINA RESULT:      -3.4     12.513     13.043
REMARK  2 active torsions:
REMARK  status: ('A' for Active; 'I' for Inactive)
REMARK    1  A    between atoms: C_3  and  N_5 
REMARK    2  A    between atoms: C_4  and  O_6 
ROOT
HETATM    1  N   UNL     1      56.632   1.897  13.014  1.00  0.00    -0.324 N 
ATOM      2  HN  UNL     1      55.659   2.138  12.820  1.00  0.00     0.169 HD
HETATM    3  C   UNL     1      56.958   1.051  14.002  1.00  0.00     0.100 A 
HETATM    4  C   UNL     1      57.645   2.416  12.286  1.00  0.00     0.143 A 
HETATM    5  C   UNL     1      59.297   1.237  13.525  1.00  0.00     0.008 A 
HETATM    6  C   UNL     1      58.268   0.690  14.287  1.00  0.00     0.048 A 
HETATM    7  C   UNL     1      58.981   2.121  12.502  1.00  0.00     0.056 A 
ENDROOT
BRANCH   3   8
HETATM    8  N   UNL     1      55.900   0.513  14.730  1.00  0.00    -0.385 N 
HETATM    9  H   UNL     1      55.088   1.046  14.885  1.00  0.00     0.157 HD
HETATM   10  H   UNL     1      55.964  -0.402  15.089  1.00  0.00     0.157 HD
ENDBRANCH   3   8
BRANCH   4  11
HETATM   11  O   UNL     1      57.370   3.305  11.265  1.00  0.00    -0.341 OA
HETATM   12  C   UNL     1      58.394   3.339  10.275  1.00  0.00     0.211 C 
ENDBRANCH   4  11
TORSDOF 2
ENDMDL
