MODEL 1
REMARK VINA RESULT:      -5.3      0.000      0.000
REMARK  2 active torsions:
REMARK  status: ('A' for Active; 'I' for Inactive)
REMARK    1  A    between atoms: C_4  and  N_15 
REMARK    2  A    between atoms: C_5  and  C_8 
ROOT
HETATM    1  C   UNL     1      62.849  10.003   4.440  1.00  0.00     0.046 A 
HETATM    2  N   UNL     1      62.045  12.130   4.586  1.00  0.00    -0.244 N 
ATOM      3  HN  UNL     1      61.827  13.066   4.929  1.00  0.00     0.196 HD
HETATM    4  C   UNL     1      62.747  11.186   5.217  1.00  0.00     0.132 A 
HETATM    5  C   UNL     1      63.432   8.728   4.563  1.00  0.00     0.034 A 
HETATM    6  O   UNL     1      61.674  11.577   3.370  1.00  0.00    -0.235 OA
HETATM    7  C   UNL     1      63.296   7.806   3.505  1.00  0.00     0.049 A 
HETATM    8  C   UNL     1      62.157  10.309   3.283  1.00  0.00     0.113 A 
HETATM    9  C   UNL     1      62.582   8.171   2.347  1.00  0.00     0.019 A 
HETATM   10  C   UNL     1      61.994   9.436   2.212  1.00  0.00     0.041 A 
ENDROOT
BRANCH   7  11
HETATM   11  C   UNL     1      63.911   6.428   3.606  1.00  0.00     0.417 C 
HETATM   12  F   UNL     1      64.763   6.140   2.584  1.00  0.00    -0.166 F 
HETATM   13  F   UNL     1      64.630   6.264   4.751  1.00  0.00    -0.166 F 
HETATM   14  F   UNL     1      62.976   5.439   3.604  1.00  0.00    -0.166 F 
ENDBRANCH   7  11
BRANCH   4  15
HETATM   15  N   UNL     1      63.297  11.332   6.435  1.00  0.00    -0.383 N 
HETATM   16  H   UNL     1      63.560  10.538   6.954  1.00  0.00     0.157 HD
HETATM   17  H   UNL     1      63.436  12.233   6.807  1.00  0.00     0.157 HD
ENDBRANCH   4  15
TORSDOF 2
ENDMDL
MODEL 2
REMARK VINA RESULT:      -5.2      3.803      4.622
REMARK  2 active torsions:
REMARK  status: ('A' for Active; 'I' for Inactive)
REMARK    1  A    between atoms: C_4  and  N_15 
REMARK    2  A    between atoms: C_5  and  C_8 
ROOT
HETATM    1  C   UNL     1      65.189   8.083   5.120  1.00  0.00     0.046 A 
HETATM    2  N   UNL     1      66.897   6.646   5.582  1.00  0.00    -0.244 N 
ATOM      3  HN  UNL     1      67.721   6.219   6.006  1.00  0.00     0.196 HD
HETATM    4  C   UNL     1      66.316   7.795   5.934  1.00  0.00     0.132 A 
HETATM    5  C   UNL     1      64.221   9.098   5.010  1.00  0.00     0.034 A 
HETATM    6  O   UNL     1      66.151   6.153   4.522  1.00  0.00    -0.235 OA
HETATM    7  C   UNL     1      63.223   8.989   4.019  1.00  0.00     0.049 A 
HETATM    8  C   UNL     1      65.131   7.010   4.249  1.00  0.00     0.113 A 
HETATM    9  C   UNL     1      63.209   7.874   3.160  1.00  0.00     0.019 A 
HETATM   10  C   UNL     1      64.168   6.856   3.256  1.00  0.00     0.041 A 
ENDROOT
BRANCH   7  11
HETATM   11  C   UNL     1      62.169  10.063   3.875  1.00  0.00     0.417 C 
HETATM   12  F   UNL     1      62.221  11.007   4.855  1.00  0.00    -0.166 F 
HETATM   13  F   UNL     1      62.274  10.740   2.698  1.00  0.00    -0.166 F 
HETATM   14  F   UNL     1      60.904   9.560   3.907  1.00  0.00    -0.166 F 
ENDBRANCH   7  11
BRANCH   4  15
HETATM   15  N   UNL     1      66.735   8.585   6.937  1.00  0.00    -0.383 N 
HETATM   16  H   UNL     1      67.555   9.120   6.832  1.00  0.00     0.157 HD
HETATM   17  H   UNL     1      66.223   8.627   7.777  1.00  0.00     0.157 HD
ENDBRANCH   4  15
TORSDOF 2
ENDMDL
MODEL 3
REMARK VINA RESULT:      -5.1      3.586      4.542
REMARK  2 active torsions:
REMARK  status: ('A' for Active; 'I' for Inactive)
REMARK    1  A    between atoms: C_4  and  N_15 
REMARK    2  A    between atoms: C_5  and  C_8 
ROOT
HETATM    1  C   UNL     1      63.573   7.539   4.214  1.00  0.00     0.046 A 
HETATM    2  N   UNL     1      64.476   6.551   6.058  1.00  0.00    -0.244 N 
ATOM      3  HN  UNL     1      64.929   5.879   6.678  1.00  0.00     0.196 HD
HETATM    4  C   UNL     1      64.220   6.399   4.757  1.00  0.00     0.132 A 
HETATM    5  C   UNL     1      63.074   7.953   2.965  1.00  0.00     0.034 A 
HETATM    6  O   UNL     1      63.999   7.809   6.394  1.00  0.00    -0.235 OA
HETATM    7  C   UNL     1      62.481   9.227   2.851  1.00  0.00     0.049 A 
HETATM    8  C   UNL     1      63.463   8.398   5.292  1.00  0.00     0.113 A 
HETATM    9  C   UNL     1      62.396  10.063   3.981  1.00  0.00     0.019 A 
HETATM   10  C   UNL     1      62.887   9.664   5.232  1.00  0.00     0.041 A 
ENDROOT
BRANCH   7  11
HETATM   11  C   UNL     1      61.935   9.701   1.523  1.00  0.00     0.417 C 
HETATM   12  F   UNL     1      60.668   9.266   1.272  1.00  0.00    -0.166 F 
HETATM   13  F   UNL     1      61.888  11.058   1.435  1.00  0.00    -0.166 F 
HETATM   14  F   UNL     1      62.689   9.281   0.471  1.00  0.00    -0.166 F 
ENDBRANCH   7  11
BRANCH   4  15
HETATM   15  N   UNL     1      64.538   5.307   4.041  1.00  0.00    -0.383 N 
HETATM   16  H   UNL     1      64.180   5.194   3.131  1.00  0.00     0.157 HD
HETATM   17  H   UNL     1      65.130   4.622   4.427  1.00  0.00     0.157 HD
ENDBRANCH   4  15
TORSDOF 2
ENDMDL
MODEL 4
REMARK VINA RESULT:      -5.1      1.817      2.444
REMARK  2 active torsions:
REMARK  status: ('A' for Active; 'I' for Inactive)
REMARK    1  A    between atoms: C_4  and  N_15 
REMARK    2  A    between atoms: C_5  and  C_8 
ROOT
HETATM    1  C   UNL     1      62.945   9.633   4.109  1.00  0.00     0.046 A 
HETATM    2  N   UNL     1      61.442  10.676   2.752  1.00  0.00    -0.244 N 
ATOM      3  HN  UNL     1      60.801  11.367   2.359  1.00  0.00     0.196 HD
HETATM    4  C   UNL     1      62.169  10.795   3.865  1.00  0.00     0.132 A 
HETATM    5  C   UNL     1      63.862   9.183   5.077  1.00  0.00     0.034 A 
HETATM    6  O   UNL     1      61.736   9.421   2.240  1.00  0.00    -0.235 OA
HETATM    7  C   UNL     1      64.436   7.902   4.935  1.00  0.00     0.049 A 
HETATM    8  C   UNL     1      62.634   8.802   3.049  1.00  0.00     0.113 A 
HETATM    9  C   UNL     1      64.085   7.097   3.834  1.00  0.00     0.019 A 
HETATM   10  C   UNL     1      63.172   7.531   2.864  1.00  0.00     0.041 A 
ENDROOT
BRANCH   7  11
HETATM   11  C   UNL     1      65.424   7.389   5.958  1.00  0.00     0.417 C 
HETATM   12  F   UNL     1      66.175   6.345   5.510  1.00  0.00    -0.166 F 
HETATM   13  F   UNL     1      66.310   8.346   6.350  1.00  0.00    -0.166 F 
HETATM   14  F   UNL     1      64.816   6.951   7.095  1.00  0.00    -0.166 F 
ENDBRANCH   7  11
BRANCH   4  15
HETATM   15  N   UNL     1      62.174  11.880   4.658  1.00  0.00    -0.383 N 
HETATM   16  H   UNL     1      63.025  12.231   5.006  1.00  0.00     0.157 HD
HETATM   17  H   UNL     1      61.326  12.323   4.890  1.00  0.00     0.157 HD
ENDBRANCH   4  15
TORSDOF 2
ENDMDL
MODEL 5
REMARK VINA RESULT:      -5.0      2.982      3.792
REMARK  2 active torsions:
REMARK  status: ('A' for Active; 'I' for Inactive)
REMARK    1  A    between atoms: C_4  and  N_15 
REMARK    2  A    between atoms: C_5  and  C_8 
ROOT
HETATM    1  C   UNL     1      63.874   8.329   4.325  1.00  0.00     0.046 A 
HETATM    2  N   UNL     1      65.464   8.729   5.906  1.00  0.00    -0.244 N 
ATOM      3  HN  UNL     1      66.275   8.629   6.518  1.00  0.00     0.196 HD
HETATM    4  C   UNL     1      65.039   7.861   4.986  1.00  0.00     0.132 A 
HETATM    5  C   UNL     1      63.005   7.880   3.313  1.00  0.00     0.034 A 
HETATM    6  O   UNL     1      64.577   9.794   5.861  1.00  0.00    -0.235 OA
HETATM    7  C   UNL     1      61.917   8.693   2.932  1.00  0.00     0.049 A 
HETATM    8  C   UNL     1      63.631   9.555   4.915  1.00  0.00     0.113 A 
HETATM    9  C   UNL     1      61.718   9.935   3.565  1.00  0.00     0.019 A 
HETATM   10  C   UNL     1      62.574  10.394   4.575  1.00  0.00     0.041 A 
ENDROOT
BRANCH   7  11
HETATM   11  C   UNL     1      60.965   8.239   1.848  1.00  0.00     0.417 C 
HETATM   12  F   UNL     1      60.777   9.168   0.870  1.00  0.00    -0.166 F 
HETATM   13  F   UNL     1      61.397   7.113   1.217  1.00  0.00    -0.166 F 
HETATM   14  F   UNL     1      59.727   7.949   2.332  1.00  0.00    -0.166 F 
ENDBRANCH   7  11
BRANCH   4  15
HETATM   15  N   UNL     1      65.638   6.690   4.710  1.00  0.00    -0.383 N 
HETATM   16  H   UNL     1      65.772   6.414   3.775  1.00  0.00     0.157 HD
HETATM   17  H   UNL     1      65.942   6.109   5.444  1.00  0.00     0.157 HD
ENDBRANCH   4  15
TORSDOF 2
ENDMDL
MODEL 6
REMARK VINA RESULT:      -4.9      3.375      4.090
REMARK  2 active torsions:
REMARK  status: ('A' for Active; 'I' for Inactive)
REMARK    1  A    between atoms: C_4  and  N_15 
REMARK    2  A    between atoms: C_5  and  C_8 
ROOT
HETATM    1  C   UNL     1      63.271   8.106   4.781  1.00  0.00     0.046 A 
HETATM    2  N   UNL     1      63.887   7.197   6.778  1.00  0.00    -0.244 N 
ATOM      3  HN  UNL     1      64.421   6.954   7.613  1.00  0.00     0.196 HD
HETATM    4  C   UNL     1      64.270   8.001   5.784  1.00  0.00     0.132 A 
HETATM    5  C   UNL     1      63.101   8.769   3.552  1.00  0.00     0.034 A 
HETATM    6  O   UNL     1      62.615   6.758   6.442  1.00  0.00    -0.235 OA
HETATM    7  C   UNL     1      61.895   8.598   2.841  1.00  0.00     0.049 A 
HETATM    8  C   UNL     1      62.248   7.303   5.252  1.00  0.00     0.113 A 
HETATM    9  C   UNL     1      60.884   7.771   3.368  1.00  0.00     0.019 A 
HETATM   10  C   UNL     1      61.041   7.102   4.590  1.00  0.00     0.041 A 
ENDROOT
BRANCH   7  11
HETATM   11  C   UNL     1      61.681   9.298   1.518  1.00  0.00     0.417 C 
HETATM   12  F   UNL     1      60.475   9.022   0.949  1.00  0.00    -0.166 F 
HETATM   13  F   UNL     1      61.741  10.653   1.631  1.00  0.00    -0.166 F 
HETATM   14  F   UNL     1      62.618   8.956   0.591  1.00  0.00    -0.166 F 
ENDBRANCH   7  11
BRANCH   4  15
HETATM   15  N   UNL     1      65.451   8.640   5.734  1.00  0.00    -0.383 N 
HETATM   16  H   UNL     1      66.275   8.137   5.543  1.00  0.00     0.157 HD
HETATM   17  H   UNL     1      65.491   9.612   5.889  1.00  0.00     0.157 HD
ENDBRANCH   4  15
TORSDOF 2
ENDMDL
MODEL 7
REMARK VINA RESULT:      -4.8      1.629      2.715
REMARK  2 active torsions:
REMARK  status: ('A' for Active; 'I' for Inactive)
REMARK    1  A    between atoms: C_4  and  N_15 
REMARK    2  A    between atoms: C_5  and  C_8 
ROOT
HETATM    1  C   UNL     1      63.233   9.092   4.118  1.00  0.00     0.046 A 
HETATM    2  N   UNL     1      62.971  11.003   5.332  1.00  0.00    -0.244 N 
ATOM      3  HN  UNL     1      62.613  11.892   5.681  1.00  0.00     0.196 HD
HETATM    4  C   UNL     1      62.474  10.272   4.332  1.00  0.00     0.132 A 
HETATM    5  C   UNL     1      63.206   7.984   3.251  1.00  0.00     0.034 A 
HETATM    6  O   UNL     1      64.075  10.304   5.800  1.00  0.00    -0.235 OA
HETATM    7  C   UNL     1      64.191   6.983   3.387  1.00  0.00     0.049 A 
HETATM    8  C   UNL     1      64.228   9.164   5.076  1.00  0.00     0.113 A 
HETATM    9  C   UNL     1      65.180   7.105   4.381  1.00  0.00     0.019 A 
HETATM   10  C   UNL     1      65.220   8.204   5.251  1.00  0.00     0.041 A 
ENDROOT
BRANCH   7  11
HETATM   11  C   UNL     1      64.189   5.780   2.470  1.00  0.00     0.417 C 
HETATM   12  F   UNL     1      63.335   4.797   2.868  1.00  0.00    -0.166 F 
HETATM   13  F   UNL     1      63.827   6.099   1.197  1.00  0.00    -0.166 F 
HETATM   14  F   UNL     1      65.415   5.195   2.377  1.00  0.00    -0.166 F 
ENDBRANCH   7  11
BRANCH   4  15
HETATM   15  N   UNL     1      61.387  10.603   3.615  1.00  0.00    -0.383 N 
HETATM   16  H   UNL     1      60.650  11.100   4.038  1.00  0.00     0.157 HD
HETATM   17  H   UNL     1      61.328  10.349   2.665  1.00  0.00     0.157 HD
ENDBRANCH   4  15
TORSDOF 2
ENDMDL
MODEL 8
REMARK VINA RESULT:      -4.8      3.988      4.888
REMARK  2 active torsions:
REMARK  status: ('A' for Active; 'I' for Inactive)
REMARK    1  A    between atoms: C_4  and  N_15 
REMARK    2  A    between atoms: C_5  and  C_8 
ROOT
HETATM    1  C   UNL     1      65.086   7.713   5.896  1.00  0.00     0.046 A 
HETATM    2  N   UNL     1      66.389   6.344   7.169  1.00  0.00    -0.244 N 
ATOM      3  HN  UNL     1      67.192   5.930   7.642  1.00  0.00     0.196 HD
HETATM    4  C   UNL     1      66.385   7.428   6.390  1.00  0.00     0.132 A 
HETATM    5  C   UNL     1      64.479   8.675   5.067  1.00  0.00     0.034 A 
HETATM    6  O   UNL     1      65.076   5.897   7.203  1.00  0.00    -0.235 OA
HETATM    7  C   UNL     1      63.092   8.594   4.825  1.00  0.00     0.049 A 
HETATM    8  C   UNL     1      64.300   6.716   6.445  1.00  0.00     0.113 A 
HETATM    9  C   UNL     1      62.338   7.559   5.412  1.00  0.00     0.019 A 
HETATM   10  C   UNL     1      62.929   6.593   6.238  1.00  0.00     0.041 A 
ENDROOT
BRANCH   7  11
HETATM   11  C   UNL     1      62.410   9.612   3.939  1.00  0.00     0.417 C 
HETATM   12  F   UNL     1      62.793   9.537   2.635  1.00  0.00    -0.166 F 
HETATM   13  F   UNL     1      61.055   9.476   3.939  1.00  0.00    -0.166 F 
HETATM   14  F   UNL     1      62.660  10.892   4.330  1.00  0.00    -0.166 F 
ENDBRANCH   7  11
BRANCH   4  15
HETATM   15  N   UNL     1      67.472   8.166   6.108  1.00  0.00    -0.383 N 
HETATM   16  H   UNL     1      68.236   8.175   6.729  1.00  0.00     0.157 HD
HETATM   17  H   UNL     1      67.504   8.697   5.279  1.00  0.00     0.157 HD
ENDBRANCH   4  15
TORSDOF 2
ENDMDL
MODEL 9
REMARK VINA RESULT:      -4.4      4.040      5.040
REMARK  2 active torsions:
REMARK  status: ('A' for Active; 'I' for Inactive)
REMARK    1  A    between atoms: C_4  and  N_15 
REMARK    2  A    between atoms: C_5  and  C_8 
ROOT
HETATM    1  C   UNL     1      64.717   7.086   6.252  1.00  0.00     0.046 A 
HETATM    2  N   UNL     1      63.700   8.967   5.465  1.00  0.00    -0.244 N 
ATOM      3  HN  UNL     1      62.991   9.638   5.168  1.00  0.00     0.196 HD
HETATM    4  C   UNL     1      63.495   7.738   5.944  1.00  0.00     0.132 A 
HETATM    5  C   UNL     1      65.128   5.840   6.760  1.00  0.00     0.034 A 
HETATM    6  O   UNL     1      65.076   9.145   5.454  1.00  0.00    -0.235 OA
HETATM    7  C   UNL     1      66.506   5.587   6.924  1.00  0.00     0.049 A 
HETATM    8  C   UNL     1      65.680   8.023   5.926  1.00  0.00     0.113 A 
HETATM    9  C   UNL     1      67.445   6.578   6.578  1.00  0.00     0.019 A 
HETATM   10  C   UNL     1      67.050   7.822   6.069  1.00  0.00     0.041 A 
ENDROOT
BRANCH   7  11
HETATM   11  C   UNL     1      66.980   4.258   7.467  1.00  0.00     0.417 C 
HETATM   12  F   UNL     1      68.075   3.768   6.821  1.00  0.00    -0.166 F 
HETATM   13  F   UNL     1      67.323   4.327   8.783  1.00  0.00    -0.166 F 
HETATM   14  F   UNL     1      66.028   3.289   7.377  1.00  0.00    -0.166 F 
ENDBRANCH   7  11
BRANCH   4  15
HETATM   15  N   UNL     1      62.284   7.183   6.121  1.00  0.00    -0.383 N 
HETATM   16  H   UNL     1      61.784   6.835   5.347  1.00  0.00     0.157 HD
HETATM   17  H   UNL     1      61.898   7.123   7.025  1.00  0.00     0.157 HD
ENDBRANCH   4  15
TORSDOF 2
ENDMDL
