MODEL 1
REMARK VINA RESULT:      -5.9      0.000      0.000
REMARK  3 active torsions:
REMARK  status: ('A' for Active; 'I' for Inactive)
REMARK       I    between atoms: N_1  and  C_2 
REMARK    1  A    between atoms: C_2  and  C_3 
REMARK    2  A    between atoms: C_3  and  S_5 
REMARK    3  A    between atoms: S_5  and  C_6 
ROOT
HETATM    1  N   UNL     1      66.073   6.952   6.712  1.00  0.00    -0.351 N 
HETATM    2  C   UNL     1      64.839   7.350   6.196  1.00  0.00     0.229 C 
HETATM    3  O   UNL     1      63.825   7.320   6.897  1.00  0.00    -0.273 OA
HETATM    4  C   UNL     1      66.165   6.571   8.124  1.00  0.00     0.125 C 
HETATM    5  C   UNL     1      67.292   6.705   5.945  1.00  0.00     0.125 C 
HETATM    6  C   UNL     1      67.673   5.227   6.018  1.00  0.00     0.020 C 
HETATM    7  C   UNL     1      66.532   5.096   8.267  1.00  0.00     0.020 C 
HETATM    8  C   UNL     1      67.790   4.755   7.467  1.00  0.00     0.003 C 
ENDROOT
BRANCH   2   9
HETATM    9  C   UNL     1      64.790   7.791   4.726  1.00  0.00     0.182 C 
BRANCH   9  10
HETATM   10  S   UNL     1      63.222   7.270   3.939  1.00  0.00    -0.121 SA
BRANCH  10  11
HETATM   11  C   UNL     1      62.560   8.830   3.378  1.00  0.00     0.001 A 
HETATM   12  C   UNL     1      62.445   9.878   4.297  1.00  0.00     0.018 A 
HETATM   13  C   UNL     1      62.058  11.154   3.878  1.00  0.00     0.001 A 
HETATM   14  C   UNL     1      61.794  11.393   2.532  1.00  0.00     0.000 A 
HETATM   15  C   UNL     1      61.898  10.353   1.608  1.00  0.00     0.001 A 
HETATM   16  C   UNL     1      62.280   9.074   2.029  1.00  0.00     0.018 A 
ENDBRANCH  10  11
ENDBRANCH   9  10
ENDBRANCH   2   9
TORSDOF 3
ENDMDL
MODEL 2
REMARK VINA RESULT:      -5.8      1.780      7.002
REMARK  3 active torsions:
REMARK  status: ('A' for Active; 'I' for Inactive)
REMARK       I    between atoms: N_1  and  C_2 
REMARK    1  A    between atoms: C_2  and  C_3 
REMARK    2  A    between atoms: C_3  and  S_5 
REMARK    3  A    between atoms: S_5  and  C_6 
ROOT
HETATM    1  N   UNL     1      63.078   8.754   4.163  1.00  0.00    -0.351 N 
HETATM    2  C   UNL     1      64.295   8.647   4.838  1.00  0.00     0.229 C 
HETATM    3  O   UNL     1      64.689   9.556   5.572  1.00  0.00    -0.273 OA
HETATM    4  C   UNL     1      62.234   9.928   4.399  1.00  0.00     0.125 C 
HETATM    5  C   UNL     1      62.605   7.883   3.090  1.00  0.00     0.125 C 
HETATM    6  C   UNL     1      62.498   8.666   1.782  1.00  0.00     0.020 C 
HETATM    7  C   UNL     1      62.097  10.764   3.128  1.00  0.00     0.020 C 
HETATM    8  C   UNL     1      61.627   9.911   1.949  1.00  0.00     0.003 C 
ENDROOT
BRANCH   2   9
HETATM    9  C   UNL     1      65.130   7.379   4.606  1.00  0.00     0.182 C 
BRANCH   9  10
HETATM   10  S   UNL     1      66.894   7.678   4.989  1.00  0.00    -0.121 SA
BRANCH  10  11
HETATM   11  C   UNL     1      67.097   6.762   6.507  1.00  0.00     0.001 A 
HETATM   12  C   UNL     1      67.775   5.539   6.465  1.00  0.00     0.018 A 
HETATM   13  C   UNL     1      68.075   4.850   7.645  1.00  0.00     0.001 A 
HETATM   14  C   UNL     1      67.706   5.386   8.875  1.00  0.00     0.000 A 
HETATM   15  C   UNL     1      67.022   6.601   8.927  1.00  0.00     0.001 A 
HETATM   16  C   UNL     1      66.718   7.288   7.746  1.00  0.00     0.018 A 
ENDBRANCH  10  11
ENDBRANCH   9  10
ENDBRANCH   2   9
TORSDOF 3
ENDMDL
MODEL 3
REMARK VINA RESULT:      -5.5      1.635      2.245
REMARK  3 active torsions:
REMARK  status: ('A' for Active; 'I' for Inactive)
REMARK       I    between atoms: N_1  and  C_2 
REMARK    1  A    between atoms: C_2  and  C_3 
REMARK    2  A    between atoms: C_3  and  S_5 
REMARK    3  A    between atoms: S_5  and  C_6 
ROOT
HETATM    1  N   UNL     1      64.919   7.433   5.184  1.00  0.00    -0.351 N 
HETATM    2  C   UNL     1      63.637   7.103   5.626  1.00  0.00     0.229 C 
HETATM    3  O   UNL     1      63.246   7.452   6.741  1.00  0.00    -0.273 OA
HETATM    4  C   UNL     1      65.771   8.269   6.034  1.00  0.00     0.125 C 
HETATM    5  C   UNL     1      65.595   6.890   4.008  1.00  0.00     0.125 C 
HETATM    6  C   UNL     1      66.809   6.063   4.431  1.00  0.00     0.020 C 
HETATM    7  C   UNL     1      67.000   7.494   6.502  1.00  0.00     0.020 C 
HETATM    8  C   UNL     1      67.749   6.873   5.323  1.00  0.00     0.003 C 
ENDROOT
BRANCH   2   9
HETATM    9  C   UNL     1      62.752   6.269   4.687  1.00  0.00     0.182 C 
BRANCH   9  10
HETATM   10  S   UNL     1      61.132   7.078   4.425  1.00  0.00    -0.121 SA
BRANCH  10  11
HETATM   11  C   UNL     1      61.590   8.504   3.454  1.00  0.00     0.001 A 
HETATM   12  C   UNL     1      61.743   8.352   2.071  1.00  0.00     0.018 A 
HETATM   13  C   UNL     1      61.971   9.463   1.254  1.00  0.00     0.001 A 
HETATM   14  C   UNL     1      62.037  10.735   1.813  1.00  0.00     0.000 A 
HETATM   15  C   UNL     1      61.895  10.897   3.192  1.00  0.00     0.001 A 
HETATM   16  C   UNL     1      61.672   9.784   4.011  1.00  0.00     0.018 A 
ENDBRANCH  10  11
ENDBRANCH   9  10
ENDBRANCH   2   9
TORSDOF 3
ENDMDL
MODEL 4
REMARK VINA RESULT:      -5.3      3.739      5.697
REMARK  3 active torsions:
REMARK  status: ('A' for Active; 'I' for Inactive)
REMARK       I    between atoms: N_1  and  C_2 
REMARK    1  A    between atoms: C_2  and  C_3 
REMARK    2  A    between atoms: C_3  and  S_5 
REMARK    3  A    between atoms: S_5  and  C_6 
ROOT
HETATM    1  N   UNL     1      59.821   6.115   5.116  1.00  0.00    -0.351 N 
HETATM    2  C   UNL     1      60.988   6.298   5.859  1.00  0.00     0.229 C 
HETATM    3  O   UNL     1      60.955   6.303   7.091  1.00  0.00    -0.273 OA
HETATM    4  C   UNL     1      58.564   5.850   5.819  1.00  0.00     0.125 C 
HETATM    5  C   UNL     1      59.669   6.325   3.678  1.00  0.00     0.125 C 
HETATM    6  C   UNL     1      58.716   7.490   3.412  1.00  0.00     0.020 C 
HETATM    7  C   UNL     1      57.568   6.988   5.603  1.00  0.00     0.020 C 
HETATM    8  C   UNL     1      57.376   7.283   4.116  1.00  0.00     0.003 C 
ENDROOT
BRANCH   2   9
HETATM    9  C   UNL     1      62.297   6.522   5.086  1.00  0.00     0.182 C 
BRANCH   9  10
HETATM   10  S   UNL     1      62.997   8.173   5.452  1.00  0.00    -0.121 SA
BRANCH  10  11
HETATM   11  C   UNL     1      62.454   9.120   4.039  1.00  0.00     0.001 A 
HETATM   12  C   UNL     1      62.163  10.477   4.214  1.00  0.00     0.018 A 
HETATM   13  C   UNL     1      61.864  11.288   3.116  1.00  0.00     0.001 A 
HETATM   14  C   UNL     1      61.863  10.748   1.833  1.00  0.00     0.000 A 
HETATM   15  C   UNL     1      62.142   9.394   1.649  1.00  0.00     0.001 A 
HETATM   16  C   UNL     1      62.438   8.581   2.749  1.00  0.00     0.018 A 
ENDBRANCH  10  11
ENDBRANCH   9  10
ENDBRANCH   2   9
TORSDOF 3
ENDMDL
MODEL 5
REMARK VINA RESULT:      -4.9      1.691      2.279
REMARK  3 active torsions:
REMARK  status: ('A' for Active; 'I' for Inactive)
REMARK       I    between atoms: N_1  and  C_2 
REMARK    1  A    between atoms: C_2  and  C_3 
REMARK    2  A    between atoms: C_3  and  S_5 
REMARK    3  A    between atoms: S_5  and  C_6 
ROOT
HETATM    1  N   UNL     1      65.918   7.122   6.021  1.00  0.00    -0.351 N 
HETATM    2  C   UNL     1      65.207   8.204   5.500  1.00  0.00     0.229 C 
HETATM    3  O   UNL     1      65.334   9.331   5.983  1.00  0.00    -0.273 OA
HETATM    4  C   UNL     1      66.878   7.355   7.103  1.00  0.00     0.125 C 
HETATM    5  C   UNL     1      65.691   5.711   5.717  1.00  0.00     0.125 C 
HETATM    6  C   UNL     1      65.198   4.974   6.962  1.00  0.00     0.020 C 
HETATM    7  C   UNL     1      66.435   6.653   8.385  1.00  0.00     0.020 C 
HETATM    8  C   UNL     1      66.153   5.170   8.139  1.00  0.00     0.003 C 
ENDROOT
BRANCH   2   9
HETATM    9  C   UNL     1      64.248   7.931   4.332  1.00  0.00     0.182 C 
BRANCH   9  10
HETATM   10  S   UNL     1      62.894   9.161   4.296  1.00  0.00    -0.121 SA
BRANCH  10  11
HETATM   11  C   UNL     1      61.929   8.599   2.904  1.00  0.00     0.001 A 
HETATM   12  C   UNL     1      60.668   8.042   3.145  1.00  0.00     0.018 A 
HETATM   13  C   UNL     1      59.822   7.710   2.083  1.00  0.00     0.001 A 
HETATM   14  C   UNL     1      60.228   7.943   0.772  1.00  0.00     0.000 A 
HETATM   15  C   UNL     1      61.486   8.491   0.521  1.00  0.00     0.001 A 
HETATM   16  C   UNL     1      62.335   8.818   1.584  1.00  0.00     0.018 A 
ENDBRANCH  10  11
ENDBRANCH   9  10
ENDBRANCH   2   9
TORSDOF 3
ENDMDL
MODEL 6
REMARK VINA RESULT:      -4.8      2.236      6.337
REMARK  3 active torsions:
REMARK  status: ('A' for Active; 'I' for Inactive)
REMARK       I    between atoms: N_1  and  C_2 
REMARK    1  A    between atoms: C_2  and  C_3 
REMARK    2  A    between atoms: C_3  and  S_5 
REMARK    3  A    between atoms: S_5  and  C_6 
ROOT
HETATM    1  N   UNL     1      62.699   8.282   3.555  1.00  0.00    -0.351 N 
HETATM    2  C   UNL     1      62.299   7.079   4.139  1.00  0.00     0.229 C 
HETATM    3  O   UNL     1      61.827   6.172   3.451  1.00  0.00    -0.273 OA
HETATM    4  C   UNL     1      62.622   8.426   2.099  1.00  0.00     0.125 C 
HETATM    5  C   UNL     1      63.043   9.514   4.261  1.00  0.00     0.125 C 
HETATM    6  C   UNL     1      62.024  10.608   3.942  1.00  0.00     0.020 C 
HETATM    7  C   UNL     1      61.607   9.500   1.712  1.00  0.00     0.020 C 
HETATM    8  C   UNL     1      61.889  10.818   2.434  1.00  0.00     0.003 C 
ENDROOT
BRANCH   2   9
HETATM    9  C   UNL     1      62.443   6.944   5.663  1.00  0.00     0.182 C 
BRANCH   9  10
HETATM   10  S   UNL     1      63.485   5.503   6.096  1.00  0.00    -0.121 SA
BRANCH  10  11
HETATM   11  C   UNL     1      65.128   6.161   5.865  1.00  0.00     0.001 A 
HETATM   12  C   UNL     1      66.081   5.370   5.214  1.00  0.00     0.018 A 
HETATM   13  C   UNL     1      67.339   5.889   4.893  1.00  0.00     0.001 A 
HETATM   14  C   UNL     1      67.648   7.208   5.213  1.00  0.00     0.000 A 
HETATM   15  C   UNL     1      66.709   8.003   5.870  1.00  0.00     0.001 A 
HETATM   16  C   UNL     1      65.451   7.481   6.196  1.00  0.00     0.018 A 
ENDBRANCH  10  11
ENDBRANCH   9  10
ENDBRANCH   2   9
TORSDOF 3
ENDMDL
MODEL 7
REMARK VINA RESULT:      -4.6      2.314      3.058
REMARK  3 active torsions:
REMARK  status: ('A' for Active; 'I' for Inactive)
REMARK       I    between atoms: N_1  and  C_2 
REMARK    1  A    between atoms: C_2  and  C_3 
REMARK    2  A    between atoms: C_3  and  S_5 
REMARK    3  A    between atoms: S_5  and  C_6 
ROOT
HETATM    1  N   UNL     1      63.563   5.284   4.737  1.00  0.00    -0.351 N 
HETATM    2  C   UNL     1      63.323   5.328   3.363  1.00  0.00     0.229 C 
HETATM    3  O   UNL     1      64.113   4.811   2.570  1.00  0.00    -0.273 OA
HETATM    4  C   UNL     1      64.728   4.547   5.233  1.00  0.00     0.125 C 
HETATM    5  C   UNL     1      62.858   6.049   5.763  1.00  0.00     0.125 C 
HETATM    6  C   UNL     1      63.809   7.046   6.427  1.00  0.00     0.020 C 
HETATM    7  C   UNL     1      65.727   5.490   5.899  1.00  0.00     0.020 C 
HETATM    8  C   UNL     1      65.053   6.346   6.973  1.00  0.00     0.003 C 
ENDROOT
BRANCH   2   9
HETATM    9  C   UNL     1      62.065   6.066   2.882  1.00  0.00     0.182 C 
BRANCH   9  10
HETATM   10  S   UNL     1      62.454   7.177   1.481  1.00  0.00    -0.121 SA
BRANCH  10  11
HETATM   11  C   UNL     1      62.134   8.783   2.191  1.00  0.00     0.001 A 
HETATM   12  C   UNL     1      62.180   8.922   3.582  1.00  0.00     0.018 A 
HETATM   13  C   UNL     1      62.068  10.182   4.177  1.00  0.00     0.001 A 
HETATM   14  C   UNL     1      61.920  11.314   3.381  1.00  0.00     0.000 A 
HETATM   15  C   UNL     1      61.865  11.187   1.993  1.00  0.00     0.001 A 
HETATM   16  C   UNL     1      61.972   9.924   1.398  1.00  0.00     0.018 A 
ENDBRANCH  10  11
ENDBRANCH   9  10
ENDBRANCH   2   9
TORSDOF 3
ENDMDL
MODEL 8
REMARK VINA RESULT:      -4.6      4.687      6.492
REMARK  3 active torsions:
REMARK  status: ('A' for Active; 'I' for Inactive)
REMARK       I    between atoms: N_1  and  C_2 
REMARK    1  A    between atoms: C_2  and  C_3 
REMARK    2  A    between atoms: C_3  and  S_5 
REMARK    3  A    between atoms: S_5  and  C_6 
ROOT
HETATM    1  N   UNL     1      58.655   5.822   6.593  1.00  0.00    -0.351 N 
HETATM    2  C   UNL     1      60.032   5.983   6.425  1.00  0.00     0.229 C 
HETATM    3  O   UNL     1      60.744   6.334   7.368  1.00  0.00    -0.273 OA
HETATM    4  C   UNL     1      58.076   6.001   7.926  1.00  0.00     0.125 C 
HETATM    5  C   UNL     1      57.668   5.652   5.529  1.00  0.00     0.125 C 
HETATM    6  C   UNL     1      56.726   6.854   5.484  1.00  0.00     0.020 C 
HETATM    7  C   UNL     1      57.130   7.199   7.953  1.00  0.00     0.020 C 
HETATM    8  C   UNL     1      56.079   7.103   6.846  1.00  0.00     0.003 C 
ENDROOT
BRANCH   2   9
HETATM    9  C   UNL     1      60.612   5.738   5.024  1.00  0.00     0.182 C 
BRANCH   9  10
HETATM   10  S   UNL     1      62.412   6.071   4.995  1.00  0.00    -0.121 SA
BRANCH  10  11
HETATM   11  C   UNL     1      62.452   7.812   4.603  1.00  0.00     0.001 A 
HETATM   12  C   UNL     1      61.745   8.263   3.483  1.00  0.00     0.018 A 
HETATM   13  C   UNL     1      61.638   9.631   3.212  1.00  0.00     0.001 A 
HETATM   14  C   UNL     1      62.229  10.557   4.067  1.00  0.00     0.000 A 
HETATM   15  C   UNL     1      62.943  10.117   5.181  1.00  0.00     0.001 A 
HETATM   16  C   UNL     1      63.055   8.748   5.450  1.00  0.00     0.018 A 
ENDBRANCH  10  11
ENDBRANCH   9  10
ENDBRANCH   2   9
TORSDOF 3
ENDMDL
MODEL 9
REMARK VINA RESULT:      -4.6      4.411      6.634
REMARK  3 active torsions:
REMARK  status: ('A' for Active; 'I' for Inactive)
REMARK       I    between atoms: N_1  and  C_2 
REMARK    1  A    between atoms: C_2  and  C_3 
REMARK    2  A    between atoms: C_3  and  S_5 
REMARK    3  A    between atoms: S_5  and  C_6 
ROOT
HETATM    1  N   UNL     1      62.296   7.977   3.259  1.00  0.00    -0.351 N 
HETATM    2  C   UNL     1      61.669   6.855   3.802  1.00  0.00     0.229 C 
HETATM    3  O   UNL     1      61.199   5.981   3.071  1.00  0.00    -0.273 OA
HETATM    4  C   UNL     1      62.458   8.068   1.806  1.00  0.00     0.125 C 
HETATM    5  C   UNL     1      62.677   9.190   3.980  1.00  0.00     0.125 C 
HETATM    6  C   UNL     1      61.860  10.381   3.480  1.00  0.00     0.020 C 
HETATM    7  C   UNL     1      61.653   9.236   1.240  1.00  0.00     0.020 C 
HETATM    8  C   UNL     1      61.981  10.541   1.965  1.00  0.00     0.003 C 
ENDROOT
BRANCH   2   9
HETATM    9  C   UNL     1      61.563   6.769   5.332  1.00  0.00     0.182 C 
BRANCH   9  10
HETATM   10  S   UNL     1      60.634   5.276   5.840  1.00  0.00    -0.121 SA
BRANCH  10  11
HETATM   11  C   UNL     1      59.015   5.951   6.171  1.00  0.00     0.001 A 
HETATM   12  C   UNL     1      58.601   6.075   7.501  1.00  0.00     0.018 A 
HETATM   13  C   UNL     1      57.400   6.718   7.816  1.00  0.00     0.001 A 
HETATM   14  C   UNL     1      56.610   7.250   6.801  1.00  0.00     0.000 A 
HETATM   15  C   UNL     1      57.010   7.124   5.470  1.00  0.00     0.001 A 
HETATM   16  C   UNL     1      58.210   6.476   5.155  1.00  0.00     0.018 A 
ENDBRANCH  10  11
ENDBRANCH   9  10
ENDBRANCH   2   9
TORSDOF 3
ENDMDL
