MODEL 1
REMARK VINA RESULT:      -6.1      0.000      0.000
REMARK  1 active torsions:
REMARK  status: ('A' for Active; 'I' for Inactive)
REMARK    1  A    between atoms: C_2  and  C_4 
REMARK       I    between atoms: C_4  and  N_9 
ROOT
HETATM    1  C   UNL     1      63.937   8.815   4.614  1.00  0.00     0.092 A 
HETATM    2  C   UNL     1      62.957   9.764   4.355  1.00  0.00     0.065 A 
HETATM    3  O   UNL     1      64.899   8.919   5.586  1.00  0.00    -0.339 OA
HETATM    4  C   UNL     1      64.031   7.644   3.876  1.00  0.00    -0.021 A 
HETATM    5  C   UNL     1      65.629   7.663   5.567  1.00  0.00     0.064 C 
HETATM    6  C   UNL     1      65.183   6.835   4.343  1.00  0.00     0.079 C 
HETATM    7  C   UNL     1      62.053   9.497   3.316  1.00  0.00     0.020 A 
HETATM    8  C   UNL     1      63.145   7.374   2.846  1.00  0.00     0.010 A 
HETATM    9  C   UNL     1      62.146   8.310   2.569  1.00  0.00     0.002 A 
HETATM   10  C   UNL     1      65.318   6.943   6.883  1.00  0.00     0.046 C 
HETATM   11  C   UNL     1      67.114   8.025   5.495  1.00  0.00     0.046 C 
ENDROOT
BRANCH   2  12
HETATM   12  C   UNL     1      62.823  11.034   5.117  1.00  0.00     0.252 C 
HETATM   13  O   UNL     1      62.029  11.906   4.778  1.00  0.00    -0.268 OA
HETATM   14  N   UNL     1      63.614  11.207   6.214  1.00  0.00    -0.366 N 
HETATM   15  H   UNL     1      64.248  10.502   6.480  1.00  0.00     0.159 HD
HETATM   16  H   UNL     1      63.551  12.035   6.742  1.00  0.00     0.159 HD
ENDBRANCH   2  12
TORSDOF 1
ENDMDL
MODEL 2
REMARK VINA RESULT:      -5.8      1.864      2.185
REMARK  1 active torsions:
REMARK  status: ('A' for Active; 'I' for Inactive)
REMARK    1  A    between atoms: C_2  and  C_4 
REMARK       I    between atoms: C_4  and  N_9 
ROOT
HETATM    1  C   UNL     1      62.890   8.841   3.184  1.00  0.00     0.092 A 
HETATM    2  C   UNL     1      62.156   9.732   2.412  1.00  0.00     0.065 A 
HETATM    3  O   UNL     1      63.419   9.118   4.418  1.00  0.00    -0.339 OA
HETATM    4  C   UNL     1      63.164   7.552   2.749  1.00  0.00    -0.021 A 
HETATM    5  C   UNL     1      64.004   7.877   4.894  1.00  0.00     0.064 C 
HETATM    6  C   UNL     1      63.990   6.838   3.752  1.00  0.00     0.079 C 
HETATM    7  C   UNL     1      61.693   9.281   1.166  1.00  0.00     0.020 A 
HETATM    8  C   UNL     1      62.714   7.101   1.520  1.00  0.00     0.010 A 
HETATM    9  C   UNL     1      61.969   7.975   0.725  1.00  0.00     0.002 A 
HETATM   10  C   UNL     1      63.165   7.415   6.091  1.00  0.00     0.046 C 
HETATM   11  C   UNL     1      65.429   8.209   5.339  1.00  0.00     0.046 C 
ENDROOT
BRANCH   2  12
HETATM   12  C   UNL     1      61.843  11.122   2.836  1.00  0.00     0.252 C 
HETATM   13  O   UNL     1      61.606  11.398   4.008  1.00  0.00    -0.268 OA
HETATM   14  N   UNL     1      61.826  12.093   1.878  1.00  0.00    -0.366 N 
HETATM   15  H   UNL     1      62.018  11.863   0.941  1.00  0.00     0.159 HD
HETATM   16  H   UNL     1      61.623  13.024   2.124  1.00  0.00     0.159 HD
ENDBRANCH   2  12
TORSDOF 1
ENDMDL
MODEL 3
REMARK VINA RESULT:      -5.5      2.426      3.127
REMARK  1 active torsions:
REMARK  status: ('A' for Active; 'I' for Inactive)
REMARK    1  A    between atoms: C_2  and  C_4 
REMARK       I    between atoms: C_4  and  N_9 
ROOT
HETATM    1  C   UNL     1      62.684   8.736   3.265  1.00  0.00     0.092 A 
HETATM    2  C   UNL     1      62.589   9.879   4.048  1.00  0.00     0.065 A 
HETATM    3  O   UNL     1      63.141   7.518   3.700  1.00  0.00    -0.339 OA
HETATM    4  C   UNL     1      62.320   8.736   1.926  1.00  0.00    -0.021 A 
HETATM    5  C   UNL     1      62.965   6.601   2.587  1.00  0.00     0.064 C 
HETATM    6  C   UNL     1      62.556   7.399   1.331  1.00  0.00     0.079 C 
HETATM    7  C   UNL     1      62.103  11.045   3.437  1.00  0.00     0.020 A 
HETATM    8  C   UNL     1      61.843   9.884   1.315  1.00  0.00     0.010 A 
HETATM    9  C   UNL     1      61.732  11.046   2.081  1.00  0.00     0.002 A 
HETATM   10  C   UNL     1      61.881   5.599   3.000  1.00  0.00     0.046 C 
HETATM   11  C   UNL     1      64.304   5.888   2.395  1.00  0.00     0.046 C 
ENDROOT
BRANCH   2  12
HETATM   12  C   UNL     1      62.973   9.925   5.484  1.00  0.00     0.252 C 
HETATM   13  O   UNL     1      63.322  10.971   6.022  1.00  0.00    -0.268 OA
HETATM   14  N   UNL     1      62.926   8.762   6.194  1.00  0.00    -0.366 N 
HETATM   15  H   UNL     1      62.645   7.928   5.755  1.00  0.00     0.159 HD
HETATM   16  H   UNL     1      63.174   8.756   7.148  1.00  0.00     0.159 HD
ENDBRANCH   2  12
TORSDOF 1
ENDMDL
MODEL 4
REMARK VINA RESULT:      -5.2      2.648      3.526
REMARK  1 active torsions:
REMARK  status: ('A' for Active; 'I' for Inactive)
REMARK    1  A    between atoms: C_2  and  C_4 
REMARK       I    between atoms: C_4  and  N_9 
ROOT
HETATM    1  C   UNL     1      62.858   8.656   3.562  1.00  0.00     0.092 A 
HETATM    2  C   UNL     1      62.142   9.505   2.727  1.00  0.00     0.065 A 
HETATM    3  O   UNL     1      63.202   7.363   3.264  1.00  0.00    -0.339 OA
HETATM    4  C   UNL     1      63.289   9.061   4.817  1.00  0.00    -0.021 A 
HETATM    5  C   UNL     1      64.026   6.901   4.367  1.00  0.00     0.064 C 
HETATM    6  C   UNL     1      63.993   7.949   5.500  1.00  0.00     0.079 C 
HETATM    7  C   UNL     1      61.872  10.800   3.196  1.00  0.00     0.020 A 
HETATM    8  C   UNL     1      63.023  10.336   5.289  1.00  0.00     0.010 A 
HETATM    9  C   UNL     1      62.310  11.211   4.467  1.00  0.00     0.002 A 
HETATM   10  C   UNL     1      65.443   6.705   3.817  1.00  0.00     0.046 C 
HETATM   11  C   UNL     1      63.440   5.562   4.817  1.00  0.00     0.046 C 
ENDROOT
BRANCH   2  12
HETATM   12  C   UNL     1      61.656   9.112   1.378  1.00  0.00     0.252 C 
HETATM   13  O   UNL     1      62.410   9.068   0.411  1.00  0.00    -0.268 OA
HETATM   14  N   UNL     1      60.336   8.797   1.243  1.00  0.00    -0.366 N 
HETATM   15  H   UNL     1      59.739   8.834   2.024  1.00  0.00     0.159 HD
HETATM   16  H   UNL     1      59.980   8.531   0.364  1.00  0.00     0.159 HD
ENDBRANCH   2  12
TORSDOF 1
ENDMDL
MODEL 5
REMARK VINA RESULT:      -5.2      1.597      3.961
REMARK  1 active torsions:
REMARK  status: ('A' for Active; 'I' for Inactive)
REMARK    1  A    between atoms: C_2  and  C_4 
REMARK       I    between atoms: C_4  and  N_9 
ROOT
HETATM    1  C   UNL     1      62.371   8.645   3.897  1.00  0.00     0.092 A 
HETATM    2  C   UNL     1      63.184   9.459   4.675  1.00  0.00     0.065 A 
HETATM    3  O   UNL     1      61.121   8.982   3.444  1.00  0.00    -0.339 OA
HETATM    4  C   UNL     1      62.770   7.375   3.507  1.00  0.00    -0.021 A 
HETATM    5  C   UNL     1      60.694   7.887   2.590  1.00  0.00     0.064 C 
HETATM    6  C   UNL     1      61.699   6.721   2.717  1.00  0.00     0.079 C 
HETATM    7  C   UNL     1      64.436   8.951   5.055  1.00  0.00     0.020 A 
HETATM    8  C   UNL     1      64.003   6.866   3.881  1.00  0.00     0.010 A 
HETATM    9  C   UNL     1      64.842   7.665   4.659  1.00  0.00     0.002 A 
HETATM   10  C   UNL     1      60.634   8.431   1.159  1.00  0.00     0.046 C 
HETATM   11  C   UNL     1      59.297   7.484   3.066  1.00  0.00     0.046 C 
ENDROOT
BRANCH   2  12
HETATM   12  C   UNL     1      62.796  10.824   5.120  1.00  0.00     0.252 C 
HETATM   13  O   UNL     1      61.986  11.498   4.491  1.00  0.00    -0.268 OA
HETATM   14  N   UNL     1      63.368  11.311   6.258  1.00  0.00    -0.366 N 
HETATM   15  H   UNL     1      64.015  10.763   6.757  1.00  0.00     0.159 HD
HETATM   16  H   UNL     1      63.133  12.211   6.582  1.00  0.00     0.159 HD
ENDBRANCH   2  12
TORSDOF 1
ENDMDL
MODEL 6
REMARK VINA RESULT:      -5.2      2.201      4.369
REMARK  1 active torsions:
REMARK  status: ('A' for Active; 'I' for Inactive)
REMARK    1  A    between atoms: C_2  and  C_4 
REMARK       I    between atoms: C_4  and  N_9 
ROOT
HETATM    1  C   UNL     1      62.679   8.932   3.299  1.00  0.00     0.092 A 
HETATM    2  C   UNL     1      63.254   9.200   4.535  1.00  0.00     0.065 A 
HETATM    3  O   UNL     1      62.791   7.747   2.618  1.00  0.00    -0.339 OA
HETATM    4  C   UNL     1      61.926   9.882   2.624  1.00  0.00    -0.021 A 
HETATM    5  C   UNL     1      61.951   7.879   1.440  1.00  0.00     0.064 C 
HETATM    6  C   UNL     1      61.468   9.341   1.321  1.00  0.00     0.079 C 
HETATM    7  C   UNL     1      63.042  10.473   5.086  1.00  0.00     0.020 A 
HETATM    8  C   UNL     1      61.715  11.141   3.160  1.00  0.00     0.010 A 
HETATM    9  C   UNL     1      62.277  11.435   4.404  1.00  0.00     0.002 A 
HETATM   10  C   UNL     1      60.779   6.907   1.613  1.00  0.00     0.046 C 
HETATM   11  C   UNL     1      62.812   7.469   0.244  1.00  0.00     0.046 C 
ENDROOT
BRANCH   2  12
HETATM   12  C   UNL     1      64.072   8.215   5.291  1.00  0.00     0.252 C 
HETATM   13  O   UNL     1      65.261   8.043   5.043  1.00  0.00    -0.268 OA
HETATM   14  N   UNL     1      63.460   7.501   6.278  1.00  0.00    -0.366 N 
HETATM   15  H   UNL     1      62.506   7.646   6.471  1.00  0.00     0.159 HD
HETATM   16  H   UNL     1      63.972   6.840   6.799  1.00  0.00     0.159 HD
ENDBRANCH   2  12
TORSDOF 1
ENDMDL
MODEL 7
REMARK VINA RESULT:      -5.1      2.935      3.947
REMARK  1 active torsions:
REMARK  status: ('A' for Active; 'I' for Inactive)
REMARK    1  A    between atoms: C_2  and  C_4 
REMARK       I    between atoms: C_4  and  N_9 
ROOT
HETATM    1  C   UNL     1      62.778   8.413   3.172  1.00  0.00     0.092 A 
HETATM    2  C   UNL     1      62.442   8.231   1.837  1.00  0.00     0.065 A 
HETATM    3  O   UNL     1      63.302   7.447   3.992  1.00  0.00    -0.339 OA
HETATM    4  C   UNL     1      62.594   9.631   3.811  1.00  0.00    -0.021 A 
HETATM    5  C   UNL     1      63.594   8.105   5.254  1.00  0.00     0.064 C 
HETATM    6  C   UNL     1      63.003   9.531   5.233  1.00  0.00     0.079 C 
HETATM    7  C   UNL     1      61.910   9.331   1.146  1.00  0.00     0.020 A 
HETATM    8  C   UNL     1      62.066  10.720   3.137  1.00  0.00     0.010 A 
HETATM    9  C   UNL     1      61.725  10.565   1.792  1.00  0.00     0.002 A 
HETATM   10  C   UNL     1      65.119   8.126   5.407  1.00  0.00     0.046 C 
HETATM   11  C   UNL     1      62.961   7.245   6.349  1.00  0.00     0.046 C 
ENDROOT
BRANCH   2  12
HETATM   12  C   UNL     1      62.617   6.943   1.114  1.00  0.00     0.252 C 
HETATM   13  O   UNL     1      61.869   6.613   0.201  1.00  0.00    -0.268 OA
HETATM   14  N   UNL     1      63.643   6.131   1.498  1.00  0.00    -0.366 N 
HETATM   15  H   UNL     1      64.240   6.404   2.232  1.00  0.00     0.159 HD
HETATM   16  H   UNL     1      63.789   5.271   1.041  1.00  0.00     0.159 HD
ENDBRANCH   2  12
TORSDOF 1
ENDMDL
MODEL 8
REMARK VINA RESULT:      -4.9      3.454      4.540
REMARK  1 active torsions:
REMARK  status: ('A' for Active; 'I' for Inactive)
REMARK    1  A    between atoms: C_2  and  C_4 
REMARK       I    between atoms: C_4  and  N_9 
ROOT
HETATM    1  C   UNL     1      60.869   8.378   2.868  1.00  0.00     0.092 A 
HETATM    2  C   UNL     1      61.738   9.449   2.700  1.00  0.00     0.065 A 
HETATM    3  O   UNL     1      60.205   8.077   4.029  1.00  0.00    -0.339 OA
HETATM    4  C   UNL     1      60.601   7.488   1.838  1.00  0.00    -0.021 A 
HETATM    5  C   UNL     1      59.336   6.955   3.717  1.00  0.00     0.064 C 
HETATM    6  C   UNL     1      59.672   6.430   2.304  1.00  0.00     0.079 C 
HETATM    7  C   UNL     1      62.338   9.605   1.441  1.00  0.00     0.020 A 
HETATM    8  C   UNL     1      61.192   7.633   0.594  1.00  0.00     0.010 A 
HETATM    9  C   UNL     1      62.066   8.705   0.397  1.00  0.00     0.002 A 
HETATM   10  C   UNL     1      57.894   7.467   3.803  1.00  0.00     0.046 C 
HETATM   11  C   UNL     1      59.591   5.896   4.790  1.00  0.00     0.046 C 
ENDROOT
BRANCH   2  12
HETATM   12  C   UNL     1      62.059  10.423   3.777  1.00  0.00     0.252 C 
HETATM   13  O   UNL     1      61.783  11.613   3.668  1.00  0.00    -0.268 OA
HETATM   14  N   UNL     1      62.673   9.953   4.900  1.00  0.00    -0.366 N 
HETATM   15  H   UNL     1      62.890   8.996   4.978  1.00  0.00     0.159 HD
HETATM   16  H   UNL     1      62.900  10.571   5.633  1.00  0.00     0.159 HD
ENDBRANCH   2  12
TORSDOF 1
ENDMDL
MODEL 9
REMARK VINA RESULT:      -4.7      2.343      3.053
REMARK  1 active torsions:
REMARK  status: ('A' for Active; 'I' for Inactive)
REMARK    1  A    between atoms: C_2  and  C_4 
REMARK       I    between atoms: C_4  and  N_9 
ROOT
HETATM    1  C   UNL     1      62.228   7.917   4.758  1.00  0.00     0.092 A 
HETATM    2  C   UNL     1      62.714   9.182   4.451  1.00  0.00     0.065 A 
HETATM    3  O   UNL     1      62.508   7.222   5.906  1.00  0.00    -0.339 OA
HETATM    4  C   UNL     1      61.397   7.225   3.889  1.00  0.00    -0.021 A 
HETATM    5  C   UNL     1      61.709   6.010   5.848  1.00  0.00     0.064 C 
HETATM    6  C   UNL     1      61.061   5.894   4.452  1.00  0.00     0.079 C 
HETATM    7  C   UNL     1      62.329   9.744   3.224  1.00  0.00     0.020 A 
HETATM    8  C   UNL     1      61.015   7.772   2.675  1.00  0.00     0.010 A 
HETATM    9  C   UNL     1      61.485   9.044   2.345  1.00  0.00     0.002 A 
HETATM   10  C   UNL     1      60.655   6.114   6.956  1.00  0.00     0.046 C 
HETATM   11  C   UNL     1      62.663   4.847   6.128  1.00  0.00     0.046 C 
ENDROOT
BRANCH   2  12
HETATM   12  C   UNL     1      63.611   9.956   5.349  1.00  0.00     0.252 C 
HETATM   13  O   UNL     1      64.731   9.552   5.642  1.00  0.00    -0.268 OA
HETATM   14  N   UNL     1      63.150  11.141   5.843  1.00  0.00    -0.366 N 
HETATM   15  H   UNL     1      62.250  11.458   5.602  1.00  0.00     0.159 HD
HETATM   16  H   UNL     1      63.718  11.680   6.440  1.00  0.00     0.159 HD
ENDBRANCH   2  12
TORSDOF 1
ENDMDL
