MODEL 1
REMARK VINA RESULT:      -5.3      0.000      0.000
REMARK  1 active torsions:
REMARK  status: ('A' for Active; 'I' for Inactive)
REMARK    1  A    between atoms: C_1  and  C_3 
REMARK       I    between atoms: C_3  and  N_7 
ROOT
HETATM    1  C   UNL     1      62.854   8.599   4.692  1.00  0.00     0.120 A 
HETATM    2  N   UNL     1      62.643   9.952   4.572  1.00  0.00    -0.291 N 
HETATM    3  N   UNL     1      62.236  10.329   3.340  1.00  0.00    -0.303 N 
ATOM      4  HN  UNL     1      62.052  11.274   3.004  1.00  0.00     0.186 HD
HETATM    5  C   UNL     1      62.422   8.077   3.483  1.00  0.00     0.063 A 
HETATM    6  C   UNL     1      62.130   9.183   2.664  1.00  0.00     0.024 A 
HETATM    7  C   UNL     1      62.880  10.987   5.553  1.00  0.00     0.178 C 
HETATM    8  C   UNL     1      61.784   9.188   1.224  1.00  0.00     0.070 C 
ENDROOT
BRANCH   1   9
HETATM    9  C   UNL     1      63.341   7.926   5.873  1.00  0.00     0.272 C 
HETATM   10  N   UNL     1      64.668   7.493   5.870  1.00  0.00    -0.343 N 
HETATM   11  C   UNL     1      65.135   6.591   6.923  1.00  0.00     0.152 C 
HETATM   12  C   UNL     1      65.775   8.108   5.121  1.00  0.00     0.152 C 
HETATM   13  C   UNL     1      66.074   5.543   6.317  1.00  0.00     0.187 C 
HETATM   14  O   UNL     1      67.182   6.170   5.649  1.00  0.00    -0.388 OA
HETATM   15  C   UNL     1      66.726   7.029   4.591  1.00  0.00     0.187 C 
HETATM   16  O   UNL     1      62.605   7.699   6.834  1.00  0.00    -0.266 OA
ENDBRANCH   1   9
TORSDOF 1
ENDMDL
MODEL 2
REMARK VINA RESULT:      -5.0      1.094      1.722
REMARK  1 active torsions:
REMARK  status: ('A' for Active; 'I' for Inactive)
REMARK    1  A    between atoms: C_1  and  C_3 
REMARK       I    between atoms: C_3  and  N_7 
ROOT
HETATM    1  C   UNL     1      62.833   8.614   4.787  1.00  0.00     0.120 A 
HETATM    2  N   UNL     1      62.389   8.041   3.619  1.00  0.00    -0.291 N 
HETATM    3  N   UNL     1      61.948   8.938   2.711  1.00  0.00    -0.303 N 
ATOM      4  HN  UNL     1      61.542   8.752   1.793  1.00  0.00     0.186 HD
HETATM    5  C   UNL     1      62.787   9.977   4.539  1.00  0.00     0.063 A 
HETATM    6  C   UNL     1      62.164  10.123   3.286  1.00  0.00     0.024 A 
HETATM    7  C   UNL     1      62.265   6.636   3.300  1.00  0.00     0.178 C 
HETATM    8  C   UNL     1      61.726  11.373   2.624  1.00  0.00     0.070 C 
ENDROOT
BRANCH   1   9
HETATM    9  C   UNL     1      63.307   7.896   5.947  1.00  0.00     0.272 C 
HETATM   10  N   UNL     1      64.617   7.413   5.919  1.00  0.00    -0.343 N 
HETATM   11  C   UNL     1      65.060   6.470   6.946  1.00  0.00     0.152 C 
HETATM   12  C   UNL     1      65.738   8.003   5.172  1.00  0.00     0.152 C 
HETATM   13  C   UNL     1      65.951   5.401   6.306  1.00  0.00     0.187 C 
HETATM   14  O   UNL     1      67.076   6.001   5.639  1.00  0.00    -0.388 OA
HETATM   15  C   UNL     1      66.642   6.901   4.607  1.00  0.00     0.187 C 
HETATM   16  O   UNL     1      62.573   7.676   6.911  1.00  0.00    -0.266 OA
ENDBRANCH   1   9
TORSDOF 1
ENDMDL
MODEL 3
REMARK VINA RESULT:      -4.7      1.813      2.076
REMARK  1 active torsions:
REMARK  status: ('A' for Active; 'I' for Inactive)
REMARK    1  A    between atoms: C_1  and  C_3 
REMARK       I    between atoms: C_3  and  N_7 
ROOT
HETATM    1  C   UNL     1      63.290   8.422   4.456  1.00  0.00     0.120 A 
HETATM    2  N   UNL     1      62.316   7.566   4.913  1.00  0.00    -0.291 N 
HETATM    3  N   UNL     1      61.293   7.401   4.047  1.00  0.00    -0.303 N 
ATOM      4  HN  UNL     1      60.445   6.847   4.178  1.00  0.00     0.186 HD
HETATM    5  C   UNL     1      62.909   8.711   3.155  1.00  0.00     0.063 A 
HETATM    6  C   UNL     1      61.641   8.126   2.982  1.00  0.00     0.024 A 
HETATM    7  C   UNL     1      62.226   6.916   6.201  1.00  0.00     0.178 C 
HETATM    8  C   UNL     1      60.719   8.268   1.832  1.00  0.00     0.070 C 
ENDROOT
BRANCH   1   9
HETATM    9  C   UNL     1      64.467   8.825   5.191  1.00  0.00     0.272 C 
HETATM   10  N   UNL     1      65.512   7.905   5.294  1.00  0.00    -0.343 N 
HETATM   11  C   UNL     1      66.606   8.159   6.230  1.00  0.00     0.152 C 
HETATM   12  C   UNL     1      65.837   6.856   4.316  1.00  0.00     0.152 C 
HETATM   13  C   UNL     1      67.013   6.847   6.908  1.00  0.00     0.187 C 
HETATM   14  O   UNL     1      67.389   5.859   5.932  1.00  0.00    -0.388 OA
HETATM   15  C   UNL     1      66.303   5.583   5.033  1.00  0.00     0.187 C 
HETATM   16  O   UNL     1      64.533   9.922   5.747  1.00  0.00    -0.266 OA
ENDBRANCH   1   9
TORSDOF 1
ENDMDL
MODEL 4
REMARK VINA RESULT:      -4.6      2.033      5.135
REMARK  1 active torsions:
REMARK  status: ('A' for Active; 'I' for Inactive)
REMARK    1  A    between atoms: C_1  and  C_3 
REMARK       I    between atoms: C_3  and  N_7 
ROOT
HETATM    1  C   UNL     1      65.674   7.133   5.108  1.00  0.00     0.120 A 
HETATM    2  N   UNL     1      65.915   6.102   5.986  1.00  0.00    -0.291 N 
HETATM    3  N   UNL     1      66.516   5.036   5.414  1.00  0.00    -0.303 N 
ATOM      4  HN  UNL     1      66.761   4.147   5.850  1.00  0.00     0.186 HD
HETATM    5  C   UNL     1      66.287   6.732   3.931  1.00  0.00     0.063 A 
HETATM    6  C   UNL     1      66.716   5.410   4.148  1.00  0.00     0.024 A 
HETATM    7  C   UNL     1      65.536   6.001   7.377  1.00  0.00     0.178 C 
HETATM    8  C   UNL     1      67.287   4.462   3.164  1.00  0.00     0.070 C 
ENDROOT
BRANCH   1   9
HETATM    9  C   UNL     1      64.998   8.368   5.430  1.00  0.00     0.272 C 
HETATM   10  N   UNL     1      63.677   8.513   5.002  1.00  0.00    -0.343 N 
HETATM   11  C   UNL     1      63.035   9.826   5.074  1.00  0.00     0.152 C 
HETATM   12  C   UNL     1      62.711   7.423   4.801  1.00  0.00     0.152 C 
HETATM   13  C   UNL     1      62.175  10.042   3.826  1.00  0.00     0.187 C 
HETATM   14  O   UNL     1      61.195   8.998   3.689  1.00  0.00    -0.388 OA
HETATM   15  C   UNL     1      61.825   7.711   3.583  1.00  0.00     0.187 C 
HETATM   16  O   UNL     1      65.575   9.283   6.019  1.00  0.00    -0.266 OA
ENDBRANCH   1   9
TORSDOF 1
ENDMDL
MODEL 5
REMARK VINA RESULT:      -4.3      2.921      5.506
REMARK  1 active torsions:
REMARK  status: ('A' for Active; 'I' for Inactive)
REMARK    1  A    between atoms: C_1  and  C_3 
REMARK       I    between atoms: C_3  and  N_7 
ROOT
HETATM    1  C   UNL     1      62.831   8.800   3.377  1.00  0.00     0.120 A 
HETATM    2  N   UNL     1      62.966   9.743   4.368  1.00  0.00    -0.291 N 
HETATM    3  N   UNL     1      63.798   9.366   5.363  1.00  0.00    -0.303 N 
ATOM      4  HN  UNL     1      64.027   9.877   6.216  1.00  0.00     0.186 HD
HETATM    5  C   UNL     1      63.746   7.815   3.714  1.00  0.00     0.063 A 
HETATM    6  C   UNL     1      64.252   8.171   4.977  1.00  0.00     0.024 A 
HETATM    7  C   UNL     1      62.279  11.008   4.503  1.00  0.00     0.178 C 
HETATM    8  C   UNL     1      65.141   7.382   5.861  1.00  0.00     0.070 C 
ENDROOT
BRANCH   1   9
HETATM    9  C   UNL     1      61.968   8.911   2.224  1.00  0.00     0.272 C 
HETATM   10  N   UNL     1      60.785   8.169   2.227  1.00  0.00    -0.343 N 
HETATM   11  C   UNL     1      60.009   8.045   0.993  1.00  0.00     0.152 C 
HETATM   12  C   UNL     1      60.022   7.767   3.418  1.00  0.00     0.152 C 
HETATM   13  C   UNL     1      59.465   6.618   0.875  1.00  0.00     0.187 C 
HETATM   14  O   UNL     1      58.667   6.274   2.021  1.00  0.00    -0.388 OA
HETATM   15  C   UNL     1      59.438   6.362   3.230  1.00  0.00     0.187 C 
HETATM   16  O   UNL     1      62.280   9.598   1.251  1.00  0.00    -0.266 OA
ENDBRANCH   1   9
TORSDOF 1
ENDMDL
MODEL 6
REMARK VINA RESULT:      -4.2      2.252      2.885
REMARK  1 active torsions:
REMARK  status: ('A' for Active; 'I' for Inactive)
REMARK    1  A    between atoms: C_1  and  C_3 
REMARK       I    between atoms: C_3  and  N_7 
ROOT
HETATM    1  C   UNL     1      64.785   7.374   4.438  1.00  0.00     0.120 A 
HETATM    2  N   UNL     1      63.499   7.861   4.422  1.00  0.00    -0.291 N 
HETATM    3  N   UNL     1      62.796   7.494   3.328  1.00  0.00    -0.303 N 
ATOM      4  HN  UNL     1      61.843   7.759   3.078  1.00  0.00     0.186 HD
HETATM    5  C   UNL     1      64.847   6.535   3.337  1.00  0.00     0.063 A 
HETATM    6  C   UNL     1      63.632   6.706   2.648  1.00  0.00     0.024 A 
HETATM    7  C   UNL     1      62.867   8.757   5.364  1.00  0.00     0.178 C 
HETATM    8  C   UNL     1      63.249   6.165   1.324  1.00  0.00     0.070 C 
ENDROOT
BRANCH   1   9
HETATM    9  C   UNL     1      65.775   7.650   5.453  1.00  0.00     0.272 C 
HETATM   10  N   UNL     1      66.036   6.650   6.392  1.00  0.00    -0.343 N 
HETATM   11  C   UNL     1      66.831   6.965   7.579  1.00  0.00     0.152 C 
HETATM   12  C   UNL     1      65.901   5.203   6.169  1.00  0.00     0.152 C 
HETATM   13  C   UNL     1      66.235   6.249   8.795  1.00  0.00     0.187 C 
HETATM   14  O   UNL     1      66.176   4.828   8.577  1.00  0.00    -0.388 OA
HETATM   15  C   UNL     1      65.368   4.516   7.432  1.00  0.00     0.187 C 
HETATM   16  O   UNL     1      66.338   8.744   5.521  1.00  0.00    -0.266 OA
ENDBRANCH   1   9
TORSDOF 1
ENDMDL
MODEL 7
REMARK VINA RESULT:      -4.0      2.847      5.356
REMARK  1 active torsions:
REMARK  status: ('A' for Active; 'I' for Inactive)
REMARK    1  A    between atoms: C_1  and  C_3 
REMARK       I    between atoms: C_3  and  N_7 
ROOT
HETATM    1  C   UNL     1      61.908   6.802   4.338  1.00  0.00     0.120 A 
HETATM    2  N   UNL     1      62.850   6.222   5.155  1.00  0.00    -0.291 N 
HETATM    3  N   UNL     1      62.346   5.768   6.323  1.00  0.00    -0.303 N 
ATOM      4  HN  UNL     1      62.851   5.337   7.098  1.00  0.00     0.186 HD
HETATM    5  C   UNL     1      60.705   6.576   4.989  1.00  0.00     0.063 A 
HETATM    6  C   UNL     1      61.037   6.013   6.235  1.00  0.00     0.024 A 
HETATM    7  C   UNL     1      64.277   6.126   4.950  1.00  0.00     0.178 C 
HETATM    8  C   UNL     1      60.138   5.728   7.377  1.00  0.00     0.070 C 
ENDROOT
BRANCH   1   9
HETATM    9  C   UNL     1      62.171   7.419   3.059  1.00  0.00     0.272 C 
HETATM   10  N   UNL     1      62.330   8.806   3.030  1.00  0.00    -0.343 N 
HETATM   11  C   UNL     1      62.343   9.504   1.745  1.00  0.00     0.152 C 
HETATM   12  C   UNL     1      62.840   9.639   4.130  1.00  0.00     0.152 C 
HETATM   13  C   UNL     1      61.574  10.822   1.873  1.00  0.00     0.187 C 
HETATM   14  O   UNL     1      62.134  11.646   2.911  1.00  0.00    -0.388 OA
HETATM   15  C   UNL     1      62.090  10.975   4.180  1.00  0.00     0.187 C 
HETATM   16  O   UNL     1      62.209   6.757   2.022  1.00  0.00    -0.266 OA
ENDBRANCH   1   9
TORSDOF 1
ENDMDL
MODEL 8
REMARK VINA RESULT:      -4.0      2.414      4.841
REMARK  1 active torsions:
REMARK  status: ('A' for Active; 'I' for Inactive)
REMARK    1  A    between atoms: C_1  and  C_3 
REMARK       I    between atoms: C_3  and  N_7 
ROOT
HETATM    1  C   UNL     1      63.345   7.290   5.921  1.00  0.00     0.120 A 
HETATM    2  N   UNL     1      63.759   8.536   5.510  1.00  0.00    -0.291 N 
HETATM    3  N   UNL     1      65.090   8.729   5.628  1.00  0.00    -0.303 N 
ATOM      4  HN  UNL     1      65.621   9.576   5.423  1.00  0.00     0.186 HD
HETATM    5  C   UNL     1      64.522   6.611   6.193  1.00  0.00     0.063 A 
HETATM    6  C   UNL     1      65.555   7.560   6.075  1.00  0.00     0.024 A 
HETATM    7  C   UNL     1      62.950   9.648   5.065  1.00  0.00     0.178 C 
HETATM    8  C   UNL     1      66.987   7.398   6.415  1.00  0.00     0.070 C 
ENDROOT
BRANCH   1   9
HETATM    9  C   UNL     1      61.977   6.829   5.957  1.00  0.00     0.272 C 
HETATM   10  N   UNL     1      61.326   6.639   4.737  1.00  0.00    -0.343 N 
HETATM   11  C   UNL     1      59.879   6.423   4.718  1.00  0.00     0.152 C 
HETATM   12  C   UNL     1      61.968   6.279   3.464  1.00  0.00     0.152 C 
HETATM   13  C   UNL     1      59.268   7.175   3.531  1.00  0.00     0.187 C 
HETATM   14  O   UNL     1      59.866   6.756   2.293  1.00  0.00    -0.388 OA
HETATM   15  C   UNL     1      61.282   6.999   2.297  1.00  0.00     0.187 C 
HETATM   16  O   UNL     1      61.386   6.653   7.023  1.00  0.00    -0.266 OA
ENDBRANCH   1   9
TORSDOF 1
ENDMDL
MODEL 9
REMARK VINA RESULT:      -3.9      2.258      3.142
REMARK  1 active torsions:
REMARK  status: ('A' for Active; 'I' for Inactive)
REMARK    1  A    between atoms: C_1  and  C_3 
REMARK       I    between atoms: C_3  and  N_7 
ROOT
HETATM    1  C   UNL     1      64.144   7.126   4.372  1.00  0.00     0.120 A 
HETATM    2  N   UNL     1      62.810   6.817   4.255  1.00  0.00    -0.291 N 
HETATM    3  N   UNL     1      62.002   7.900   4.261  1.00  0.00    -0.303 N 
ATOM      4  HN  UNL     1      60.983   7.921   4.223  1.00  0.00     0.186 HD
HETATM    5  C   UNL     1      64.182   8.510   4.316  1.00  0.00     0.063 A 
HETATM    6  C   UNL     1      62.841   8.936   4.329  1.00  0.00     0.024 A 
HETATM    7  C   UNL     1      62.191   5.511   4.215  1.00  0.00     0.178 C 
HETATM    8  C   UNL     1      62.323  10.319   4.443  1.00  0.00     0.070 C 
ENDROOT
BRANCH   1   9
HETATM    9  C   UNL     1      65.224   6.169   4.448  1.00  0.00     0.272 C 
HETATM   10  N   UNL     1      65.777   5.916   5.704  1.00  0.00    -0.343 N 
HETATM   11  C   UNL     1      67.026   5.160   5.804  1.00  0.00     0.152 C 
HETATM   12  C   UNL     1      65.075   6.019   6.992  1.00  0.00     0.152 C 
HETATM   13  C   UNL     1      67.909   5.776   6.893  1.00  0.00     0.187 C 
HETATM   14  O   UNL     1      67.222   5.804   8.157  1.00  0.00    -0.388 OA
HETATM   15  C   UNL     1      66.013   6.575   8.070  1.00  0.00     0.187 C 
HETATM   16  O   UNL     1      65.675   5.628   3.438  1.00  0.00    -0.266 OA
ENDBRANCH   1   9
TORSDOF 1
ENDMDL
