MODEL 1
REMARK VINA RESULT:      -5.4      0.000      0.000
REMARK  3 active torsions:
REMARK  status: ('A' for Active; 'I' for Inactive)
REMARK    1  A    between atoms: C_1  and  C_2 
REMARK       I    between atoms: C_2  and  N_7 
REMARK    2  A    between atoms: C_3  and  O_4 
REMARK    3  A    between atoms: O_4  and  C_8 
ROOT
HETATM    1  C   UNL     1      62.736   9.318   4.568  1.00  0.00     0.065 C 
HETATM    2  C   UNL     1      62.062   8.150   4.146  1.00  0.00     0.085 C 
HETATM    3  C   UNL     1      64.056   9.293   5.026  1.00  0.00     0.020 C 
HETATM    4  C   UNL     1      62.825   7.003   3.966  1.00  0.00     0.038 C 
HETATM    5  C   UNL     1      64.783   8.115   4.901  1.00  0.00     0.001 C 
HETATM    6  C   UNL     1      64.186   6.997   4.315  1.00  0.00     0.003 C 
ENDROOT
BRANCH   2   7
HETATM    7  O   UNL     1      60.736   8.302   3.875  1.00  0.00    -0.345 OA
BRANCH   7   8
HETATM    8  C   UNL     1      59.969   7.597   2.889  1.00  0.00     0.133 C 
HETATM    9  C   UNL     1      60.220   7.917   1.407  1.00  0.00     0.058 C 
HETATM   10  C   UNL     1      59.068   7.563   0.463  1.00  0.00     0.170 C 
HETATM   11  O   UNL     1      57.782   7.640   1.069  1.00  0.00    -0.391 OA
HETATM   12  C   UNL     1      57.697   6.817   2.226  1.00  0.00     0.170 C 
HETATM   13  C   UNL     1      58.509   7.478   3.320  1.00  0.00     0.058 C 
ENDBRANCH   7   8
ENDBRANCH   2   7
BRANCH   1  14
HETATM   14  C   UNL     1      62.233  10.646   4.132  1.00  0.00     0.254 C 
HETATM   15  O   UNL     1      62.184  11.613   4.878  1.00  0.00    -0.268 OA
HETATM   16  N   UNL     1      61.999  10.666   2.775  1.00  0.00    -0.361 N 
HETATM   17  C   UNL     1      61.697  11.830   2.002  1.00  0.00     0.149 C 
HETATM   18  H   UNL     1      62.043   9.806   2.297  1.00  0.00     0.162 HD
ENDBRANCH   1  14
TORSDOF 3
ENDMDL
MODEL 2
REMARK VINA RESULT:      -5.1      1.857      5.167
REMARK  3 active torsions:
REMARK  status: ('A' for Active; 'I' for Inactive)
REMARK    1  A    between atoms: C_1  and  C_2 
REMARK       I    between atoms: C_2  and  N_7 
REMARK    2  A    between atoms: C_3  and  O_4 
REMARK    3  A    between atoms: O_4  and  C_8 
ROOT
HETATM    1  C   UNL     1      60.838   8.288   1.991  1.00  0.00     0.065 C 
HETATM    2  C   UNL     1      60.583   8.063   3.362  1.00  0.00     0.085 C 
HETATM    3  C   UNL     1      60.036   7.742   0.984  1.00  0.00     0.020 C 
HETATM    4  C   UNL     1      59.366   7.483   3.698  1.00  0.00     0.038 C 
HETATM    5  C   UNL     1      58.856   7.103   1.344  1.00  0.00     0.001 C 
HETATM    6  C   UNL     1      58.496   7.032   2.691  1.00  0.00     0.003 C 
ENDROOT
BRANCH   2   7
HETATM    7  O   UNL     1      61.534   8.526   4.220  1.00  0.00    -0.345 OA
BRANCH   7   8
HETATM    8  C   UNL     1      62.744   7.862   4.611  1.00  0.00     0.133 C 
HETATM    9  C   UNL     1      62.665   6.800   5.720  1.00  0.00     0.058 C 
HETATM   10  C   UNL     1      63.984   6.522   6.445  1.00  0.00     0.170 C 
HETATM   11  O   UNL     1      64.858   7.644   6.503  1.00  0.00    -0.391 OA
HETATM   12  C   UNL     1      65.146   8.153   5.206  1.00  0.00     0.170 C 
HETATM   13  C   UNL     1      63.901   8.852   4.701  1.00  0.00     0.058 C 
ENDBRANCH   7   8
ENDBRANCH   2   7
BRANCH   1  14
HETATM   14  C   UNL     1      61.677   9.445   1.587  1.00  0.00     0.254 C 
HETATM   15  O   UNL     1      62.455   9.403   0.645  1.00  0.00    -0.268 OA
HETATM   16  N   UNL     1      61.337  10.576   2.296  1.00  0.00    -0.361 N 
HETATM   17  C   UNL     1      61.807  11.898   2.027  1.00  0.00     0.149 C 
HETATM   18  H   UNL     1      60.718  10.463   3.054  1.00  0.00     0.162 HD
ENDBRANCH   1  14
TORSDOF 3
ENDMDL
MODEL 3
REMARK VINA RESULT:      -4.9      2.834      3.860
REMARK  3 active torsions:
REMARK  status: ('A' for Active; 'I' for Inactive)
REMARK    1  A    between atoms: C_1  and  C_2 
REMARK       I    between atoms: C_2  and  N_7 
REMARK    2  A    between atoms: C_3  and  O_4 
REMARK    3  A    between atoms: O_4  and  C_8 
ROOT
HETATM    1  C   UNL     1      63.307   9.143   4.972  1.00  0.00     0.065 C 
HETATM    2  C   UNL     1      63.112   8.687   3.649  1.00  0.00     0.085 C 
HETATM    3  C   UNL     1      62.967  10.438   5.372  1.00  0.00     0.020 C 
HETATM    4  C   UNL     1      62.344   9.482   2.807  1.00  0.00     0.038 C 
HETATM    5  C   UNL     1      62.258  11.244   4.490  1.00  0.00     0.001 C 
HETATM    6  C   UNL     1      61.896  10.742   3.238  1.00  0.00     0.003 C 
ENDROOT
BRANCH   2   7
HETATM    7  O   UNL     1      63.632   7.460   3.367  1.00  0.00    -0.345 OA
BRANCH   7   8
HETATM    8  C   UNL     1      62.936   6.330   2.822  1.00  0.00     0.133 C 
HETATM    9  C   UNL     1      62.946   6.135   1.298  1.00  0.00     0.058 C 
HETATM   10  C   UNL     1      61.805   5.277   0.747  1.00  0.00     0.170 C 
HETATM   11  O   UNL     1      60.609   5.348   1.514  1.00  0.00    -0.391 OA
HETATM   12  C   UNL     1      60.835   4.993   2.873  1.00  0.00     0.170 C 
HETATM   13  C   UNL     1      61.596   6.129   3.523  1.00  0.00     0.058 C 
ENDBRANCH   7   8
ENDBRANCH   2   7
BRANCH   1  14
HETATM   14  C   UNL     1      63.461   8.152   6.067  1.00  0.00     0.254 C 
HETATM   15  O   UNL     1      62.510   7.673   6.667  1.00  0.00    -0.268 OA
HETATM   16  N   UNL     1      64.772   7.744   6.186  1.00  0.00    -0.361 N 
HETATM   17  C   UNL     1      65.235   6.666   7.003  1.00  0.00     0.149 C 
HETATM   18  H   UNL     1      65.446   8.237   5.665  1.00  0.00     0.162 HD
ENDBRANCH   1  14
TORSDOF 3
ENDMDL
MODEL 4
REMARK VINA RESULT:      -4.9      3.198      6.441
REMARK  3 active torsions:
REMARK  status: ('A' for Active; 'I' for Inactive)
REMARK    1  A    between atoms: C_1  and  C_2 
REMARK       I    between atoms: C_2  and  N_7 
REMARK    2  A    between atoms: C_3  and  O_4 
REMARK    3  A    between atoms: O_4  and  C_8 
ROOT
HETATM    1  C   UNL     1      62.595   8.120   4.135  1.00  0.00     0.065 C 
HETATM    2  C   UNL     1      63.252   8.691   5.247  1.00  0.00     0.085 C 
HETATM    3  C   UNL     1      61.748   8.861   3.307  1.00  0.00     0.020 C 
HETATM    4  C   UNL     1      63.228  10.076   5.359  1.00  0.00     0.038 C 
HETATM    5  C   UNL     1      61.684  10.239   3.479  1.00  0.00     0.001 C 
HETATM    6  C   UNL     1      62.471  10.846   4.460  1.00  0.00     0.003 C 
ENDROOT
BRANCH   2   7
HETATM    7  O   UNL     1      63.919   7.816   6.050  1.00  0.00    -0.345 OA
BRANCH   7   8
HETATM    8  C   UNL     1      65.336   7.746   6.263  1.00  0.00     0.133 C 
HETATM    9  C   UNL     1      66.263   7.919   5.051  1.00  0.00     0.058 C 
HETATM   10  C   UNL     1      67.666   7.329   5.218  1.00  0.00     0.170 C 
HETATM   11  O   UNL     1      67.715   6.197   6.080  1.00  0.00    -0.391 OA
HETATM   12  C   UNL     1      67.186   6.494   7.366  1.00  0.00     0.170 C 
HETATM   13  C   UNL     1      65.683   6.615   7.227  1.00  0.00     0.058 C 
ENDBRANCH   7   8
ENDBRANCH   2   7
BRANCH   1  14
HETATM   14  C   UNL     1      63.114   6.855   3.554  1.00  0.00     0.254 C 
HETATM   15  O   UNL     1      63.860   6.827   2.586  1.00  0.00    -0.268 OA
HETATM   16  N   UNL     1      62.779   5.774   4.340  1.00  0.00    -0.361 N 
HETATM   17  C   UNL     1      63.278   4.444   4.180  1.00  0.00     0.149 C 
HETATM   18  H   UNL     1      62.143   5.932   5.075  1.00  0.00     0.162 HD
ENDBRANCH   1  14
TORSDOF 3
ENDMDL
MODEL 5
REMARK VINA RESULT:      -4.8      2.329      3.811
REMARK  3 active torsions:
REMARK  status: ('A' for Active; 'I' for Inactive)
REMARK    1  A    between atoms: C_1  and  C_2 
REMARK       I    between atoms: C_2  and  N_7 
REMARK    2  A    between atoms: C_3  and  O_4 
REMARK    3  A    between atoms: O_4  and  C_8 
ROOT
HETATM    1  C   UNL     1      61.682   9.507   3.210  1.00  0.00     0.065 C 
HETATM    2  C   UNL     1      62.205   8.549   4.106  1.00  0.00     0.085 C 
HETATM    3  C   UNL     1      61.706  10.877   3.484  1.00  0.00     0.020 C 
HETATM    4  C   UNL     1      62.969   9.020   5.168  1.00  0.00     0.038 C 
HETATM    5  C   UNL     1      62.418  11.324   4.591  1.00  0.00     0.001 C 
HETATM    6  C   UNL     1      63.097  10.401   5.389  1.00  0.00     0.003 C 
ENDROOT
BRANCH   2   7
HETATM    7  O   UNL     1      61.973   7.248   3.779  1.00  0.00    -0.345 OA
BRANCH   7   8
HETATM    8  C   UNL     1      61.090   6.333   4.443  1.00  0.00     0.133 C 
HETATM    9  C   UNL     1      59.596   6.685   4.514  1.00  0.00     0.058 C 
HETATM   10  C   UNL     1      58.820   5.993   5.638  1.00  0.00     0.170 C 
HETATM   11  O   UNL     1      59.607   5.704   6.788  1.00  0.00    -0.391 OA
HETATM   12  C   UNL     1      60.743   4.913   6.461  1.00  0.00     0.170 C 
HETATM   13  C   UNL     1      61.724   5.802   5.725  1.00  0.00     0.058 C 
ENDBRANCH   7   8
ENDBRANCH   2   7
BRANCH   1  14
HETATM   14  C   UNL     1      61.496   9.142   1.782  1.00  0.00     0.254 C 
HETATM   15  O   UNL     1      62.403   9.185   0.964  1.00  0.00    -0.268 OA
HETATM   16  N   UNL     1      60.244   8.609   1.565  1.00  0.00    -0.361 N 
HETATM   17  C   UNL     1      59.807   7.980   0.358  1.00  0.00     0.149 C 
HETATM   18  H   UNL     1      59.596   8.666   2.304  1.00  0.00     0.162 HD
ENDBRANCH   1  14
TORSDOF 3
ENDMDL
MODEL 6
REMARK VINA RESULT:      -4.8      3.060      4.429
REMARK  3 active torsions:
REMARK  status: ('A' for Active; 'I' for Inactive)
REMARK    1  A    between atoms: C_1  and  C_2 
REMARK       I    between atoms: C_2  and  N_7 
REMARK    2  A    between atoms: C_3  and  O_4 
REMARK    3  A    between atoms: O_4  and  C_8 
ROOT
HETATM    1  C   UNL     1      64.116   6.705   5.943  1.00  0.00     0.065 C 
HETATM    2  C   UNL     1      64.506   7.504   4.846  1.00  0.00     0.085 C 
HETATM    3  C   UNL     1      64.968   6.452   7.021  1.00  0.00     0.020 C 
HETATM    4  C   UNL     1      65.678   8.239   4.976  1.00  0.00     0.038 C 
HETATM    5  C   UNL     1      66.169   7.145   7.099  1.00  0.00     0.001 C 
HETATM    6  C   UNL     1      66.489   8.079   6.113  1.00  0.00     0.003 C 
ENDROOT
BRANCH   2   7
HETATM    7  O   UNL     1      63.633   7.536   3.800  1.00  0.00    -0.345 OA
BRANCH   7   8
HETATM    8  C   UNL     1      62.684   8.568   3.496  1.00  0.00     0.133 C 
HETATM    9  C   UNL     1      62.423   8.904   2.020  1.00  0.00     0.058 C 
HETATM   10  C   UNL     1      61.846  10.299   1.765  1.00  0.00     0.170 C 
HETATM   11  O   UNL     1      62.242  11.270   2.727  1.00  0.00    -0.391 OA
HETATM   12  C   UNL     1      61.905  10.869   4.049  1.00  0.00     0.170 C 
HETATM   13  C   UNL     1      62.849   9.752   4.444  1.00  0.00     0.058 C 
ENDBRANCH   7   8
ENDBRANCH   2   7
BRANCH   1  14
HETATM   14  C   UNL     1      62.670   6.476   6.199  1.00  0.00     0.254 C 
HETATM   15  O   UNL     1      62.004   7.198   6.926  1.00  0.00    -0.268 OA
HETATM   16  N   UNL     1      62.177   5.472   5.395  1.00  0.00    -0.361 N 
HETATM   17  C   UNL     1      60.797   5.130   5.246  1.00  0.00     0.149 C 
HETATM   18  H   UNL     1      62.830   4.946   4.880  1.00  0.00     0.162 HD
ENDBRANCH   1  14
TORSDOF 3
ENDMDL
MODEL 7
REMARK VINA RESULT:      -4.7      3.192      5.206
REMARK  3 active torsions:
REMARK  status: ('A' for Active; 'I' for Inactive)
REMARK    1  A    between atoms: C_1  and  C_2 
REMARK       I    between atoms: C_2  and  N_7 
REMARK    2  A    between atoms: C_3  and  O_4 
REMARK    3  A    between atoms: O_4  and  C_8 
ROOT
HETATM    1  C   UNL     1      65.202   6.133   5.358  1.00  0.00     0.065 C 
HETATM    2  C   UNL     1      65.251   7.512   5.660  1.00  0.00     0.085 C 
HETATM    3  C   UNL     1      66.354   5.381   5.116  1.00  0.00     0.020 C 
HETATM    4  C   UNL     1      66.496   8.057   5.953  1.00  0.00     0.038 C 
HETATM    5  C   UNL     1      67.593   5.965   5.349  1.00  0.00     0.001 C 
HETATM    6  C   UNL     1      67.657   7.275   5.825  1.00  0.00     0.003 C 
ENDROOT
BRANCH   2   7
HETATM    7  O   UNL     1      64.047   8.146   5.717  1.00  0.00    -0.345 OA
BRANCH   7   8
HETATM    8  C   UNL     1      63.602   9.233   4.893  1.00  0.00     0.133 C 
HETATM    9  C   UNL     1      63.215  10.553   5.576  1.00  0.00     0.058 C 
HETATM   10  C   UNL     1      62.282  11.455   4.764  1.00  0.00     0.170 C 
HETATM   11  O   UNL     1      61.408  10.744   3.894  1.00  0.00    -0.391 OA
HETATM   12  C   UNL     1      62.127   9.903   3.000  1.00  0.00     0.170 C 
HETATM   13  C   UNL     1      62.661   8.734   3.799  1.00  0.00     0.058 C 
ENDBRANCH   7   8
ENDBRANCH   2   7
BRANCH   1  14
HETATM   14  C   UNL     1      63.989   5.354   5.715  1.00  0.00     0.254 C 
HETATM   15  O   UNL     1      63.810   4.879   6.827  1.00  0.00    -0.268 OA
HETATM   16  N   UNL     1      63.059   5.390   4.699  1.00  0.00    -0.361 N 
HETATM   17  C   UNL     1      61.715   4.911   4.787  1.00  0.00     0.149 C 
HETATM   18  H   UNL     1      63.345   5.777   3.841  1.00  0.00     0.162 HD
ENDBRANCH   1  14
TORSDOF 3
ENDMDL
MODEL 8
REMARK VINA RESULT:      -4.7      3.448      6.259
REMARK  3 active torsions:
REMARK  status: ('A' for Active; 'I' for Inactive)
REMARK    1  A    between atoms: C_1  and  C_2 
REMARK       I    between atoms: C_2  and  N_7 
REMARK    2  A    between atoms: C_3  and  O_4 
REMARK    3  A    between atoms: O_4  and  C_8 
ROOT
HETATM    1  C   UNL     1      62.741   7.766   4.618  1.00  0.00     0.065 C 
HETATM    2  C   UNL     1      63.537   6.882   3.857  1.00  0.00     0.085 C 
HETATM    3  C   UNL     1      62.038   8.825   4.037  1.00  0.00     0.020 C 
HETATM    4  C   UNL     1      63.413   6.942   2.474  1.00  0.00     0.038 C 
HETATM    5  C   UNL     1      61.983   8.908   2.651  1.00  0.00     0.001 C 
HETATM    6  C   UNL     1      62.616   7.933   1.878  1.00  0.00     0.003 C 
ENDROOT
BRANCH   2   7
HETATM    7  O   UNL     1      64.284   5.998   4.575  1.00  0.00    -0.345 OA
BRANCH   7   8
HETATM    8  C   UNL     1      65.443   6.288   5.370  1.00  0.00     0.133 C 
HETATM    9  C   UNL     1      65.400   5.950   6.868  1.00  0.00     0.058 C 
HETATM   10  C   UNL     1      66.390   6.730   7.737  1.00  0.00     0.170 C 
HETATM   11  O   UNL     1      66.693   8.028   7.241  1.00  0.00    -0.391 OA
HETATM   12  C   UNL     1      67.191   7.979   5.909  1.00  0.00     0.170 C 
HETATM   13  C   UNL     1      66.029   7.647   4.997  1.00  0.00     0.058 C 
ENDBRANCH   7   8
ENDBRANCH   2   7
BRANCH   1  14
HETATM   14  C   UNL     1      62.273   7.348   5.965  1.00  0.00     0.254 C 
HETATM   15  O   UNL     1      62.582   7.941   6.987  1.00  0.00    -0.268 OA
HETATM   16  N   UNL     1      61.342   6.337   5.874  1.00  0.00    -0.361 N 
HETATM   17  C   UNL     1      60.552   5.836   6.955  1.00  0.00     0.149 C 
HETATM   18  H   UNL     1      61.210   5.924   4.990  1.00  0.00     0.162 HD
ENDBRANCH   1  14
TORSDOF 3
ENDMDL
MODEL 9
REMARK VINA RESULT:      -4.6      4.273      7.472
REMARK  3 active torsions:
REMARK  status: ('A' for Active; 'I' for Inactive)
REMARK    1  A    between atoms: C_1  and  C_2 
REMARK       I    between atoms: C_2  and  N_7 
REMARK    2  A    between atoms: C_3  and  O_4 
REMARK    3  A    between atoms: O_4  and  C_8 
ROOT
HETATM    1  C   UNL     1      62.663   6.730   5.811  1.00  0.00     0.065 C 
HETATM    2  C   UNL     1      63.883   7.367   6.129  1.00  0.00     0.085 C 
HETATM    3  C   UNL     1      61.825   7.188   4.791  1.00  0.00     0.020 C 
HETATM    4  C   UNL     1      64.353   8.325   5.238  1.00  0.00     0.038 C 
HETATM    5  C   UNL     1      62.285   8.196   3.953  1.00  0.00     0.001 C 
HETATM    6  C   UNL     1      63.568   8.715   4.140  1.00  0.00     0.003 C 
ENDROOT
BRANCH   2   7
HETATM    7  O   UNL     1      64.516   6.905   7.242  1.00  0.00    -0.345 OA
BRANCH   7   8
HETATM    8  C   UNL     1      65.920   6.653   7.398  1.00  0.00     0.133 C 
HETATM    9  C   UNL     1      66.605   5.709   6.397  1.00  0.00     0.058 C 
HETATM   10  C   UNL     1      67.906   5.074   6.892  1.00  0.00     0.170 C 
HETATM   11  O   UNL     1      67.954   4.881   8.301  1.00  0.00    -0.391 OA
HETATM   12  C   UNL     1      67.742   6.099   9.005  1.00  0.00     0.170 C 
HETATM   13  C   UNL     1      66.277   6.458   8.869  1.00  0.00     0.058 C 
ENDBRANCH   7   8
ENDBRANCH   2   7
BRANCH   1  14
HETATM   14  C   UNL     1      62.445   5.323   6.237  1.00  0.00     0.254 C 
HETATM   15  O   UNL     1      61.457   4.966   6.861  1.00  0.00    -0.268 OA
HETATM   16  N   UNL     1      63.401   4.489   5.700  1.00  0.00    -0.361 N 
HETATM   17  C   UNL     1      63.377   3.060   5.748  1.00  0.00     0.149 C 
HETATM   18  H   UNL     1      64.164   4.912   5.245  1.00  0.00     0.162 HD
ENDBRANCH   1  14
TORSDOF 3
ENDMDL
