MODEL 1
REMARK VINA RESULT:      -4.9      0.000      0.000
REMARK  1 active torsions:
REMARK  status: ('A' for Active; 'I' for Inactive)
REMARK    1  A    between atoms: C_1  and  C_2 
REMARK       I    between atoms: C_1  and  N_4 
ROOT
HETATM    1  C   UNL     1      63.175   7.865   6.023  1.00  0.00     0.270 C 
HETATM    2  N   UNL     1      64.386   7.209   5.789  1.00  0.00    -0.343 N 
HETATM    3  O   UNL     1      62.490   7.568   7.007  1.00  0.00    -0.266 OA
HETATM    4  O   UNL     1      67.165   7.034   6.422  1.00  0.00    -0.388 OA
HETATM    5  C   UNL     1      65.413   7.576   4.805  1.00  0.00     0.152 C 
HETATM    6  C   UNL     1      64.872   6.238   6.772  1.00  0.00     0.152 C 
HETATM    7  C   UNL     1      66.170   6.743   7.418  1.00  0.00     0.187 C 
HETATM    8  C   UNL     1      66.691   8.036   5.511  1.00  0.00     0.187 C 
ENDROOT
BRANCH   1   9
HETATM    9  C   UNL     1      62.761   8.929   5.123  1.00  0.00     0.102 C 
HETATM   10  N   UNL     1      62.159   8.734   3.889  1.00  0.00    -0.357 N 
HETATM   11  C   UNL     1      61.817   9.943   3.334  1.00  0.00     0.091 C 
HETATM   12  C   UNL     1      61.880   7.472   3.235  1.00  0.00     0.156 C 
HETATM   13  C   UNL     1      62.281  10.939   4.154  1.00  0.00     0.020 C 
HETATM   14  C   UNL     1      62.933  10.308   5.236  1.00  0.00     0.037 C 
ENDBRANCH   1   9
TORSDOF 1
ENDMDL
MODEL 2
REMARK VINA RESULT:      -4.8      1.622      2.833
REMARK  1 active torsions:
REMARK  status: ('A' for Active; 'I' for Inactive)
REMARK    1  A    between atoms: C_1  and  C_2 
REMARK       I    between atoms: C_1  and  N_4 
ROOT
HETATM    1  C   UNL     1      64.336   8.412   5.125  1.00  0.00     0.270 C 
HETATM    2  N   UNL     1      63.901   7.460   6.050  1.00  0.00    -0.343 N 
HETATM    3  O   UNL     1      65.538   8.679   5.030  1.00  0.00    -0.266 OA
HETATM    4  O   UNL     1      63.541   4.687   6.628  1.00  0.00    -0.388 OA
HETATM    5  C   UNL     1      62.558   6.874   6.148  1.00  0.00     0.152 C 
HETATM    6  C   UNL     1      64.895   6.721   6.833  1.00  0.00     0.152 C 
HETATM    7  C   UNL     1      64.861   5.232   6.462  1.00  0.00     0.187 C 
HETATM    8  C   UNL     1      62.598   5.383   5.802  1.00  0.00     0.187 C 
ENDROOT
BRANCH   1   9
HETATM    9  C   UNL     1      63.364   9.043   4.248  1.00  0.00     0.102 C 
HETATM   10  N   UNL     1      62.734  10.252   4.504  1.00  0.00    -0.357 N 
HETATM   11  C   UNL     1      61.941  10.607   3.439  1.00  0.00     0.091 C 
HETATM   12  C   UNL     1      62.866  11.083   5.683  1.00  0.00     0.156 C 
HETATM   13  C   UNL     1      61.970   9.585   2.524  1.00  0.00     0.020 C 
HETATM   14  C   UNL     1      62.801   8.578   3.061  1.00  0.00     0.037 C 
ENDBRANCH   1   9
TORSDOF 1
ENDMDL
MODEL 3
REMARK VINA RESULT:      -4.5      2.436      3.572
REMARK  1 active torsions:
REMARK  status: ('A' for Active; 'I' for Inactive)
REMARK    1  A    between atoms: C_1  and  C_2 
REMARK       I    between atoms: C_1  and  N_4 
ROOT
HETATM    1  C   UNL     1      65.947   7.680   6.529  1.00  0.00     0.270 C 
HETATM    2  N   UNL     1      65.989   6.685   7.509  1.00  0.00    -0.343 N 
HETATM    3  O   UNL     1      66.592   8.723   6.677  1.00  0.00    -0.266 OA
HETATM    4  O   UNL     1      67.424   4.466   8.592  1.00  0.00    -0.388 OA
HETATM    5  C   UNL     1      65.465   5.317   7.401  1.00  0.00     0.152 C 
HETATM    6  C   UNL     1      66.879   6.856   8.660  1.00  0.00     0.152 C 
HETATM    7  C   UNL     1      67.983   5.790   8.639  1.00  0.00     0.187 C 
HETATM    8  C   UNL     1      66.610   4.301   7.423  1.00  0.00     0.187 C 
ENDROOT
BRANCH   1   9
HETATM    9  C   UNL     1      65.174   7.450   5.319  1.00  0.00     0.102 C 
HETATM   10  N   UNL     1      65.621   6.736   4.218  1.00  0.00    -0.357 N 
HETATM   11  C   UNL     1      64.619   6.632   3.283  1.00  0.00     0.091 C 
HETATM   12  C   UNL     1      66.927   6.139   4.025  1.00  0.00     0.156 C 
HETATM   13  C   UNL     1      63.544   7.361   3.724  1.00  0.00     0.020 C 
HETATM   14  C   UNL     1      63.916   7.930   4.961  1.00  0.00     0.037 C 
ENDBRANCH   1   9
TORSDOF 1
ENDMDL
MODEL 4
REMARK VINA RESULT:      -4.5      2.370      3.577
REMARK  1 active torsions:
REMARK  status: ('A' for Active; 'I' for Inactive)
REMARK    1  A    between atoms: C_1  and  C_2 
REMARK       I    between atoms: C_1  and  N_4 
ROOT
HETATM    1  C   UNL     1      65.941   7.497   6.572  1.00  0.00     0.270 C 
HETATM    2  N   UNL     1      66.043   6.561   7.604  1.00  0.00    -0.343 N 
HETATM    3  O   UNL     1      66.479   8.604   6.685  1.00  0.00    -0.266 OA
HETATM    4  O   UNL     1      67.642   4.548   8.848  1.00  0.00    -0.388 OA
HETATM    5  C   UNL     1      65.655   5.145   7.552  1.00  0.00     0.152 C 
HETATM    6  C   UNL     1      66.870   6.875   8.772  1.00  0.00     0.152 C 
HETATM    7  C   UNL     1      68.071   5.921   8.842  1.00  0.00     0.187 C 
HETATM    8  C   UNL     1      66.891   4.247   7.664  1.00  0.00     0.187 C 
ENDROOT
BRANCH   1   9
HETATM    9  C   UNL     1      65.239   7.134   5.352  1.00  0.00     0.102 C 
HETATM   10  N   UNL     1      63.862   7.172   5.190  1.00  0.00    -0.357 N 
HETATM   11  C   UNL     1      63.530   6.850   3.896  1.00  0.00     0.091 C 
HETATM   12  C   UNL     1      62.867   7.515   6.184  1.00  0.00     0.156 C 
HETATM   13  C   UNL     1      64.679   6.503   3.231  1.00  0.00     0.020 C 
HETATM   14  C   UNL     1      65.737   6.611   4.160  1.00  0.00     0.037 C 
ENDBRANCH   1   9
TORSDOF 1
ENDMDL
MODEL 5
REMARK VINA RESULT:      -4.4      1.708      2.044
REMARK  1 active torsions:
REMARK  status: ('A' for Active; 'I' for Inactive)
REMARK    1  A    between atoms: C_1  and  C_2 
REMARK       I    between atoms: C_1  and  N_4 
ROOT
HETATM    1  C   UNL     1      62.052   7.998   4.007  1.00  0.00     0.270 C 
HETATM    2  N   UNL     1      63.291   7.414   4.281  1.00  0.00    -0.343 N 
HETATM    3  O   UNL     1      61.009   7.395   4.281  1.00  0.00    -0.266 OA
HETATM    4  O   UNL     1      65.293   6.883   6.247  1.00  0.00    -0.388 OA
HETATM    5  C   UNL     1      64.607   8.065   4.219  1.00  0.00     0.152 C 
HETATM    6  C   UNL     1      63.333   6.127   4.981  1.00  0.00     0.152 C 
HETATM    7  C   UNL     1      63.985   6.296   6.361  1.00  0.00     0.187 C 
HETATM    8  C   UNL     1      65.218   8.170   5.619  1.00  0.00     0.187 C 
ENDROOT
BRANCH   1   9
HETATM    9  C   UNL     1      62.010   9.336   3.441  1.00  0.00     0.102 C 
HETATM   10  N   UNL     1      62.046   9.625   2.085  1.00  0.00    -0.357 N 
HETATM   11  C   UNL     1      61.902  10.977   1.886  1.00  0.00     0.091 C 
HETATM   12  C   UNL     1      62.185   8.690   0.988  1.00  0.00     0.156 C 
HETATM   13  C   UNL     1      61.871  11.591   3.112  1.00  0.00     0.020 C 
HETATM   14  C   UNL     1      62.010  10.574   4.082  1.00  0.00     0.037 C 
ENDBRANCH   1   9
TORSDOF 1
ENDMDL
MODEL 6
REMARK VINA RESULT:      -4.4      1.903      4.882
REMARK  1 active torsions:
REMARK  status: ('A' for Active; 'I' for Inactive)
REMARK    1  A    between atoms: C_1  and  C_2 
REMARK       I    between atoms: C_1  and  N_4 
ROOT
HETATM    1  C   UNL     1      64.702   8.620   4.943  1.00  0.00     0.270 C 
HETATM    2  N   UNL     1      63.854   8.311   3.876  1.00  0.00    -0.343 N 
HETATM    3  O   UNL     1      64.504   9.635   5.617  1.00  0.00    -0.266 OA
HETATM    4  O   UNL     1      61.372   7.159   3.060  1.00  0.00    -0.388 OA
HETATM    5  C   UNL     1      63.815   7.055   3.115  1.00  0.00     0.152 C 
HETATM    6  C   UNL     1      62.680   9.153   3.632  1.00  0.00     0.152 C 
HETATM    7  C   UNL     1      61.394   8.348   3.867  1.00  0.00     0.187 C 
HETATM    8  C   UNL     1      62.495   6.320   3.364  1.00  0.00     0.187 C 
ENDROOT
BRANCH   1   9
HETATM    9  C   UNL     1      65.785   7.708   5.273  1.00  0.00     0.102 C 
HETATM   10  N   UNL     1      65.656   6.580   6.069  1.00  0.00    -0.357 N 
HETATM   11  C   UNL     1      66.846   5.894   6.112  1.00  0.00     0.091 C 
HETATM   12  C   UNL     1      64.469   6.120   6.760  1.00  0.00     0.156 C 
HETATM   13  C   UNL     1      67.786   6.620   5.427  1.00  0.00     0.020 C 
HETATM   14  C   UNL     1      67.142   7.788   4.964  1.00  0.00     0.037 C 
ENDBRANCH   1   9
TORSDOF 1
ENDMDL
MODEL 7
REMARK VINA RESULT:      -4.4      1.984      4.848
REMARK  1 active torsions:
REMARK  status: ('A' for Active; 'I' for Inactive)
REMARK    1  A    between atoms: C_1  and  C_2 
REMARK       I    between atoms: C_1  and  N_4 
ROOT
HETATM    1  C   UNL     1      63.849   7.685   3.954  1.00  0.00     0.270 C 
HETATM    2  N   UNL     1      62.819   8.558   4.313  1.00  0.00    -0.343 N 
HETATM    3  O   UNL     1      63.871   7.185   2.825  1.00  0.00    -0.266 OA
HETATM    4  O   UNL     1      61.809  11.227   4.199  1.00  0.00    -0.388 OA
HETATM    5  C   UNL     1      62.752   9.396   5.518  1.00  0.00     0.152 C 
HETATM    6  C   UNL     1      61.828   8.944   3.305  1.00  0.00     0.152 C 
HETATM    7  C   UNL     1      61.938  10.444   3.000  1.00  0.00     0.187 C 
HETATM    8  C   UNL     1      62.830  10.879   5.144  1.00  0.00     0.187 C 
ENDROOT
BRANCH   1   9
HETATM    9  C   UNL     1      64.911   7.413   4.909  1.00  0.00     0.102 C 
HETATM   10  N   UNL     1      64.837   6.481   5.932  1.00  0.00    -0.357 N 
HETATM   11  C   UNL     1      66.038   6.411   6.596  1.00  0.00     0.091 C 
HETATM   12  C   UNL     1      63.704   5.652   6.289  1.00  0.00     0.156 C 
HETATM   13  C   UNL     1      66.873   7.367   6.075  1.00  0.00     0.020 C 
HETATM   14  C   UNL     1      66.145   8.040   5.069  1.00  0.00     0.037 C 
ENDBRANCH   1   9
TORSDOF 1
ENDMDL
MODEL 8
REMARK VINA RESULT:      -4.3      1.821      2.356
REMARK  1 active torsions:
REMARK  status: ('A' for Active; 'I' for Inactive)
REMARK    1  A    between atoms: C_1  and  C_2 
REMARK       I    between atoms: C_1  and  N_4 
ROOT
HETATM    1  C   UNL     1      64.375   8.634   5.269  1.00  0.00     0.270 C 
HETATM    2  N   UNL     1      65.330   7.655   5.551  1.00  0.00    -0.343 N 
HETATM    3  O   UNL     1      64.540   9.792   5.666  1.00  0.00    -0.266 OA
HETATM    4  O   UNL     1      67.832   6.485   4.825  1.00  0.00    -0.388 OA
HETATM    5  C   UNL     1      65.399   6.300   4.986  1.00  0.00     0.152 C 
HETATM    6  C   UNL     1      66.566   8.041   6.237  1.00  0.00     0.152 C 
HETATM    7  C   UNL     1      67.772   7.838   5.308  1.00  0.00     0.187 C 
HETATM    8  C   UNL     1      66.640   6.152   4.102  1.00  0.00     0.187 C 
ENDROOT
BRANCH   1   9
HETATM    9  C   UNL     1      63.215   8.282   4.467  1.00  0.00     0.102 C 
HETATM   10  N   UNL     1      62.132   7.545   4.921  1.00  0.00    -0.357 N 
HETATM   11  C   UNL     1      61.172   7.464   3.941  1.00  0.00     0.091 C 
HETATM   12  C   UNL     1      61.961   6.943   6.227  1.00  0.00     0.156 C 
HETATM   13  C   UNL     1      61.662   8.062   2.808  1.00  0.00     0.020 C 
HETATM   14  C   UNL     1      62.966   8.510   3.114  1.00  0.00     0.037 C 
ENDBRANCH   1   9
TORSDOF 1
ENDMDL
MODEL 9
REMARK VINA RESULT:      -4.3      1.862      5.568
REMARK  1 active torsions:
REMARK  status: ('A' for Active; 'I' for Inactive)
REMARK    1  A    between atoms: C_1  and  C_2 
REMARK       I    between atoms: C_1  and  N_4 
ROOT
HETATM    1  C   UNL     1      66.490   7.476   6.031  1.00  0.00     0.270 C 
HETATM    2  N   UNL     1      65.230   7.234   5.477  1.00  0.00    -0.343 N 
HETATM    3  O   UNL     1      67.195   8.389   5.590  1.00  0.00    -0.266 OA
HETATM    4  O   UNL     1      62.475   7.981   5.403  1.00  0.00    -0.388 OA
HETATM    5  C   UNL     1      64.189   6.345   6.009  1.00  0.00     0.152 C 
HETATM    6  C   UNL     1      64.724   8.133   4.438  1.00  0.00     0.152 C 
HETATM    7  C   UNL     1      63.490   8.891   4.948  1.00  0.00     0.187 C 
HETATM    8  C   UNL     1      62.974   7.156   6.466  1.00  0.00     0.187 C 
ENDROOT
BRANCH   1   9
HETATM    9  C   UNL     1      66.934   6.673   7.158  1.00  0.00     0.102 C 
HETATM   10  N   UNL     1      67.468   5.397   7.060  1.00  0.00    -0.357 N 
HETATM   11  C   UNL     1      67.865   4.954   8.299  1.00  0.00     0.091 C 
HETATM   12  C   UNL     1      67.637   4.602   5.861  1.00  0.00     0.156 C 
HETATM   13  C   UNL     1      67.502   5.896   9.228  1.00  0.00     0.020 C 
HETATM   14  C   UNL     1      66.857   6.937   8.525  1.00  0.00     0.037 C 
ENDBRANCH   1   9
TORSDOF 1
ENDMDL
