MODEL 1
REMARK VINA RESULT:      -5.6      0.000      0.000
REMARK  2 active torsions:
REMARK  status: ('A' for Active; 'I' for Inactive)
REMARK    1  A    between atoms: C_1  and  S_2 
REMARK    2  A    between atoms: S_2  and  N_7 
ROOT
HETATM    1  S   UNL     1      63.210   7.252   5.991  1.00  0.00     0.252 S 
HETATM    2  O   UNL     1      62.519   7.873   7.102  1.00  0.00    -0.205 OA
HETATM    3  O   UNL     1      62.986   5.864   5.649  1.00  0.00    -0.205 OA
ENDROOT
BRANCH   1   4
HETATM    4  C   UNL     1      62.765   8.244   4.594  1.00  0.00     0.139 A 
HETATM    5  S   UNL     1      62.318   7.441   3.145  1.00  0.00    -0.062 SA
HETATM    6  C   UNL     1      62.076   8.955   2.382  1.00  0.00     0.048 A 
HETATM    7  N   UNL     1      62.303  10.008   3.134  1.00  0.00    -0.356 N 
HETATM    8  C   UNL     1      61.648   9.038   0.958  1.00  0.00     0.076 C 
HETATM    9  C   UNL     1      62.682   9.612   4.409  1.00  0.00     0.036 A 
ATOM     10  HN  UNL     1      62.214  10.976   2.825  1.00  0.00     0.166 HD
HETATM   11  C   UNL     1      62.957  10.683   5.403  1.00  0.00     0.070 C 
ENDBRANCH   1   4
BRANCH   1  12
HETATM   12  N   UNL     1      64.903   7.460   6.238  1.00  0.00    -0.206 NA
HETATM   13  C   UNL     1      65.686   7.422   4.968  1.00  0.00     0.107 C 
HETATM   14  C   UNL     1      67.148   7.764   5.235  1.00  0.00     0.015 C 
HETATM   15  C   UNL     1      67.746   6.814   6.266  1.00  0.00     0.002 C 
HETATM   16  C   UNL     1      66.918   6.846   7.544  1.00  0.00     0.015 C 
HETATM   17  C   UNL     1      65.452   6.522   7.262  1.00  0.00     0.107 C 
ENDBRANCH   1  12
TORSDOF 2
ENDMDL
MODEL 2
REMARK VINA RESULT:      -5.4      1.290      1.763
REMARK  2 active torsions:
REMARK  status: ('A' for Active; 'I' for Inactive)
REMARK    1  A    between atoms: C_1  and  S_2 
REMARK    2  A    between atoms: S_2  and  N_7 
ROOT
HETATM    1  S   UNL     1      63.241   7.365   5.821  1.00  0.00     0.252 S 
HETATM    2  O   UNL     1      62.557   8.022   6.916  1.00  0.00    -0.205 OA
HETATM    3  O   UNL     1      62.993   5.975   5.507  1.00  0.00    -0.205 OA
ENDROOT
BRANCH   1   4
HETATM    4  C   UNL     1      62.820   8.335   4.401  1.00  0.00     0.139 A 
HETATM    5  S   UNL     1      62.469   9.998   4.636  1.00  0.00    -0.062 SA
HETATM    6  C   UNL     1      62.186  10.174   2.956  1.00  0.00     0.048 A 
HETATM    7  N   UNL     1      62.338   9.083   2.240  1.00  0.00    -0.356 N 
HETATM    8  C   UNL     1      61.784  11.486   2.378  1.00  0.00     0.076 C 
HETATM    9  C   UNL     1      62.719   8.026   3.056  1.00  0.00     0.036 A 
ATOM     10  HN  UNL     1      62.197   9.021   1.232  1.00  0.00     0.166 HD
HETATM   11  C   UNL     1      62.959   6.712   2.404  1.00  0.00     0.070 C 
ENDBRANCH   1   4
BRANCH   1  12
HETATM   12  N   UNL     1      64.937   7.548   6.071  1.00  0.00    -0.206 NA
HETATM   13  C   UNL     1      65.729   7.406   4.814  1.00  0.00     0.107 C 
HETATM   14  C   UNL     1      67.197   7.729   5.073  1.00  0.00     0.015 C 
HETATM   15  C   UNL     1      67.762   6.836   6.171  1.00  0.00     0.002 C 
HETATM   16  C   UNL     1      66.924   6.973   7.435  1.00  0.00     0.015 C 
HETATM   17  C   UNL     1      65.453   6.668   7.161  1.00  0.00     0.107 C 
ENDBRANCH   1  12
TORSDOF 2
ENDMDL
MODEL 3
REMARK VINA RESULT:      -5.1      1.742      5.634
REMARK  2 active torsions:
REMARK  status: ('A' for Active; 'I' for Inactive)
REMARK    1  A    between atoms: C_1  and  S_2 
REMARK    2  A    between atoms: S_2  and  N_7 
ROOT
HETATM    1  S   UNL     1      64.507   6.498   4.351  1.00  0.00     0.252 S 
HETATM    2  O   UNL     1      65.336   6.116   3.226  1.00  0.00    -0.205 OA
HETATM    3  O   UNL     1      63.438   5.644   4.820  1.00  0.00    -0.205 OA
ENDROOT
BRANCH   1   4
HETATM    4  C   UNL     1      65.656   6.724   5.679  1.00  0.00     0.139 A 
HETATM    5  S   UNL     1      65.241   6.095   7.220  1.00  0.00    -0.062 SA
HETATM    6  C   UNL     1      66.717   6.685   7.857  1.00  0.00     0.048 A 
HETATM    7  N   UNL     1      67.491   7.312   7.000  1.00  0.00    -0.356 N 
HETATM    8  C   UNL     1      67.065   6.494   9.292  1.00  0.00     0.076 C 
HETATM    9  C   UNL     1      66.901   7.325   5.744  1.00  0.00     0.036 A 
ATOM     10  HN  UNL     1      68.395   7.728   7.226  1.00  0.00     0.166 HD
HETATM   11  C   UNL     1      67.655   7.978   4.642  1.00  0.00     0.070 C 
ENDBRANCH   1   4
BRANCH   1  12
HETATM   12  N   UNL     1      63.825   8.043   4.006  1.00  0.00    -0.206 NA
HETATM   13  C   UNL     1      63.294   8.729   5.221  1.00  0.00     0.107 C 
HETATM   14  C   UNL     1      62.847  10.147   4.877  1.00  0.00     0.015 C 
HETATM   15  C   UNL     1      61.803  10.130   3.766  1.00  0.00     0.002 C 
HETATM   16  C   UNL     1      62.353   9.402   2.547  1.00  0.00     0.015 C 
HETATM   17  C   UNL     1      62.816   7.991   2.906  1.00  0.00     0.107 C 
ENDBRANCH   1  12
TORSDOF 2
ENDMDL
MODEL 4
REMARK VINA RESULT:      -4.6      1.841      4.843
REMARK  2 active torsions:
REMARK  status: ('A' for Active; 'I' for Inactive)
REMARK    1  A    between atoms: C_1  and  S_2 
REMARK    2  A    between atoms: S_2  and  N_7 
ROOT
HETATM    1  S   UNL     1      62.890   7.030   5.557  1.00  0.00     0.252 S 
HETATM    2  O   UNL     1      62.116   5.818   5.378  1.00  0.00    -0.205 OA
HETATM    3  O   UNL     1      63.093   7.604   6.870  1.00  0.00    -0.205 OA
ENDROOT
BRANCH   1   4
HETATM    4  C   UNL     1      64.476   6.637   4.876  1.00  0.00     0.139 A 
HETATM    5  S   UNL     1      64.581   5.313   3.791  1.00  0.00    -0.062 SA
HETATM    6  C   UNL     1      66.265   5.582   3.628  1.00  0.00     0.048 A 
HETATM    7  N   UNL     1      66.746   6.587   4.323  1.00  0.00    -0.356 N 
HETATM    8  C   UNL     1      67.102   4.709   2.759  1.00  0.00     0.076 C 
HETATM    9  C   UNL     1      65.726   7.211   5.029  1.00  0.00     0.036 A 
ATOM     10  HN  UNL     1      67.726   6.869   4.341  1.00  0.00     0.166 HD
HETATM   11  C   UNL     1      66.090   8.391   5.855  1.00  0.00     0.070 C 
ENDBRANCH   1   4
BRANCH   1  12
HETATM   12  N   UNL     1      62.200   8.252   4.557  1.00  0.00    -0.206 NA
HETATM   13  C   UNL     1      62.184   7.880   3.111  1.00  0.00     0.107 C 
HETATM   14  C   UNL     1      61.426   8.927   2.302  1.00  0.00     0.015 C 
HETATM   15  C   UNL     1      62.039  10.309   2.497  1.00  0.00     0.002 C 
HETATM   16  C   UNL     1      62.073  10.659   3.979  1.00  0.00     0.015 C 
HETATM   17  C   UNL     1      62.816   9.593   4.783  1.00  0.00     0.107 C 
ENDBRANCH   1  12
TORSDOF 2
ENDMDL
MODEL 5
REMARK VINA RESULT:      -4.2      3.044      5.688
REMARK  2 active torsions:
REMARK  status: ('A' for Active; 'I' for Inactive)
REMARK    1  A    between atoms: C_1  and  S_2 
REMARK    2  A    between atoms: S_2  and  N_7 
ROOT
HETATM    1  S   UNL     1      61.827   7.005   3.184  1.00  0.00     0.252 S 
HETATM    2  O   UNL     1      61.704   7.859   2.020  1.00  0.00    -0.205 OA
HETATM    3  O   UNL     1      62.159   5.603   3.054  1.00  0.00    -0.205 OA
ENDROOT
BRANCH   1   4
HETATM    4  C   UNL     1      63.082   7.781   4.162  1.00  0.00     0.139 A 
HETATM    5  S   UNL     1      64.427   6.833   4.647  1.00  0.00    -0.062 SA
HETATM    6  C   UNL     1      65.083   8.187   5.467  1.00  0.00     0.048 A 
HETATM    7  N   UNL     1      64.370   9.288   5.399  1.00  0.00    -0.356 N 
HETATM    8  C   UNL     1      66.371   8.086   6.208  1.00  0.00     0.076 C 
HETATM    9  C   UNL     1      63.229   9.072   4.638  1.00  0.00     0.036 A 
ATOM     10  HN  UNL     1      64.619  10.173   5.841  1.00  0.00     0.166 HD
HETATM   11  C   UNL     1      62.314  10.226   4.437  1.00  0.00     0.070 C 
ENDBRANCH   1   4
BRANCH   1  12
HETATM   12  N   UNL     1      60.356   7.111   4.076  1.00  0.00    -0.206 NA
HETATM   13  C   UNL     1      60.095   5.903   4.914  1.00  0.00     0.107 C 
HETATM   14  C   UNL     1      58.867   6.121   5.792  1.00  0.00     0.015 C 
HETATM   15  C   UNL     1      57.648   6.461   4.941  1.00  0.00     0.002 C 
HETATM   16  C   UNL     1      57.943   7.678   4.074  1.00  0.00     0.015 C 
HETATM   17  C   UNL     1      59.187   7.457   3.214  1.00  0.00     0.107 C 
ENDBRANCH   1  12
TORSDOF 2
ENDMDL
MODEL 6
REMARK VINA RESULT:      -4.2      2.693      3.775
REMARK  2 active torsions:
REMARK  status: ('A' for Active; 'I' for Inactive)
REMARK    1  A    between atoms: C_1  and  S_2 
REMARK    2  A    between atoms: S_2  and  N_7 
ROOT
HETATM    1  S   UNL     1      63.447   7.679   3.802  1.00  0.00     0.252 S 
HETATM    2  O   UNL     1      63.479   6.959   2.545  1.00  0.00    -0.205 OA
HETATM    3  O   UNL     1      63.312   9.119   3.839  1.00  0.00    -0.205 OA
ENDROOT
BRANCH   1   4
HETATM    4  C   UNL     1      62.076   6.974   4.672  1.00  0.00     0.139 A 
HETATM    5  S   UNL     1      62.384   6.208   6.176  1.00  0.00    -0.062 SA
HETATM    6  C   UNL     1      60.719   5.836   6.326  1.00  0.00     0.048 A 
HETATM    7  N   UNL     1      59.958   6.245   5.336  1.00  0.00    -0.356 N 
HETATM    8  C   UNL     1      60.202   5.087   7.504  1.00  0.00     0.076 C 
HETATM    9  C   UNL     1      60.723   6.915   4.391  1.00  0.00     0.036 A 
ATOM     10  HN  UNL     1      58.951   6.094   5.272  1.00  0.00     0.166 HD
HETATM   11  C   UNL     1      60.015   7.469   3.207  1.00  0.00     0.070 C 
ENDBRANCH   1   4
BRANCH   1  12
HETATM   12  N   UNL     1      64.870   7.268   4.684  1.00  0.00    -0.206 NA
HETATM   13  C   UNL     1      65.459   8.429   5.413  1.00  0.00     0.107 C 
HETATM   14  C   UNL     1      66.618   7.971   6.293  1.00  0.00     0.015 C 
HETATM   15  C   UNL     1      67.680   7.261   5.462  1.00  0.00     0.002 C 
HETATM   16  C   UNL     1      67.055   6.097   4.704  1.00  0.00     0.015 C 
HETATM   17  C   UNL     1      65.882   6.563   3.842  1.00  0.00     0.107 C 
ENDBRANCH   1  12
TORSDOF 2
ENDMDL
MODEL 7
REMARK VINA RESULT:      -4.0      3.651      5.817
REMARK  2 active torsions:
REMARK  status: ('A' for Active; 'I' for Inactive)
REMARK    1  A    between atoms: C_1  and  S_2 
REMARK    2  A    between atoms: S_2  and  N_7 
ROOT
HETATM    1  S   UNL     1      60.981   5.828   3.285  1.00  0.00     0.252 S 
HETATM    2  O   UNL     1      62.048   4.926   3.666  1.00  0.00    -0.205 OA
HETATM    3  O   UNL     1      60.102   5.525   2.176  1.00  0.00    -0.205 OA
ENDROOT
BRANCH   1   4
HETATM    4  C   UNL     1      59.993   5.975   4.747  1.00  0.00     0.139 A 
HETATM    5  S   UNL     1      60.608   5.312   6.204  1.00  0.00    -0.062 SA
HETATM    6  C   UNL     1      59.195   5.819   7.029  1.00  0.00     0.048 A 
HETATM    7  N   UNL     1      58.307   6.447   6.293  1.00  0.00    -0.356 N 
HETATM    8  C   UNL     1      59.011   5.541   8.480  1.00  0.00     0.076 C 
HETATM    9  C   UNL     1      58.762   6.558   4.986  1.00  0.00     0.036 A 
ATOM     10  HN  UNL     1      57.412   6.801   6.633  1.00  0.00     0.166 HD
HETATM   11  C   UNL     1      57.886   7.266   4.016  1.00  0.00     0.070 C 
ENDBRANCH   1   4
BRANCH   1  12
HETATM   12  N   UNL     1      61.677   7.377   2.988  1.00  0.00    -0.206 NA
HETATM   13  C   UNL     1      61.957   8.139   4.241  1.00  0.00     0.107 C 
HETATM   14  C   UNL     1      62.710   9.426   3.923  1.00  0.00     0.015 C 
HETATM   15  C   UNL     1      61.925  10.281   2.935  1.00  0.00     0.002 C 
HETATM   16  C   UNL     1      61.625   9.478   1.675  1.00  0.00     0.015 C 
HETATM   17  C   UNL     1      60.890   8.181   2.008  1.00  0.00     0.107 C 
ENDBRANCH   1  12
TORSDOF 2
ENDMDL
MODEL 8
REMARK VINA RESULT:      -3.9      8.976     10.239
REMARK  2 active torsions:
REMARK  status: ('A' for Active; 'I' for Inactive)
REMARK    1  A    between atoms: C_1  and  S_2 
REMARK    2  A    between atoms: S_2  and  N_7 
ROOT
HETATM    1  S   UNL     1      57.001   2.010  10.207  1.00  0.00     0.252 S 
HETATM    2  O   UNL     1      56.165   3.144  10.545  1.00  0.00    -0.205 OA
HETATM    3  O   UNL     1      56.472   0.877   9.481  1.00  0.00    -0.205 OA
ENDROOT
BRANCH   1   4
HETATM    4  C   UNL     1      58.318   2.711   9.253  1.00  0.00     0.139 A 
HETATM    5  S   UNL     1      58.230   4.378   8.861  1.00  0.00    -0.062 SA
HETATM    6  C   UNL     1      59.716   4.256   8.017  1.00  0.00     0.048 A 
HETATM    7  N   UNL     1      60.267   3.063   8.013  1.00  0.00    -0.356 N 
HETATM    8  C   UNL     1      60.311   5.438   7.335  1.00  0.00     0.076 C 
HETATM    9  C   UNL     1      59.482   2.173   8.734  1.00  0.00     0.036 A 
ATOM     10  HN  UNL     1      61.143   2.826   7.548  1.00  0.00     0.166 HD
HETATM   11  C   UNL     1      59.971   0.774   8.853  1.00  0.00     0.070 C 
ENDBRANCH   1   4
BRANCH   1  12
HETATM   12  N   UNL     1      57.698   1.414  11.667  1.00  0.00    -0.206 NA
HETATM   13  C   UNL     1      56.679   1.101  12.713  1.00  0.00     0.107 C 
HETATM   14  C   UNL     1      57.341   0.435  13.915  1.00  0.00     0.015 C 
HETATM   15  C   UNL     1      58.444   1.320  14.484  1.00  0.00     0.002 C 
HETATM   16  C   UNL     1      59.458   1.651  13.396  1.00  0.00     0.015 C 
HETATM   17  C   UNL     1      58.782   2.298  12.188  1.00  0.00     0.107 C 
ENDBRANCH   1  12
TORSDOF 2
ENDMDL
MODEL 9
REMARK VINA RESULT:      -3.9      5.055      6.960
REMARK  2 active torsions:
REMARK  status: ('A' for Active; 'I' for Inactive)
REMARK    1  A    between atoms: C_1  and  S_2 
REMARK    2  A    between atoms: S_2  and  N_7 
ROOT
HETATM    1  S   UNL     1      59.169   5.693   5.192  1.00  0.00     0.252 S 
HETATM    2  O   UNL     1      58.814   4.492   4.464  1.00  0.00    -0.205 OA
HETATM    3  O   UNL     1      60.179   5.672   6.228  1.00  0.00    -0.205 OA
ENDROOT
BRANCH   1   4
HETATM    4  C   UNL     1      59.692   6.825   3.935  1.00  0.00     0.139 A 
HETATM    5  S   UNL     1      61.302   7.413   3.999  1.00  0.00    -0.062 SA
HETATM    6  C   UNL     1      61.015   8.347   2.592  1.00  0.00     0.048 A 
HETATM    7  N   UNL     1      59.808   8.246   2.084  1.00  0.00    -0.356 N 
HETATM    8  C   UNL     1      62.079   9.215   2.016  1.00  0.00     0.076 C 
HETATM    9  C   UNL     1      59.046   7.362   2.836  1.00  0.00     0.036 A 
ATOM     10  HN  UNL     1      59.479   8.744   1.257  1.00  0.00     0.166 HD
HETATM   11  C   UNL     1      57.652   7.108   2.386  1.00  0.00     0.070 C 
ENDBRANCH   1   4
BRANCH   1  12
HETATM   12  N   UNL     1      57.728   6.338   5.884  1.00  0.00    -0.206 NA
HETATM   13  C   UNL     1      57.841   6.567   7.355  1.00  0.00     0.107 C 
HETATM   14  C   UNL     1      56.597   7.278   7.878  1.00  0.00     0.015 C 
HETATM   15  C   UNL     1      55.340   6.481   7.551  1.00  0.00     0.002 C 
HETATM   16  C   UNL     1      55.258   6.234   6.050  1.00  0.00     0.015 C 
HETATM   17  C   UNL     1      56.517   5.540   5.533  1.00  0.00     0.107 C 
ENDBRANCH   1  12
TORSDOF 2
ENDMDL
