MODEL 1
REMARK VINA RESULT:      -4.7      0.000      0.000
REMARK  2 active torsions:
REMARK  status: ('A' for Active; 'I' for Inactive)
REMARK    1  A    between atoms: C_1  and  S_2 
REMARK    2  A    between atoms: S_2  and  N_8 
ROOT
HETATM    1  C   UNL     1      62.914   8.364   4.542  1.00  0.00     0.161 A 
HETATM    2  N   UNL     1      62.771   7.913   3.238  1.00  0.00    -0.335 N 
ATOM      3  HN  UNL     1      62.921   6.964   2.897  1.00  0.00     0.168 HD
HETATM    4  C   UNL     1      62.605   9.706   4.616  1.00  0.00     0.135 A 
HETATM    5  C   UNL     1      62.400   8.962   2.530  1.00  0.00     0.079 A 
HETATM    6  N   UNL     1      62.266  10.065   3.344  1.00  0.00    -0.348 N 
HETATM    7  C   UNL     1      61.840  11.382   2.937  1.00  0.00     0.156 C 
HETATM    8  C   UNL     1      62.165   8.959   1.064  1.00  0.00     0.089 C 
ENDROOT
BRANCH   1   9
HETATM    9  S   UNL     1      63.430   7.351   5.870  1.00  0.00     0.260 S 
HETATM   10  O   UNL     1      62.575   7.755   6.968  1.00  0.00    -0.204 OA
HETATM   11  O   UNL     1      63.374   6.006   5.325  1.00  0.00    -0.204 OA
BRANCH   9  12
HETATM   12  N   UNL     1      65.051   7.717   6.269  1.00  0.00    -0.213 NA
HETATM   13  C   UNL     1      65.649   6.810   7.267  1.00  0.00     0.129 C 
HETATM   14  C   UNL     1      65.935   7.950   5.109  1.00  0.00     0.129 C 
ENDBRANCH   9  12
ENDBRANCH   1   9
TORSDOF 2
ENDMDL
MODEL 2
REMARK VINA RESULT:      -4.6      1.898      2.648
REMARK  2 active torsions:
REMARK  status: ('A' for Active; 'I' for Inactive)
REMARK    1  A    between atoms: C_1  and  S_2 
REMARK    2  A    between atoms: S_2  and  N_8 
ROOT
HETATM    1  C   UNL     1      64.209   8.520   5.125  1.00  0.00     0.161 A 
HETATM    2  N   UNL     1      63.679   9.776   5.382  1.00  0.00    -0.335 N 
ATOM      3  HN  UNL     1      63.877  10.373   6.185  1.00  0.00     0.168 HD
HETATM    4  C   UNL     1      63.717   8.033   3.933  1.00  0.00     0.135 A 
HETATM    5  C   UNL     1      62.867  10.039   4.377  1.00  0.00     0.079 A 
HETATM    6  N   UNL     1      62.886   9.008   3.465  1.00  0.00    -0.348 N 
HETATM    7  C   UNL     1      62.158   8.954   2.220  1.00  0.00     0.156 C 
HETATM    8  C   UNL     1      62.045  11.269   4.248  1.00  0.00     0.089 C 
ENDROOT
BRANCH   1   9
HETATM    9  S   UNL     1      65.325   7.699   6.191  1.00  0.00     0.260 S 
HETATM   10  O   UNL     1      66.313   8.710   6.506  1.00  0.00    -0.204 OA
HETATM   11  O   UNL     1      64.472   7.130   7.220  1.00  0.00    -0.204 OA
BRANCH   9  12
HETATM   12  N   UNL     1      66.090   6.426   5.344  1.00  0.00    -0.213 NA
HETATM   13  C   UNL     1      67.208   6.856   4.483  1.00  0.00     0.129 C 
HETATM   14  C   UNL     1      66.427   5.250   6.171  1.00  0.00     0.129 C 
ENDBRANCH   9  12
ENDBRANCH   1   9
TORSDOF 2
ENDMDL
MODEL 3
REMARK VINA RESULT:      -4.6      2.111      3.101
REMARK  2 active torsions:
REMARK  status: ('A' for Active; 'I' for Inactive)
REMARK    1  A    between atoms: C_1  and  S_2 
REMARK    2  A    between atoms: S_2  and  N_8 
ROOT
HETATM    1  C   UNL     1      64.826   8.230   5.186  1.00  0.00     0.161 A 
HETATM    2  N   UNL     1      64.132   9.407   5.421  1.00  0.00    -0.335 N 
ATOM      3  HN  UNL     1      64.294  10.077   6.173  1.00  0.00     0.168 HD
HETATM    4  C   UNL     1      64.329   7.602   4.065  1.00  0.00     0.135 A 
HETATM    5  C   UNL     1      63.218   9.484   4.473  1.00  0.00     0.079 A 
HETATM    6  N   UNL     1      63.327   8.413   3.616  1.00  0.00    -0.348 N 
HETATM    7  C   UNL     1      62.528   8.173   2.438  1.00  0.00     0.156 C 
HETATM    8  C   UNL     1      62.211  10.569   4.348  1.00  0.00     0.089 C 
ENDROOT
BRANCH   1   9
HETATM    9  S   UNL     1      66.129   7.652   6.198  1.00  0.00     0.260 S 
HETATM   10  O   UNL     1      66.953   6.875   5.295  1.00  0.00    -0.204 OA
HETATM   11  O   UNL     1      66.636   8.855   6.836  1.00  0.00    -0.204 OA
BRANCH   9  12
HETATM   12  N   UNL     1      65.498   6.613   7.401  1.00  0.00    -0.213 NA
HETATM   13  C   UNL     1      65.037   5.308   6.894  1.00  0.00     0.129 C 
HETATM   14  C   UNL     1      66.336   6.491   8.611  1.00  0.00     0.129 C 
ENDBRANCH   9  12
ENDBRANCH   1   9
TORSDOF 2
ENDMDL
MODEL 4
REMARK VINA RESULT:      -4.5      1.864      2.008
REMARK  2 active torsions:
REMARK  status: ('A' for Active; 'I' for Inactive)
REMARK    1  A    between atoms: C_1  and  S_2 
REMARK    2  A    between atoms: S_2  and  N_8 
ROOT
HETATM    1  C   UNL     1      64.195   8.296   4.944  1.00  0.00     0.161 A 
HETATM    2  N   UNL     1      63.868   7.638   3.767  1.00  0.00    -0.335 N 
ATOM      3  HN  UNL     1      64.211   6.730   3.456  1.00  0.00     0.168 HD
HETATM    4  C   UNL     1      63.517   9.494   5.022  1.00  0.00     0.135 A 
HETATM    5  C   UNL     1      63.023   8.428   3.134  1.00  0.00     0.079 A 
HETATM    6  N   UNL     1      62.768   9.555   3.883  1.00  0.00    -0.348 N 
HETATM    7  C   UNL     1      61.866  10.627   3.537  1.00  0.00     0.156 C 
HETATM    8  C   UNL     1      62.431   8.146   1.801  1.00  0.00     0.089 C 
ENDROOT
BRANCH   1   9
HETATM    9  S   UNL     1      65.322   7.672   6.126  1.00  0.00     0.260 S 
HETATM   10  O   UNL     1      66.205   8.790   6.389  1.00  0.00    -0.204 OA
HETATM   11  O   UNL     1      64.469   7.123   7.166  1.00  0.00    -0.204 OA
BRANCH   9  12
HETATM   12  N   UNL     1      66.231   6.402   5.431  1.00  0.00    -0.213 NA
HETATM   13  C   UNL     1      67.691   6.548   5.581  1.00  0.00     0.129 C 
HETATM   14  C   UNL     1      65.757   5.045   5.773  1.00  0.00     0.129 C 
ENDBRANCH   9  12
ENDBRANCH   1   9
TORSDOF 2
ENDMDL
MODEL 5
REMARK VINA RESULT:      -4.2      1.735      5.602
REMARK  2 active torsions:
REMARK  status: ('A' for Active; 'I' for Inactive)
REMARK    1  A    between atoms: C_1  and  S_2 
REMARK    2  A    between atoms: S_2  and  N_8 
ROOT
HETATM    1  C   UNL     1      64.797   6.609   6.472  1.00  0.00     0.161 A 
HETATM    2  N   UNL     1      65.347   6.954   7.698  1.00  0.00    -0.335 N 
ATOM      3  HN  UNL     1      64.949   7.585   8.393  1.00  0.00     0.168 HD
HETATM    4  C   UNL     1      65.619   5.715   5.819  1.00  0.00     0.135 A 
HETATM    5  C   UNL     1      66.489   6.299   7.780  1.00  0.00     0.079 A 
HETATM    6  N   UNL     1      66.672   5.516   6.663  1.00  0.00    -0.348 N 
HETATM    7  C   UNL     1      67.783   4.629   6.412  1.00  0.00     0.156 C 
HETATM    8  C   UNL     1      67.444   6.394   8.913  1.00  0.00     0.089 C 
ENDROOT
BRANCH   1   9
HETATM    9  S   UNL     1      63.285   7.247   5.870  1.00  0.00     0.260 S 
HETATM   10  O   UNL     1      62.689   6.128   5.168  1.00  0.00    -0.204 OA
HETATM   11  O   UNL     1      62.656   7.822   7.047  1.00  0.00    -0.204 OA
BRANCH   9  12
HETATM   12  N   UNL     1      63.601   8.497   4.748  1.00  0.00    -0.213 NA
HETATM   13  C   UNL     1      63.236   8.171   3.357  1.00  0.00     0.129 C 
HETATM   14  C   UNL     1      63.127   9.833   5.162  1.00  0.00     0.129 C 
ENDBRANCH   9  12
ENDBRANCH   1   9
TORSDOF 2
ENDMDL
MODEL 6
REMARK VINA RESULT:      -4.2      2.507      2.905
REMARK  2 active torsions:
REMARK  status: ('A' for Active; 'I' for Inactive)
REMARK    1  A    between atoms: C_1  and  S_2 
REMARK    2  A    between atoms: S_2  and  N_8 
ROOT
HETATM    1  C   UNL     1      65.181   8.108   4.927  1.00  0.00     0.161 A 
HETATM    2  N   UNL     1      64.822   7.202   3.940  1.00  0.00    -0.335 N 
ATOM      3  HN  UNL     1      65.347   6.381   3.640  1.00  0.00     0.168 HD
HETATM    4  C   UNL     1      64.208   9.075   5.060  1.00  0.00     0.135 A 
HETATM    5  C   UNL     1      63.663   7.620   3.468  1.00  0.00     0.079 A 
HETATM    6  N   UNL     1      63.249   8.745   4.147  1.00  0.00    -0.348 N 
HETATM    7  C   UNL     1      62.015   9.463   3.940  1.00  0.00     0.156 C 
HETATM    8  C   UNL     1      62.912   6.975   2.362  1.00  0.00     0.089 C 
ENDROOT
BRANCH   1   9
HETATM    9  S   UNL     1      66.669   8.012   5.839  1.00  0.00     0.260 S 
HETATM   10  O   UNL     1      67.704   8.142   4.833  1.00  0.00    -0.204 OA
HETATM   11  O   UNL     1      66.503   9.008   6.884  1.00  0.00    -0.204 OA
BRANCH   9  12
HETATM   12  N   UNL     1      66.795   6.469   6.564  1.00  0.00    -0.213 NA
HETATM   13  C   UNL     1      65.555   5.998   7.209  1.00  0.00     0.129 C 
HETATM   14  C   UNL     1      67.422   5.437   5.713  1.00  0.00     0.129 C 
ENDBRANCH   9  12
ENDBRANCH   1   9
TORSDOF 2
ENDMDL
MODEL 7
REMARK VINA RESULT:      -4.1      2.897      3.796
REMARK  2 active torsions:
REMARK  status: ('A' for Active; 'I' for Inactive)
REMARK    1  A    between atoms: C_1  and  S_2 
REMARK    2  A    between atoms: S_2  and  N_8 
ROOT
HETATM    1  C   UNL     1      65.090   7.619   5.618  1.00  0.00     0.161 A 
HETATM    2  N   UNL     1      64.128   7.229   6.537  1.00  0.00    -0.335 N 
ATOM      3  HN  UNL     1      64.248   7.121   7.544  1.00  0.00     0.168 HD
HETATM    4  C   UNL     1      64.546   7.668   4.353  1.00  0.00     0.135 A 
HETATM    5  C   UNL     1      63.025   7.026   5.843  1.00  0.00     0.079 A 
HETATM    6  N   UNL     1      63.239   7.309   4.513  1.00  0.00    -0.348 N 
HETATM    7  C   UNL     1      62.259   7.243   3.455  1.00  0.00     0.156 C 
HETATM    8  C   UNL     1      61.736   6.556   6.412  1.00  0.00     0.089 C 
ENDROOT
BRANCH   1   9
HETATM    9  S   UNL     1      66.749   7.974   6.040  1.00  0.00     0.260 S 
HETATM   10  O   UNL     1      67.390   8.212   4.762  1.00  0.00    -0.204 OA
HETATM   11  O   UNL     1      66.639   9.026   7.036  1.00  0.00    -0.204 OA
BRANCH   9  12
HETATM   12  N   UNL     1      67.460   6.599   6.765  1.00  0.00    -0.213 NA
HETATM   13  C   UNL     1      67.190   6.468   8.209  1.00  0.00     0.129 C 
HETATM   14  C   UNL     1      67.251   5.336   6.029  1.00  0.00     0.129 C 
ENDBRANCH   9  12
ENDBRANCH   1   9
TORSDOF 2
ENDMDL
MODEL 8
REMARK VINA RESULT:      -4.1      2.069      2.273
REMARK  2 active torsions:
REMARK  status: ('A' for Active; 'I' for Inactive)
REMARK    1  A    between atoms: C_1  and  S_2 
REMARK    2  A    between atoms: S_2  and  N_8 
ROOT
HETATM    1  C   UNL     1      63.999   8.048   5.408  1.00  0.00     0.161 A 
HETATM    2  N   UNL     1      62.931   7.212   5.119  1.00  0.00    -0.335 N 
ATOM      3  HN  UNL     1      62.823   6.237   5.397  1.00  0.00     0.168 HD
HETATM    4  C   UNL     1      63.777   9.301   4.878  1.00  0.00     0.135 A 
HETATM    5  C   UNL     1      62.086   7.935   4.410  1.00  0.00     0.079 A 
HETATM    6  N   UNL     1      62.560   9.220   4.267  1.00  0.00    -0.348 N 
HETATM    7  C   UNL     1      61.894  10.306   3.590  1.00  0.00     0.156 C 
HETATM    8  C   UNL     1      60.807   7.436   3.843  1.00  0.00     0.089 C 
ENDROOT
BRANCH   1   9
HETATM    9  S   UNL     1      65.412   7.546   6.307  1.00  0.00     0.260 S 
HETATM   10  O   UNL     1      66.222   8.745   6.380  1.00  0.00    -0.204 OA
HETATM   11  O   UNL     1      64.864   6.931   7.504  1.00  0.00    -0.204 OA
BRANCH   9  12
HETATM   12  N   UNL     1      66.261   6.359   5.416  1.00  0.00    -0.213 NA
HETATM   13  C   UNL     1      65.909   4.971   5.766  1.00  0.00     0.129 C 
HETATM   14  C   UNL     1      66.294   6.588   3.958  1.00  0.00     0.129 C 
ENDBRANCH   9  12
ENDBRANCH   1   9
TORSDOF 2
ENDMDL
MODEL 9
REMARK VINA RESULT:      -3.8      2.335      4.893
REMARK  2 active torsions:
REMARK  status: ('A' for Active; 'I' for Inactive)
REMARK    1  A    between atoms: C_1  and  S_2 
REMARK    2  A    between atoms: S_2  and  N_8 
ROOT
HETATM    1  C   UNL     1      64.585   7.645   5.934  1.00  0.00     0.161 A 
HETATM    2  N   UNL     1      65.124   6.981   7.026  1.00  0.00    -0.335 N 
ATOM      3  HN  UNL     1      64.613   6.553   7.798  1.00  0.00     0.168 HD
HETATM    4  C   UNL     1      65.591   8.068   5.092  1.00  0.00     0.135 A 
HETATM    5  C   UNL     1      66.432   7.014   6.861  1.00  0.00     0.079 A 
HETATM    6  N   UNL     1      66.748   7.647   5.679  1.00  0.00    -0.348 N 
HETATM    7  C   UNL     1      68.073   7.841   5.140  1.00  0.00     0.156 C 
HETATM    8  C   UNL     1      67.424   6.454   7.812  1.00  0.00     0.089 C 
ENDROOT
BRANCH   1   9
HETATM    9  S   UNL     1      62.872   7.904   5.703  1.00  0.00     0.260 S 
HETATM   10  O   UNL     1      62.297   7.620   7.002  1.00  0.00    -0.204 OA
HETATM   11  O   UNL     1      62.795   9.233   5.119  1.00  0.00    -0.204 OA
BRANCH   9  12
HETATM   12  N   UNL     1      62.271   6.770   4.574  1.00  0.00    -0.213 NA
HETATM   13  C   UNL     1      62.699   7.013   3.184  1.00  0.00     0.129 C 
HETATM   14  C   UNL     1      62.423   5.358   4.978  1.00  0.00     0.129 C 
ENDBRANCH   9  12
ENDBRANCH   1   9
TORSDOF 2
ENDMDL
