MODEL 1
REMARK VINA RESULT:      -4.9      0.000      0.000
REMARK  3 active torsions:
REMARK  status: ('A' for Active; 'I' for Inactive)
REMARK    1  A    between atoms: S_1  and  C_4 
REMARK    2  A    between atoms: S_1  and  C_5 
REMARK    3  A    between atoms: C_3  and  C_5 
ROOT
HETATM    1  C   UNL     1      62.854   8.639   4.726  1.00  0.00     0.001 A 
HETATM    2  C   UNL     1      62.075  10.694   2.975  1.00  0.00    -0.062 A 
HETATM    3  C   UNL     1      62.557   8.352   3.392  1.00  0.00     0.019 A 
HETATM    4  C   UNL     1      62.740   9.951   5.187  1.00  0.00     0.019 A 
HETATM    5  C   UNL     1      62.174   9.375   2.520  1.00  0.00     0.008 A 
HETATM    6  C   UNL     1      62.357  10.975   4.316  1.00  0.00     0.008 A 
HETATM    7  C   UNL     1      61.661  11.782   2.028  1.00  0.00     0.048 C 
ENDROOT
BRANCH   1   8
HETATM    8  S   UNL     1      63.353   7.351   5.851  1.00  0.00    -0.123 SA
BRANCH   8   9
HETATM    9  C   UNL     1      65.047   7.078   5.246  1.00  0.00     0.157 C 
BRANCH   9  10
HETATM   10  C   UNL     1      66.050   7.778   6.135  1.00  0.00     0.132 C 
HETATM   11  O   UNL     1      65.992   8.996   6.328  1.00  0.00    -0.298 OA
HETATM   12  C   UNL     1      67.079   6.934   6.845  1.00  0.00     0.091 C 
ENDBRANCH   9  10
ENDBRANCH   8   9
ENDBRANCH   1   8
TORSDOF 3
ENDMDL
MODEL 2
REMARK VINA RESULT:      -4.9      0.339      1.433
REMARK  3 active torsions:
REMARK  status: ('A' for Active; 'I' for Inactive)
REMARK    1  A    between atoms: S_1  and  C_4 
REMARK    2  A    between atoms: S_1  and  C_5 
REMARK    3  A    between atoms: C_3  and  C_5 
ROOT
HETATM    1  C   UNL     1      62.811   8.571   4.707  1.00  0.00     0.001 A 
HETATM    2  C   UNL     1      62.071  10.655   2.973  1.00  0.00    -0.062 A 
HETATM    3  C   UNL     1      62.727   9.883   5.178  1.00  0.00     0.019 A 
HETATM    4  C   UNL     1      62.545   8.307   3.362  1.00  0.00     0.019 A 
HETATM    5  C   UNL     1      62.354  10.918   4.316  1.00  0.00     0.008 A 
HETATM    6  C   UNL     1      62.172   9.343   2.500  1.00  0.00     0.008 A 
HETATM    7  C   UNL     1      61.673  11.777   2.059  1.00  0.00     0.048 C 
ENDROOT
BRANCH   1   8
HETATM    8  S   UNL     1      63.274   7.235   5.790  1.00  0.00    -0.123 SA
BRANCH   8   9
HETATM    9  C   UNL     1      65.034   7.102   5.349  1.00  0.00     0.157 C 
BRANCH   9  10
HETATM   10  C   UNL     1      65.903   7.697   6.434  1.00  0.00     0.132 C 
HETATM   11  O   UNL     1      66.210   8.892   6.422  1.00  0.00    -0.298 OA
HETATM   12  C   UNL     1      66.317   6.806   7.578  1.00  0.00     0.091 C 
ENDBRANCH   9  10
ENDBRANCH   8   9
ENDBRANCH   1   8
TORSDOF 3
ENDMDL
MODEL 3
REMARK VINA RESULT:      -4.4      1.988      5.755
REMARK  3 active torsions:
REMARK  status: ('A' for Active; 'I' for Inactive)
REMARK    1  A    between atoms: S_1  and  C_4 
REMARK    2  A    between atoms: S_1  and  C_5 
REMARK    3  A    between atoms: C_3  and  C_5 
ROOT
HETATM    1  C   UNL     1      64.618   7.767   5.424  1.00  0.00     0.001 A 
HETATM    2  C   UNL     1      66.322   6.896   7.482  1.00  0.00    -0.062 A 
HETATM    3  C   UNL     1      65.844   8.401   5.639  1.00  0.00     0.019 A 
HETATM    4  C   UNL     1      64.237   6.711   6.254  1.00  0.00     0.019 A 
HETATM    5  C   UNL     1      66.693   7.964   6.659  1.00  0.00     0.008 A 
HETATM    6  C   UNL     1      65.087   6.274   7.275  1.00  0.00     0.008 A 
HETATM    7  C   UNL     1      67.244   6.439   8.574  1.00  0.00     0.048 C 
ENDROOT
BRANCH   1   8
HETATM    8  S   UNL     1      63.525   8.301   4.123  1.00  0.00    -0.123 SA
BRANCH   8   9
HETATM    9  C   UNL     1      62.827   9.779   4.920  1.00  0.00     0.157 C 
BRANCH   9  10
HETATM   10  C   UNL     1      62.145  10.664   3.900  1.00  0.00     0.132 C 
HETATM   11  O   UNL     1      61.851  11.833   4.164  1.00  0.00    -0.298 OA
HETATM   12  C   UNL     1      61.907  10.102   2.521  1.00  0.00     0.091 C 
ENDBRANCH   9  10
ENDBRANCH   8   9
ENDBRANCH   1   8
TORSDOF 3
ENDMDL
MODEL 4
REMARK VINA RESULT:      -4.1      2.252      2.754
REMARK  3 active torsions:
REMARK  status: ('A' for Active; 'I' for Inactive)
REMARK    1  A    between atoms: S_1  and  C_4 
REMARK    2  A    between atoms: S_1  and  C_5 
REMARK    3  A    between atoms: C_3  and  C_5 
ROOT
HETATM    1  C   UNL     1      64.891   7.853   4.963  1.00  0.00     0.001 A 
HETATM    2  C   UNL     1      62.874   8.359   3.072  1.00  0.00    -0.062 A 
HETATM    3  C   UNL     1      64.671   6.961   3.910  1.00  0.00     0.019 A 
HETATM    4  C   UNL     1      64.085   8.987   5.079  1.00  0.00     0.019 A 
HETATM    5  C   UNL     1      63.672   7.216   2.968  1.00  0.00     0.008 A 
HETATM    6  C   UNL     1      63.084   9.242   4.137  1.00  0.00     0.008 A 
HETATM    7  C   UNL     1      61.803   8.619   2.053  1.00  0.00     0.048 C 
ENDROOT
BRANCH   1   8
HETATM    8  S   UNL     1      66.165   7.552   6.169  1.00  0.00    -0.123 SA
BRANCH   8   9
HETATM    9  C   UNL     1      65.238   6.484   7.312  1.00  0.00     0.157 C 
BRANCH   9  10
HETATM   10  C   UNL     1      66.170   5.829   8.307  1.00  0.00     0.132 C 
HETATM   11  O   UNL     1      66.178   4.605   8.464  1.00  0.00    -0.298 OA
HETATM   12  C   UNL     1      67.148   6.708   9.045  1.00  0.00     0.091 C 
ENDBRANCH   9  10
ENDBRANCH   8   9
ENDBRANCH   1   8
TORSDOF 3
ENDMDL
MODEL 5
REMARK VINA RESULT:      -4.1      2.665      3.581
REMARK  3 active torsions:
REMARK  status: ('A' for Active; 'I' for Inactive)
REMARK    1  A    between atoms: S_1  and  C_4 
REMARK    2  A    between atoms: S_1  and  C_5 
REMARK    3  A    between atoms: C_3  and  C_5 
ROOT
HETATM    1  C   UNL     1      62.805   8.735   4.786  1.00  0.00     0.001 A 
HETATM    2  C   UNL     1      62.055  10.741   2.966  1.00  0.00    -0.062 A 
HETATM    3  C   UNL     1      62.735  10.068   5.197  1.00  0.00     0.019 A 
HETATM    4  C   UNL     1      62.520   8.410   3.459  1.00  0.00     0.019 A 
HETATM    5  C   UNL     1      62.357  11.065   4.292  1.00  0.00     0.008 A 
HETATM    6  C   UNL     1      62.143   9.407   2.554  1.00  0.00     0.008 A 
HETATM    7  C   UNL     1      61.653  11.822   2.006  1.00  0.00     0.048 C 
ENDROOT
BRANCH   1   8
HETATM    8  S   UNL     1      63.274   7.448   5.925  1.00  0.00    -0.123 SA
BRANCH   8   9
HETATM    9  C   UNL     1      62.475   6.033   5.108  1.00  0.00     0.157 C 
BRANCH   9  10
HETATM   10  C   UNL     1      61.145   5.723   5.758  1.00  0.00     0.132 C 
HETATM   11  O   UNL     1      61.086   5.148   6.848  1.00  0.00    -0.298 OA
HETATM   12  C   UNL     1      59.892   6.211   5.075  1.00  0.00     0.091 C 
ENDBRANCH   9  10
ENDBRANCH   8   9
ENDBRANCH   1   8
TORSDOF 3
ENDMDL
MODEL 6
REMARK VINA RESULT:      -3.9      2.949      7.289
REMARK  3 active torsions:
REMARK  status: ('A' for Active; 'I' for Inactive)
REMARK    1  A    between atoms: S_1  and  C_4 
REMARK    2  A    between atoms: S_1  and  C_5 
REMARK    3  A    between atoms: C_3  and  C_5 
ROOT
HETATM    1  C   UNL     1      67.805   5.943   6.671  1.00  0.00     0.001 A 
HETATM    2  C   UNL     1      67.963   3.793   8.474  1.00  0.00    -0.062 A 
HETATM    3  C   UNL     1      67.782   4.627   6.203  1.00  0.00     0.019 A 
HETATM    4  C   UNL     1      67.929   6.181   8.041  1.00  0.00     0.019 A 
HETATM    5  C   UNL     1      67.856   3.559   7.100  1.00  0.00     0.008 A 
HETATM    6  C   UNL     1      68.003   5.112   8.939  1.00  0.00     0.008 A 
HETATM    7  C   UNL     1      68.044   2.636   9.426  1.00  0.00     0.048 C 
ENDROOT
BRANCH   1   8
HETATM    8  S   UNL     1      67.702   7.320   5.546  1.00  0.00    -0.123 SA
BRANCH   8   9
HETATM    9  C   UNL     1      66.008   7.067   4.933  1.00  0.00     0.157 C 
BRANCH   9  10
HETATM   10  C   UNL     1      65.079   8.127   5.479  1.00  0.00     0.132 C 
HETATM   11  O   UNL     1      65.518   9.172   5.966  1.00  0.00    -0.298 OA
HETATM   12  C   UNL     1      63.593   7.907   5.340  1.00  0.00     0.091 C 
ENDBRANCH   9  10
ENDBRANCH   8   9
ENDBRANCH   1   8
TORSDOF 3
ENDMDL
MODEL 7
REMARK VINA RESULT:      -3.8      3.363      5.333
REMARK  3 active torsions:
REMARK  status: ('A' for Active; 'I' for Inactive)
REMARK    1  A    between atoms: S_1  and  C_4 
REMARK    2  A    between atoms: S_1  and  C_5 
REMARK    3  A    between atoms: C_3  and  C_5 
ROOT
HETATM    1  C   UNL     1      61.696   7.365   4.554  1.00  0.00     0.001 A 
HETATM    2  C   UNL     1      59.660   5.881   5.798  1.00  0.00    -0.062 A 
HETATM    3  C   UNL     1      61.907   6.796   5.812  1.00  0.00     0.019 A 
HETATM    4  C   UNL     1      60.457   7.209   3.930  1.00  0.00     0.019 A 
HETATM    5  C   UNL     1      60.896   6.054   6.428  1.00  0.00     0.008 A 
HETATM    6  C   UNL     1      59.445   6.466   4.546  1.00  0.00     0.008 A 
HETATM    7  C   UNL     1      58.583   5.083   6.473  1.00  0.00     0.048 C 
ENDROOT
BRANCH   1   8
HETATM    8  S   UNL     1      62.974   8.307   3.746  1.00  0.00    -0.123 SA
BRANCH   8   9
HETATM    9  C   UNL     1      62.658   9.931   4.501  1.00  0.00     0.157 C 
BRANCH   9  10
HETATM   10  C   UNL     1      62.074  10.887   3.484  1.00  0.00     0.132 C 
HETATM   11  O   UNL     1      61.839  12.063   3.776  1.00  0.00    -0.298 OA
HETATM   12  C   UNL     1      61.862  10.385   2.079  1.00  0.00     0.091 C 
ENDBRANCH   9  10
ENDBRANCH   8   9
ENDBRANCH   1   8
TORSDOF 3
ENDMDL
MODEL 8
REMARK VINA RESULT:      -3.7      1.802      2.300
REMARK  3 active torsions:
REMARK  status: ('A' for Active; 'I' for Inactive)
REMARK    1  A    between atoms: S_1  and  C_4 
REMARK    2  A    between atoms: S_1  and  C_5 
REMARK    3  A    between atoms: C_3  and  C_5 
ROOT
HETATM    1  C   UNL     1      62.517   7.726   4.215  1.00  0.00     0.001 A 
HETATM    2  C   UNL     1      60.928   8.096   1.926  1.00  0.00    -0.062 A 
HETATM    3  C   UNL     1      61.224   7.201   4.162  1.00  0.00     0.019 A 
HETATM    4  C   UNL     1      63.006   8.455   3.129  1.00  0.00     0.019 A 
HETATM    5  C   UNL     1      60.436   7.381   3.022  1.00  0.00     0.008 A 
HETATM    6  C   UNL     1      62.218   8.635   1.988  1.00  0.00     0.008 A 
HETATM    7  C   UNL     1      60.071   8.283   0.709  1.00  0.00     0.048 C 
ENDROOT
BRANCH   1   8
HETATM    8  S   UNL     1      63.541   7.500   5.654  1.00  0.00    -0.123 SA
BRANCH   8   9
HETATM    9  C   UNL     1      64.992   8.465   5.132  1.00  0.00     0.157 C 
BRANCH   9  10
HETATM   10  C   UNL     1      66.229   8.014   5.877  1.00  0.00     0.132 C 
HETATM   11  O   UNL     1      66.198   7.795   7.091  1.00  0.00    -0.298 OA
HETATM   12  C   UNL     1      67.483   7.761   5.080  1.00  0.00     0.091 C 
ENDBRANCH   9  10
ENDBRANCH   8   9
ENDBRANCH   1   8
TORSDOF 3
ENDMDL
MODEL 9
REMARK VINA RESULT:      -3.5      2.086      2.751
REMARK  3 active torsions:
REMARK  status: ('A' for Active; 'I' for Inactive)
REMARK    1  A    between atoms: S_1  and  C_4 
REMARK    2  A    between atoms: S_1  and  C_5 
REMARK    3  A    between atoms: C_3  and  C_5 
ROOT
HETATM    1  C   UNL     1      63.956   7.742   4.849  1.00  0.00     0.001 A 
HETATM    2  C   UNL     1      62.552   8.758   2.637  1.00  0.00    -0.062 A 
HETATM    3  C   UNL     1      63.348   8.997   4.917  1.00  0.00     0.019 A 
HETATM    4  C   UNL     1      63.878   7.005   3.666  1.00  0.00     0.019 A 
HETATM    5  C   UNL     1      62.646   9.500   3.818  1.00  0.00     0.008 A 
HETATM    6  C   UNL     1      63.176   7.508   2.567  1.00  0.00     0.008 A 
HETATM    7  C   UNL     1      61.796   9.311   1.465  1.00  0.00     0.048 C 
ENDROOT
BRANCH   1   8
HETATM    8  S   UNL     1      64.848   7.078   6.241  1.00  0.00    -0.123 SA
BRANCH   8   9
HETATM    9  C   UNL     1      66.124   6.140   5.347  1.00  0.00     0.157 C 
BRANCH   9  10
HETATM   10  C   UNL     1      66.574   4.945   6.158  1.00  0.00     0.132 C 
HETATM   11  O   UNL     1      67.762   4.613   6.200  1.00  0.00    -0.298 OA
HETATM   12  C   UNL     1      65.542   4.218   6.981  1.00  0.00     0.091 C 
ENDBRANCH   9  10
ENDBRANCH   8   9
ENDBRANCH   1   8
TORSDOF 3
ENDMDL
