MODEL 1
REMARK VINA RESULT:      -5.4      0.000      0.000
REMARK  1 active torsions:
REMARK  status: ('A' for Active; 'I' for Inactive)
REMARK    1  A    between atoms: C_7  and  N_9 
ROOT
HETATM    1  C   UNL     1      62.357   9.271   3.022  1.00  0.00     0.016 A 
HETATM    2  C   UNL     1      63.248   8.676   3.927  1.00  0.00    -0.042 A 
HETATM    3  C   UNL     1      62.002   8.579   1.754  1.00  0.00     0.160 C 
HETATM    4  C   UNL     1      61.842  10.547   3.270  1.00  0.00     0.018 A 
HETATM    5  C   UNL     1      63.644   9.405   5.062  1.00  0.00     0.037 A 
HETATM    6  O   UNL     1      61.142   9.032   1.008  1.00  0.00    -0.292 OA
HETATM    7  C   UNL     1      63.121  10.674   5.331  1.00  0.00     0.026 A 
HETATM    8  C   UNL     1      62.244  11.249   4.408  1.00  0.00     0.030 A 
HETATM    9  C   UNL     1      63.848   7.317   3.677  1.00  0.00     0.040 C 
HETATM   10  C   UNL     1      62.812   7.354   1.399  1.00  0.00     0.084 C 
HETATM   11  C   UNL     1      63.063   6.517   2.641  1.00  0.00     0.012 C 
ENDROOT
BRANCH   7  12
HETATM   12  N   UNL     1      63.655  11.446   6.368  1.00  0.00    -0.399 N 
HETATM   13  H   UNL     1      63.624  12.429   6.317  1.00  0.00     0.156 HD
HETATM   14  H   UNL     1      64.060  11.007   7.150  1.00  0.00     0.156 HD
ENDBRANCH   7  12
TORSDOF 1
ENDMDL
MODEL 2
REMARK VINA RESULT:      -5.2      2.231      3.393
REMARK  1 active torsions:
REMARK  status: ('A' for Active; 'I' for Inactive)
REMARK    1  A    between atoms: C_7  and  N_9 
ROOT
HETATM    1  C   UNL     1      62.819   9.269   3.786  1.00  0.00     0.016 A 
HETATM    2  C   UNL     1      63.002   8.226   2.866  1.00  0.00    -0.042 A 
HETATM    3  C   UNL     1      62.095  10.504   3.385  1.00  0.00     0.160 C 
HETATM    4  C   UNL     1      63.368   9.185   5.069  1.00  0.00     0.018 A 
HETATM    5  C   UNL     1      63.783   7.121   3.245  1.00  0.00     0.037 A 
HETATM    6  O   UNL     1      61.828  11.373   4.208  1.00  0.00    -0.292 OA
HETATM    7  C   UNL     1      64.322   7.017   4.532  1.00  0.00     0.026 A 
HETATM    8  C   UNL     1      64.134   8.074   5.426  1.00  0.00     0.030 A 
HETATM    9  C   UNL     1      62.452   8.296   1.465  1.00  0.00     0.040 C 
HETATM   10  C   UNL     1      61.789  10.667   1.915  1.00  0.00     0.084 C 
HETATM   11  C   UNL     1      61.348   9.339   1.325  1.00  0.00     0.012 C 
ENDROOT
BRANCH   7  12
HETATM   12  N   UNL     1      65.231   5.997   4.830  1.00  0.00    -0.399 N 
HETATM   13  H   UNL     1      66.026   5.865   4.264  1.00  0.00     0.156 HD
HETATM   14  H   UNL     1      65.078   5.412   5.606  1.00  0.00     0.156 HD
ENDBRANCH   7  12
TORSDOF 1
ENDMDL
MODEL 3
REMARK VINA RESULT:      -5.1      2.551      4.088
REMARK  1 active torsions:
REMARK  status: ('A' for Active; 'I' for Inactive)
REMARK    1  A    between atoms: C_7  and  N_9 
ROOT
HETATM    1  C   UNL     1      62.259   9.754   2.428  1.00  0.00     0.016 A 
HETATM    2  C   UNL     1      62.634   8.768   3.351  1.00  0.00    -0.042 A 
HETATM    3  C   UNL     1      62.021  11.152   2.878  1.00  0.00     0.160 C 
HETATM    4  C   UNL     1      62.044   9.423   1.087  1.00  0.00     0.018 A 
HETATM    5  C   UNL     1      62.746   7.438   2.910  1.00  0.00     0.037 A 
HETATM    6  O   UNL     1      61.804  12.046   2.069  1.00  0.00    -0.292 OA
HETATM    7  C   UNL     1      62.552   7.098   1.567  1.00  0.00     0.026 A 
HETATM    8  C   UNL     1      62.168   8.097   0.670  1.00  0.00     0.030 A 
HETATM    9  C   UNL     1      62.843   9.082   4.810  1.00  0.00     0.040 C 
HETATM   10  C   UNL     1      61.973  11.387   4.370  1.00  0.00     0.084 C 
HETATM   11  C   UNL     1      63.053  10.572   5.060  1.00  0.00     0.012 C 
ENDROOT
BRANCH   7  12
HETATM   12  N   UNL     1      62.501   5.753   1.186  1.00  0.00    -0.399 N 
HETATM   13  H   UNL     1      62.242   5.511   0.267  1.00  0.00     0.156 HD
HETATM   14  H   UNL     1      62.725   5.048   1.836  1.00  0.00     0.156 HD
ENDBRANCH   7  12
TORSDOF 1
ENDMDL
MODEL 4
REMARK VINA RESULT:      -5.0      1.423      2.478
REMARK  1 active torsions:
REMARK  status: ('A' for Active; 'I' for Inactive)
REMARK    1  A    between atoms: C_7  and  N_9 
ROOT
HETATM    1  C   UNL     1      63.127   8.290   3.162  1.00  0.00     0.016 A 
HETATM    2  C   UNL     1      62.383   9.467   2.999  1.00  0.00    -0.042 A 
HETATM    3  C   UNL     1      63.084   7.226   2.123  1.00  0.00     0.160 C 
HETATM    4  C   UNL     1      63.865   8.075   4.330  1.00  0.00     0.018 A 
HETATM    5  C   UNL     1      62.361  10.403   4.048  1.00  0.00     0.037 A 
HETATM    6  O   UNL     1      63.814   6.244   2.197  1.00  0.00    -0.292 OA
HETATM    7  C   UNL     1      63.111  10.208   5.213  1.00  0.00     0.026 A 
HETATM    8  C   UNL     1      63.834   9.021   5.356  1.00  0.00     0.030 A 
HETATM    9  C   UNL     1      61.550   9.719   1.769  1.00  0.00     0.040 C 
HETATM   10  C   UNL     1      62.046   7.377   1.037  1.00  0.00     0.084 C 
HETATM   11  C   UNL     1      61.959   8.829   0.599  1.00  0.00     0.012 C 
ENDROOT
BRANCH   7  12
HETATM   12  N   UNL     1      62.940  11.063   6.307  1.00  0.00    -0.399 N 
HETATM   13  H   UNL     1      62.871  10.692   7.216  1.00  0.00     0.156 HD
HETATM   14  H   UNL     1      62.891  12.036   6.167  1.00  0.00     0.156 HD
ENDBRANCH   7  12
TORSDOF 1
ENDMDL
MODEL 5
REMARK VINA RESULT:      -4.9      2.927      3.836
REMARK  1 active torsions:
REMARK  status: ('A' for Active; 'I' for Inactive)
REMARK    1  A    between atoms: C_7  and  N_9 
ROOT
HETATM    1  C   UNL     1      64.046   8.498   4.474  1.00  0.00     0.016 A 
HETATM    2  C   UNL     1      63.772   7.544   3.484  1.00  0.00    -0.042 A 
HETATM    3  C   UNL     1      65.223   8.334   5.369  1.00  0.00     0.160 C 
HETATM    4  C   UNL     1      63.183   9.580   4.673  1.00  0.00     0.018 A 
HETATM    5  C   UNL     1      62.594   7.673   2.729  1.00  0.00     0.037 A 
HETATM    6  O   UNL     1      65.539   9.214   6.162  1.00  0.00    -0.292 OA
HETATM    7  C   UNL     1      61.732   8.761   2.906  1.00  0.00     0.026 A 
HETATM    8  C   UNL     1      62.022   9.692   3.906  1.00  0.00     0.030 A 
HETATM    9  C   UNL     1      64.662   6.348   3.263  1.00  0.00     0.040 C 
HETATM   10  C   UNL     1      65.941   7.007   5.311  1.00  0.00     0.084 C 
HETATM   11  C   UNL     1      66.049   6.536   3.871  1.00  0.00     0.012 C 
ENDROOT
BRANCH   7  12
HETATM   12  N   UNL     1      60.488   8.780   2.268  1.00  0.00    -0.399 N 
HETATM   13  H   UNL     1      59.889   9.554   2.378  1.00  0.00     0.156 HD
HETATM   14  H   UNL     1      60.211   8.020   1.707  1.00  0.00     0.156 HD
ENDBRANCH   7  12
TORSDOF 1
ENDMDL
MODEL 6
REMARK VINA RESULT:      -4.9      1.632      3.055
REMARK  1 active torsions:
REMARK  status: ('A' for Active; 'I' for Inactive)
REMARK    1  A    between atoms: C_7  and  N_9 
ROOT
HETATM    1  C   UNL     1      63.073   8.047   2.807  1.00  0.00     0.016 A 
HETATM    2  C   UNL     1      62.908   9.061   3.763  1.00  0.00    -0.042 A 
HETATM    3  C   UNL     1      62.397   8.146   1.486  1.00  0.00     0.160 C 
HETATM    4  C   UNL     1      63.820   6.905   3.109  1.00  0.00     0.018 A 
HETATM    5  C   UNL     1      63.472   8.884   5.038  1.00  0.00     0.037 A 
HETATM    6  O   UNL     1      62.621   7.327   0.601  1.00  0.00    -0.292 OA
HETATM    7  C   UNL     1      64.239   7.755   5.345  1.00  0.00     0.026 A 
HETATM    8  C   UNL     1      64.378   6.754   4.380  1.00  0.00     0.030 A 
HETATM    9  C   UNL     1      62.083  10.290   3.485  1.00  0.00     0.040 C 
HETATM   10  C   UNL     1      61.369   9.241   1.327  1.00  0.00     0.084 C 
HETATM   11  C   UNL     1      61.860  10.515   1.992  1.00  0.00     0.012 C 
ENDROOT
BRANCH   7  12
HETATM   12  N   UNL     1      64.644   7.520   6.663  1.00  0.00    -0.399 N 
HETATM   13  H   UNL     1      63.975   7.485   7.385  1.00  0.00     0.156 HD
HETATM   14  H   UNL     1      65.597   7.389   6.869  1.00  0.00     0.156 HD
ENDBRANCH   7  12
TORSDOF 1
ENDMDL
MODEL 7
REMARK VINA RESULT:      -4.7      2.084      3.060
REMARK  1 active torsions:
REMARK  status: ('A' for Active; 'I' for Inactive)
REMARK    1  A    between atoms: C_7  and  N_9 
ROOT
HETATM    1  C   UNL     1      62.990   8.074   2.843  1.00  0.00     0.016 A 
HETATM    2  C   UNL     1      62.871   9.000   3.890  1.00  0.00    -0.042 A 
HETATM    3  C   UNL     1      63.671   6.771   3.069  1.00  0.00     0.160 C 
HETATM    4  C   UNL     1      62.528   8.390   1.562  1.00  0.00     0.018 A 
HETATM    5  C   UNL     1      62.318  10.262   3.614  1.00  0.00     0.037 A 
HETATM    6  O   UNL     1      63.684   5.908   2.198  1.00  0.00    -0.292 OA
HETATM    7  C   UNL     1      61.834  10.583   2.342  1.00  0.00     0.026 A 
HETATM    8  C   UNL     1      61.975   9.648   1.314  1.00  0.00     0.030 A 
HETATM    9  C   UNL     1      63.387   8.707   5.275  1.00  0.00     0.040 C 
HETATM   10  C   UNL     1      64.411   6.608   4.375  1.00  0.00     0.084 C 
HETATM   11  C   UNL     1      63.605   7.215   5.510  1.00  0.00     0.012 C 
ENDROOT
BRANCH   7  12
HETATM   12  N   UNL     1      61.448  11.896   2.050  1.00  0.00    -0.399 N 
HETATM   13  H   UNL     1      60.532  12.083   1.742  1.00  0.00     0.156 HD
HETATM   14  H   UNL     1      62.092  12.633   2.153  1.00  0.00     0.156 HD
ENDBRANCH   7  12
TORSDOF 1
ENDMDL
MODEL 8
REMARK VINA RESULT:      -4.2      5.369      6.612
REMARK  1 active torsions:
REMARK  status: ('A' for Active; 'I' for Inactive)
REMARK    1  A    between atoms: C_7  and  N_9 
ROOT
HETATM    1  C   UNL     1      66.395   6.736   6.972  1.00  0.00     0.016 A 
HETATM    2  C   UNL     1      66.113   5.448   6.494  1.00  0.00    -0.042 A 
HETATM    3  C   UNL     1      66.121   7.927   6.124  1.00  0.00     0.160 C 
HETATM    4  C   UNL     1      66.994   6.911   8.223  1.00  0.00     0.018 A 
HETATM    5  C   UNL     1      66.484   4.341   7.276  1.00  0.00     0.037 A 
HETATM    6  O   UNL     1      66.256   9.061   6.569  1.00  0.00    -0.292 OA
HETATM    7  C   UNL     1      67.066   4.504   8.538  1.00  0.00     0.026 A 
HETATM    8  C   UNL     1      67.348   5.797   8.986  1.00  0.00     0.030 A 
HETATM    9  C   UNL     1      65.497   5.220   5.137  1.00  0.00     0.040 C 
HETATM   10  C   UNL     1      65.760   7.667   4.681  1.00  0.00     0.084 C 
HETATM   11  C   UNL     1      64.825   6.473   4.586  1.00  0.00     0.012 C 
ENDROOT
BRANCH   7  12
HETATM   12  N   UNL     1      67.580   3.396   9.220  1.00  0.00    -0.399 N 
HETATM   13  H   UNL     1      68.545   3.339   9.410  1.00  0.00     0.156 HD
HETATM   14  H   UNL     1      66.977   2.675   9.512  1.00  0.00     0.156 HD
ENDBRANCH   7  12
TORSDOF 1
ENDMDL
MODEL 9
REMARK VINA RESULT:      -4.2      6.193      7.700
REMARK  1 active torsions:
REMARK  status: ('A' for Active; 'I' for Inactive)
REMARK    1  A    between atoms: C_7  and  N_9 
ROOT
HETATM    1  C   UNL     1      67.160   6.085   6.435  1.00  0.00     0.016 A 
HETATM    2  C   UNL     1      67.624   4.832   6.862  1.00  0.00    -0.042 A 
HETATM    3  C   UNL     1      66.894   7.162   7.426  1.00  0.00     0.160 C 
HETATM    4  C   UNL     1      66.883   6.315   5.085  1.00  0.00     0.018 A 
HETATM    5  C   UNL     1      67.761   3.805   5.912  1.00  0.00     0.037 A 
HETATM    6  O   UNL     1      66.598   8.295   7.061  1.00  0.00    -0.292 OA
HETATM    7  C   UNL     1      67.506   4.029   4.555  1.00  0.00     0.026 A 
HETATM    8  C   UNL     1      67.034   5.282   4.158  1.00  0.00     0.030 A 
HETATM    9  C   UNL     1      67.902   4.537   8.313  1.00  0.00     0.040 C 
HETATM   10  C   UNL     1      66.921   6.768   8.883  1.00  0.00     0.084 C 
HETATM   11  C   UNL     1      68.068   5.807   9.142  1.00  0.00     0.012 C 
ENDROOT
BRANCH   7  12
HETATM   12  N   UNL     1      67.485   2.954   3.660  1.00  0.00    -0.399 N 
HETATM   13  H   UNL     1      66.883   2.974   2.881  1.00  0.00     0.156 HD
HETATM   14  H   UNL     1      68.072   2.178   3.809  1.00  0.00     0.156 HD
ENDBRANCH   7  12
TORSDOF 1
ENDMDL
