MODEL 1
REMARK VINA RESULT:      -5.7      0.000      0.000
REMARK  2 active torsions:
REMARK  status: ('A' for Active; 'I' for Inactive)
REMARK       I    between atoms: C_1  and  N_2 
REMARK    1  A    between atoms: C_1  and  C_4 
REMARK    2  A    between atoms: N_2  and  C_7 
ROOT
HETATM    1  C   UNL     1      65.087   8.225   5.542  1.00  0.00     0.256 C 
HETATM    2  N   UNL     1      64.726   7.350   6.555  1.00  0.00    -0.323 N 
HETATM    3  O   UNL     1      66.228   8.398   5.123  1.00  0.00    -0.267 OA
HETATM    4  H   UNL     1      63.771   7.302   6.788  1.00  0.00     0.169 HD
ENDROOT
BRANCH   2   5
HETATM    5  C   UNL     1      65.610   6.519   7.284  1.00  0.00     0.037 A 
HETATM    6  C   UNL     1      66.499   6.995   8.245  1.00  0.00     0.046 A 
HETATM    7  C   UNL     1      67.342   6.096   8.876  1.00  0.00     0.090 A 
HETATM    8  N   UNL     1      67.358   4.772   8.619  1.00  0.00    -0.375 N 
HETATM    9  C   UNL     1      66.480   4.330   7.697  1.00  0.00     0.090 A 
ATOM     10  HN  UNL     1      68.001   4.139   9.096  1.00  0.00     0.164 HD
HETATM   11  C   UNL     1      65.587   5.150   7.021  1.00  0.00     0.046 A 
ENDBRANCH   2   5
BRANCH   1  12
HETATM   12  C   UNL     1      63.996   9.019   4.906  1.00  0.00     0.032 A 
HETATM   13  C   UNL     1      63.379   8.468   3.772  1.00  0.00     0.017 A 
HETATM   14  C   UNL     1      62.331   9.132   3.134  1.00  0.00     0.001 A 
HETATM   15  C   UNL     1      61.887  10.355   3.628  1.00  0.00     0.000 A 
HETATM   16  C   UNL     1      62.485  10.908   4.760  1.00  0.00     0.001 A 
HETATM   17  C   UNL     1      63.535  10.244   5.406  1.00  0.00     0.017 A 
ENDBRANCH   1  12
TORSDOF 2
ENDMDL
MODEL 2
REMARK VINA RESULT:      -5.7      0.975      1.758
REMARK  2 active torsions:
REMARK  status: ('A' for Active; 'I' for Inactive)
REMARK       I    between atoms: C_1  and  N_2 
REMARK    1  A    between atoms: C_1  and  C_4 
REMARK    2  A    between atoms: N_2  and  C_7 
ROOT
HETATM    1  C   UNL     1      64.954   8.365   5.591  1.00  0.00     0.256 C 
HETATM    2  N   UNL     1      65.083   7.004   5.816  1.00  0.00    -0.323 N 
HETATM    3  O   UNL     1      65.670   9.238   6.073  1.00  0.00    -0.267 OA
HETATM    4  H   UNL     1      64.444   6.410   5.357  1.00  0.00     0.169 HD
ENDROOT
BRANCH   2   5
HETATM    5  C   UNL     1      66.051   6.390   6.646  1.00  0.00     0.037 A 
HETATM    6  C   UNL     1      67.188   5.750   6.159  1.00  0.00     0.046 A 
HETATM    7  C   UNL     1      68.054   5.154   7.061  1.00  0.00     0.090 A 
HETATM    8  N   UNL     1      67.868   5.154   8.396  1.00  0.00    -0.375 N 
HETATM    9  C   UNL     1      66.769   5.793   8.847  1.00  0.00     0.090 A 
ATOM     10  HN  UNL     1      68.522   4.697   9.031  1.00  0.00     0.164 HD
HETATM   11  C   UNL     1      65.851   6.430   8.025  1.00  0.00     0.046 A 
ENDBRANCH   2   5
BRANCH   1  12
HETATM   12  C   UNL     1      63.854   8.806   4.684  1.00  0.00     0.032 A 
HETATM   13  C   UNL     1      63.197  10.004   5.006  1.00  0.00     0.017 A 
HETATM   14  C   UNL     1      62.178  10.500   4.195  1.00  0.00     0.001 A 
HETATM   15  C   UNL     1      61.807   9.805   3.048  1.00  0.00     0.000 A 
HETATM   16  C   UNL     1      62.458   8.618   2.711  1.00  0.00     0.001 A 
HETATM   17  C   UNL     1      63.484   8.117   3.521  1.00  0.00     0.017 A 
ENDBRANCH   1  12
TORSDOF 2
ENDMDL
MODEL 3
REMARK VINA RESULT:      -5.6      1.424      1.482
REMARK  2 active torsions:
REMARK  status: ('A' for Active; 'I' for Inactive)
REMARK       I    between atoms: C_1  and  N_2 
REMARK    1  A    between atoms: C_1  and  C_4 
REMARK    2  A    between atoms: N_2  and  C_7 
ROOT
HETATM    1  C   UNL     1      63.360   7.914   5.784  1.00  0.00     0.256 C 
HETATM    2  N   UNL     1      64.519   7.179   5.595  1.00  0.00    -0.323 N 
HETATM    3  O   UNL     1      62.678   7.919   6.804  1.00  0.00    -0.267 OA
HETATM    4  H   UNL     1      64.976   7.275   4.727  1.00  0.00     0.169 HD
ENDROOT
BRANCH   2   5
HETATM    5  C   UNL     1      65.107   6.302   6.539  1.00  0.00     0.037 A 
HETATM    6  C   UNL     1      65.888   6.734   7.608  1.00  0.00     0.046 A 
HETATM    7  C   UNL     1      66.441   5.786   8.453  1.00  0.00     0.090 A 
HETATM    8  N   UNL     1      66.270   4.456   8.307  1.00  0.00    -0.375 N 
HETATM    9  C   UNL     1      65.499   4.062   7.274  1.00  0.00     0.090 A 
ATOM     10  HN  UNL     1      66.701   3.786   8.944  1.00  0.00     0.164 HD
HETATM   11  C   UNL     1      64.891   4.934   6.383  1.00  0.00     0.046 A 
ENDBRANCH   2   5
BRANCH   1  12
HETATM   12  C   UNL     1      62.905   8.774   4.652  1.00  0.00     0.032 A 
HETATM   13  C   UNL     1      62.808   8.171   3.388  1.00  0.00     0.017 A 
HETATM   14  C   UNL     1      62.364   8.898   2.283  1.00  0.00     0.001 A 
HETATM   15  C   UNL     1      62.008  10.235   2.433  1.00  0.00     0.000 A 
HETATM   16  C   UNL     1      62.091  10.842   3.686  1.00  0.00     0.001 A 
HETATM   17  C   UNL     1      62.534  10.117   4.798  1.00  0.00     0.017 A 
ENDBRANCH   1  12
TORSDOF 2
ENDMDL
MODEL 4
REMARK VINA RESULT:      -5.6      1.614      6.120
REMARK  2 active torsions:
REMARK  status: ('A' for Active; 'I' for Inactive)
REMARK       I    between atoms: C_1  and  N_2 
REMARK    1  A    between atoms: C_1  and  C_4 
REMARK    2  A    between atoms: N_2  and  C_7 
ROOT
HETATM    1  C   UNL     1      65.960   7.903   5.795  1.00  0.00     0.256 C 
HETATM    2  N   UNL     1      64.585   8.027   5.918  1.00  0.00    -0.323 N 
HETATM    3  O   UNL     1      66.653   8.464   4.951  1.00  0.00    -0.267 OA
HETATM    4  H   UNL     1      64.152   7.528   6.648  1.00  0.00     0.169 HD
ENDROOT
BRANCH   2   5
HETATM    5  C   UNL     1      63.747   8.809   5.087  1.00  0.00     0.037 A 
HETATM    6  C   UNL     1      63.264  10.066   5.444  1.00  0.00     0.046 A 
HETATM    7  C   UNL     1      62.423  10.730   4.567  1.00  0.00     0.090 A 
HETATM    8  N   UNL     1      62.038  10.235   3.373  1.00  0.00    -0.375 N 
HETATM    9  C   UNL     1      62.530   9.024   3.040  1.00  0.00     0.090 A 
ATOM     10  HN  UNL     1      61.409  10.748   2.755  1.00  0.00     0.164 HD
HETATM   11  C   UNL     1      63.387   8.288   3.845  1.00  0.00     0.046 A 
ENDBRANCH   2   5
BRANCH   1  12
HETATM   12  C   UNL     1      66.655   7.017   6.774  1.00  0.00     0.032 A 
HETATM   13  C   UNL     1      67.373   5.928   6.255  1.00  0.00     0.017 A 
HETATM   14  C   UNL     1      68.074   5.067   7.099  1.00  0.00     0.001 A 
HETATM   15  C   UNL     1      68.068   5.291   8.473  1.00  0.00     0.000 A 
HETATM   16  C   UNL     1      67.367   6.375   9.000  1.00  0.00     0.001 A 
HETATM   17  C   UNL     1      66.663   7.243   8.156  1.00  0.00     0.017 A 
ENDBRANCH   1  12
TORSDOF 2
ENDMDL
MODEL 5
REMARK VINA RESULT:      -5.2      2.134      6.419
REMARK  2 active torsions:
REMARK  status: ('A' for Active; 'I' for Inactive)
REMARK       I    between atoms: C_1  and  N_2 
REMARK    1  A    between atoms: C_1  and  C_4 
REMARK    2  A    between atoms: N_2  and  C_7 
ROOT
HETATM    1  C   UNL     1      64.803   8.275   5.266  1.00  0.00     0.256 C 
HETATM    2  N   UNL     1      63.793   7.992   4.361  1.00  0.00    -0.323 N 
HETATM    3  O   UNL     1      65.150   9.398   5.619  1.00  0.00    -0.267 OA
HETATM    4  H   UNL     1      63.610   7.043   4.173  1.00  0.00     0.169 HD
ENDROOT
BRANCH   2   5
HETATM    5  C   UNL     1      62.999   8.948   3.680  1.00  0.00     0.037 A 
HETATM    6  C   UNL     1      62.602   8.813   2.352  1.00  0.00     0.046 A 
HETATM    7  C   UNL     1      61.853   9.826   1.776  1.00  0.00     0.090 A 
HETATM    8  N   UNL     1      61.477  10.947   2.426  1.00  0.00    -0.375 N 
HETATM    9  C   UNL     1      61.860  11.049   3.714  1.00  0.00     0.090 A 
ATOM     10  HN  UNL     1      60.933  11.678   1.967  1.00  0.00     0.164 HD
HETATM   11  C   UNL     1      62.599  10.084   4.383  1.00  0.00     0.046 A 
ENDBRANCH   2   5
BRANCH   1  12
HETATM   12  C   UNL     1      65.526   7.115   5.866  1.00  0.00     0.032 A 
HETATM   13  C   UNL     1      66.635   6.618   5.163  1.00  0.00     0.017 A 
HETATM   14  C   UNL     1      67.383   5.555   5.668  1.00  0.00     0.001 A 
HETATM   15  C   UNL     1      67.030   4.979   6.885  1.00  0.00     0.000 A 
HETATM   16  C   UNL     1      65.937   5.471   7.598  1.00  0.00     0.001 A 
HETATM   17  C   UNL     1      65.184   6.539   7.096  1.00  0.00     0.017 A 
ENDBRANCH   1  12
TORSDOF 2
ENDMDL
MODEL 6
REMARK VINA RESULT:      -4.7      2.514      6.367
REMARK  2 active torsions:
REMARK  status: ('A' for Active; 'I' for Inactive)
REMARK       I    between atoms: C_1  and  N_2 
REMARK    1  A    between atoms: C_1  and  C_4 
REMARK    2  A    between atoms: N_2  and  C_7 
ROOT
HETATM    1  C   UNL     1      64.320   8.211   4.970  1.00  0.00     0.256 C 
HETATM    2  N   UNL     1      63.670   7.479   3.989  1.00  0.00    -0.323 N 
HETATM    3  O   UNL     1      63.948   9.292   5.417  1.00  0.00    -0.267 OA
HETATM    4  H   UNL     1      64.074   6.619   3.729  1.00  0.00     0.169 HD
ENDROOT
BRANCH   2   5
HETATM    5  C   UNL     1      62.476   7.858   3.329  1.00  0.00     0.037 A 
HETATM    6  C   UNL     1      61.209   7.442   3.730  1.00  0.00     0.046 A 
HETATM    7  C   UNL     1      60.111   7.847   2.990  1.00  0.00     0.090 A 
HETATM    8  N   UNL     1      60.188   8.628   1.893  1.00  0.00    -0.375 N 
HETATM    9  C   UNL     1      61.423   9.031   1.531  1.00  0.00     0.090 A 
ATOM     10  HN  UNL     1      59.358   8.899   1.366  1.00  0.00     0.164 HD
HETATM   11  C   UNL     1      62.581   8.690   2.215  1.00  0.00     0.046 A 
ENDBRANCH   2   5
BRANCH   1  12
HETATM   12  C   UNL     1      65.576   7.634   5.533  1.00  0.00     0.032 A 
HETATM   13  C   UNL     1      65.463   6.885   6.716  1.00  0.00     0.017 A 
HETATM   14  C   UNL     1      66.584   6.287   7.292  1.00  0.00     0.001 A 
HETATM   15  C   UNL     1      67.830   6.428   6.687  1.00  0.00     0.000 A 
HETATM   16  C   UNL     1      67.953   7.161   5.507  1.00  0.00     0.001 A 
HETATM   17  C   UNL     1      66.831   7.761   4.923  1.00  0.00     0.017 A 
ENDBRANCH   1  12
TORSDOF 2
ENDMDL
MODEL 7
REMARK VINA RESULT:      -4.6      9.010      9.614
REMARK  2 active torsions:
REMARK  status: ('A' for Active; 'I' for Inactive)
REMARK       I    between atoms: C_1  and  N_2 
REMARK    1  A    between atoms: C_1  and  C_4 
REMARK    2  A    between atoms: N_2  and  C_7 
ROOT
HETATM    1  C   UNL     1      58.518   2.892   9.876  1.00  0.00     0.256 C 
HETATM    2  N   UNL     1      58.477   3.281  11.205  1.00  0.00    -0.323 N 
HETATM    3  O   UNL     1      58.095   1.829   9.431  1.00  0.00    -0.267 OA
HETATM    4  H   UNL     1      58.844   4.168  11.425  1.00  0.00     0.169 HD
ENDROOT
BRANCH   2   5
HETATM    5  C   UNL     1      57.952   2.517  12.275  1.00  0.00     0.037 A 
HETATM    6  C   UNL     1      56.591   2.406  12.548  1.00  0.00     0.046 A 
HETATM    7  C   UNL     1      56.190   1.657  13.642  1.00  0.00     0.090 A 
HETATM    8  N   UNL     1      57.042   1.018  14.470  1.00  0.00    -0.375 N 
HETATM    9  C   UNL     1      58.354   1.126  14.179  1.00  0.00     0.090 A 
ATOM     10  HN  UNL     1      56.712   0.483  15.273  1.00  0.00     0.164 HD
HETATM   11  C   UNL     1      58.852   1.842  13.099  1.00  0.00     0.046 A 
ENDBRANCH   2   5
BRANCH   1  12
HETATM   12  C   UNL     1      59.124   3.848   8.904  1.00  0.00     0.032 A 
HETATM   13  C   UNL     1      58.740   5.195   9.005  1.00  0.00     0.017 A 
HETATM   14  C   UNL     1      59.281   6.157   8.153  1.00  0.00     0.001 A 
HETATM   15  C   UNL     1      60.217   5.783   7.193  1.00  0.00     0.000 A 
HETATM   16  C   UNL     1      60.614   4.450   7.090  1.00  0.00     0.001 A 
HETATM   17  C   UNL     1      60.076   3.480   7.943  1.00  0.00     0.017 A 
ENDBRANCH   1  12
TORSDOF 2
ENDMDL
MODEL 8
REMARK VINA RESULT:      -4.5      9.096      9.626
REMARK  2 active torsions:
REMARK  status: ('A' for Active; 'I' for Inactive)
REMARK       I    between atoms: C_1  and  N_2 
REMARK    1  A    between atoms: C_1  and  C_4 
REMARK    2  A    between atoms: N_2  and  C_7 
ROOT
HETATM    1  C   UNL     1      58.570   2.851  10.007  1.00  0.00     0.256 C 
HETATM    2  N   UNL     1      58.423   3.259  11.324  1.00  0.00    -0.323 N 
HETATM    3  O   UNL     1      58.294   1.738   9.572  1.00  0.00    -0.267 OA
HETATM    4  H   UNL     1      58.674   4.187  11.537  1.00  0.00     0.169 HD
ENDROOT
BRANCH   2   5
HETATM    5  C   UNL     1      57.944   2.460  12.390  1.00  0.00     0.037 A 
HETATM    6  C   UNL     1      58.775   1.744  13.249  1.00  0.00     0.046 A 
HETATM    7  C   UNL     1      58.197   0.967  14.239  1.00  0.00     0.090 A 
HETATM    8  N   UNL     1      56.866   0.858  14.429  1.00  0.00    -0.375 N 
HETATM    9  C   UNL     1      56.081   1.570  13.596  1.00  0.00     0.090 A 
ATOM     10  HN  UNL     1      56.474   0.268  15.163  1.00  0.00     0.164 HD
HETATM   11  C   UNL     1      56.566   2.387  12.584  1.00  0.00     0.046 A 
ENDBRANCH   2   5
BRANCH   1  12
HETATM   12  C   UNL     1      59.103   3.853   9.038  1.00  0.00     0.032 A 
HETATM   13  C   UNL     1      59.984   3.384   8.051  1.00  0.00     0.017 A 
HETATM   14  C   UNL     1      60.505   4.250   7.090  1.00  0.00     0.001 A 
HETATM   15  C   UNL     1      60.147   5.594   7.104  1.00  0.00     0.000 A 
HETATM   16  C   UNL     1      59.264   6.070   8.073  1.00  0.00     0.001 A 
HETATM   17  C   UNL     1      58.736   5.205   9.039  1.00  0.00     0.017 A 
ENDBRANCH   1  12
TORSDOF 2
ENDMDL
MODEL 9
REMARK VINA RESULT:      -4.4      2.695      3.521
REMARK  2 active torsions:
REMARK  status: ('A' for Active; 'I' for Inactive)
REMARK       I    between atoms: C_1  and  N_2 
REMARK    1  A    between atoms: C_1  and  C_4 
REMARK    2  A    between atoms: N_2  and  C_7 
ROOT
HETATM    1  C   UNL     1      63.329   6.985   3.760  1.00  0.00     0.256 C 
HETATM    2  N   UNL     1      64.432   7.812   3.900  1.00  0.00    -0.323 N 
HETATM    3  O   UNL     1      63.167   5.910   4.331  1.00  0.00    -0.267 OA
HETATM    4  H   UNL     1      64.430   8.654   3.389  1.00  0.00     0.169 HD
ENDROOT
BRANCH   2   5
HETATM    5  C   UNL     1      65.563   7.553   4.712  1.00  0.00     0.037 A 
HETATM    6  C   UNL     1      66.579   6.669   4.358  1.00  0.00     0.046 A 
HETATM    7  C   UNL     1      67.624   6.467   5.244  1.00  0.00     0.090 A 
HETATM    8  N   UNL     1      67.724   7.079   6.442  1.00  0.00    -0.375 N 
HETATM    9  C   UNL     1      66.737   7.941   6.758  1.00  0.00     0.090 A 
ATOM     10  HN  UNL     1      68.503   6.898   7.075  1.00  0.00     0.164 HD
HETATM   11  C   UNL     1      65.657   8.220   5.933  1.00  0.00     0.046 A 
ENDBRANCH   2   5
BRANCH   1  12
HETATM   12  C   UNL     1      62.245   7.443   2.842  1.00  0.00     0.032 A 
HETATM   13  C   UNL     1      62.572   8.444   1.913  1.00  0.00     0.017 A 
HETATM   14  C   UNL     1      61.625   8.909   1.001  1.00  0.00     0.001 A 
HETATM   15  C   UNL     1      60.341   8.372   1.004  1.00  0.00     0.000 A 
HETATM   16  C   UNL     1      60.007   7.370   1.915  1.00  0.00     0.001 A 
HETATM   17  C   UNL     1      60.954   6.899   2.832  1.00  0.00     0.017 A 
ENDBRANCH   1  12
TORSDOF 2
ENDMDL
