MODEL 1
REMARK VINA RESULT:      -5.2      0.000      0.000
REMARK  1 active torsions:
REMARK  status: ('A' for Active; 'I' for Inactive)
REMARK    1  A    between atoms: C_8  and  O_9 
ROOT
HETATM    1  C   UNL     1      62.387   9.505   2.764  1.00  0.00     0.056 A 
HETATM    2  C   UNL     1      62.899   8.676   3.791  1.00  0.00    -0.038 A 
HETATM    3  C   UNL     1      62.079  10.856   3.036  1.00  0.00    -0.038 A 
HETATM    4  N   UNL     1      62.009   8.545   0.378  1.00  0.00    -0.191 NA
HETATM    5  C   UNL     1      62.177   8.973   1.442  1.00  0.00     0.100 C 
HETATM    6  C   UNL     1      62.288  11.360   4.330  1.00  0.00     0.044 A 
HETATM    7  C   UNL     1      63.093   9.212   5.079  1.00  0.00     0.044 A 
HETATM    8  C   UNL     1      62.787  10.542   5.334  1.00  0.00     0.066 A 
HETATM    9  C   UNL     1      61.531  11.803   2.001  1.00  0.00     0.050 C 
HETATM   10  C   UNL     1      63.251   7.227   3.570  1.00  0.00     0.050 C 
ENDROOT
BRANCH   8  11
HETATM   11  O   UNL     1      62.962  11.098   6.566  1.00  0.00    -0.361 OA
HETATM   12  H   UNL     1      63.710  11.637   6.735  1.00  0.00     0.217 HD
ENDBRANCH   8  11
TORSDOF 1
ENDMDL
MODEL 2
REMARK VINA RESULT:      -5.1      1.484      2.938
REMARK  1 active torsions:
REMARK  status: ('A' for Active; 'I' for Inactive)
REMARK    1  A    between atoms: C_8  and  O_9 
ROOT
HETATM    1  C   UNL     1      62.901   8.458   3.145  1.00  0.00     0.056 A 
HETATM    2  C   UNL     1      62.259   9.371   2.275  1.00  0.00    -0.038 A 
HETATM    3  C   UNL     1      63.188   8.834   4.476  1.00  0.00    -0.038 A 
HETATM    4  N   UNL     1      63.556   6.089   2.299  1.00  0.00    -0.191 NA
HETATM    5  C   UNL     1      63.264   7.145   2.676  1.00  0.00     0.100 C 
HETATM    6  C   UNL     1      62.829  10.118   4.919  1.00  0.00     0.044 A 
HETATM    7  C   UNL     1      61.915  10.652   2.750  1.00  0.00     0.044 A 
HETATM    8  C   UNL     1      62.202  11.010   4.061  1.00  0.00     0.066 A 
HETATM    9  C   UNL     1      63.868   7.923   5.464  1.00  0.00     0.050 C 
HETATM   10  C   UNL     1      61.921   9.036   0.845  1.00  0.00     0.050 C 
ENDROOT
BRANCH   8  11
HETATM   11  O   UNL     1      61.885  12.239   4.557  1.00  0.00    -0.361 OA
HETATM   12  H   UNL     1      61.198  12.326   5.189  1.00  0.00     0.217 HD
ENDBRANCH   8  11
TORSDOF 1
ENDMDL
MODEL 3
REMARK VINA RESULT:      -5.1      1.474      2.086
REMARK  1 active torsions:
REMARK  status: ('A' for Active; 'I' for Inactive)
REMARK    1  A    between atoms: C_8  and  O_9 
ROOT
HETATM    1  C   UNL     1      62.938   8.462   3.174  1.00  0.00     0.056 A 
HETATM    2  C   UNL     1      63.287   8.826   4.496  1.00  0.00    -0.038 A 
HETATM    3  C   UNL     1      62.251   9.379   2.349  1.00  0.00    -0.038 A 
HETATM    4  N   UNL     1      63.558   6.109   2.260  1.00  0.00    -0.191 NA
HETATM    5  C   UNL     1      63.282   7.158   2.668  1.00  0.00     0.100 C 
HETATM    6  C   UNL     1      61.922  10.647   2.857  1.00  0.00     0.044 A 
HETATM    7  C   UNL     1      62.940  10.104   4.976  1.00  0.00     0.044 A 
HETATM    8  C   UNL     1      62.264  10.997   4.155  1.00  0.00     0.066 A 
HETATM    9  C   UNL     1      61.842   9.072   0.932  1.00  0.00     0.050 C 
HETATM   10  C   UNL     1      64.024   7.899   5.430  1.00  0.00     0.050 C 
ENDROOT
BRANCH   8  11
HETATM   11  O   UNL     1      61.911  12.242   4.582  1.00  0.00    -0.361 OA
HETATM   12  H   UNL     1      62.530  12.771   5.046  1.00  0.00     0.217 HD
ENDBRANCH   8  11
TORSDOF 1
ENDMDL
MODEL 4
REMARK VINA RESULT:      -4.9      2.922      3.709
REMARK  1 active torsions:
REMARK  status: ('A' for Active; 'I' for Inactive)
REMARK    1  A    between atoms: C_8  and  O_9 
ROOT
HETATM    1  C   UNL     1      63.694   8.768   4.362  1.00  0.00     0.056 A 
HETATM    2  C   UNL     1      63.528   7.757   3.385  1.00  0.00    -0.038 A 
HETATM    3  C   UNL     1      62.770   9.834   4.437  1.00  0.00    -0.038 A 
HETATM    4  N   UNL     1      65.696   8.669   6.017  1.00  0.00    -0.191 NA
HETATM    5  C   UNL     1      64.803   8.713   5.279  1.00  0.00     0.100 C 
HETATM    6  C   UNL     1      61.694   9.874   3.535  1.00  0.00     0.044 A 
HETATM    7  C   UNL     1      62.440   7.829   2.494  1.00  0.00     0.044 A 
HETATM    8  C   UNL     1      61.538   8.882   2.577  1.00  0.00     0.066 A 
HETATM    9  C   UNL     1      62.875  10.949   5.444  1.00  0.00     0.050 C 
HETATM   10  C   UNL     1      64.473   6.590   3.251  1.00  0.00     0.050 C 
ENDROOT
BRANCH   8  11
HETATM   11  O   UNL     1      60.473   8.987   1.734  1.00  0.00    -0.361 OA
HETATM   12  H   UNL     1      59.709   8.463   1.877  1.00  0.00     0.217 HD
ENDBRANCH   8  11
TORSDOF 1
ENDMDL
MODEL 5
REMARK VINA RESULT:      -4.9      2.927      4.329
REMARK  1 active torsions:
REMARK  status: ('A' for Active; 'I' for Inactive)
REMARK    1  A    between atoms: C_8  and  O_9 
ROOT
HETATM    1  C   UNL     1      63.687   8.791   4.380  1.00  0.00     0.056 A 
HETATM    2  C   UNL     1      62.771   9.867   4.467  1.00  0.00    -0.038 A 
HETATM    3  C   UNL     1      63.507   7.789   3.401  1.00  0.00    -0.038 A 
HETATM    4  N   UNL     1      65.699   8.652   6.020  1.00  0.00    -0.191 NA
HETATM    5  C   UNL     1      64.802   8.714   5.289  1.00  0.00     0.100 C 
HETATM    6  C   UNL     1      62.414   7.877   2.523  1.00  0.00     0.044 A 
HETATM    7  C   UNL     1      61.685   9.924   3.573  1.00  0.00     0.044 A 
HETATM    8  C   UNL     1      61.518   8.933   2.614  1.00  0.00     0.066 A 
HETATM    9  C   UNL     1      64.433   6.613   3.242  1.00  0.00     0.050 C 
HETATM   10  C   UNL     1      62.905  10.971   5.484  1.00  0.00     0.050 C 
ENDROOT
BRANCH   8  11
HETATM   11  O   UNL     1      60.480   8.952   1.731  1.00  0.00    -0.361 OA
HETATM   12  H   UNL     1      59.803   9.594   1.818  1.00  0.00     0.217 HD
ENDBRANCH   8  11
TORSDOF 1
ENDMDL
MODEL 6
REMARK VINA RESULT:      -4.8      2.994      3.748
REMARK  1 active torsions:
REMARK  status: ('A' for Active; 'I' for Inactive)
REMARK    1  A    between atoms: C_8  and  O_9 
ROOT
HETATM    1  C   UNL     1      62.636   9.589   3.711  1.00  0.00     0.056 A 
HETATM    2  C   UNL     1      62.973   8.214   3.682  1.00  0.00    -0.038 A 
HETATM    3  C   UNL     1      62.108  10.210   2.558  1.00  0.00    -0.038 A 
HETATM    4  N   UNL     1      62.990  10.973   5.882  1.00  0.00    -0.191 NA
HETATM    5  C   UNL     1      62.832  10.356   4.914  1.00  0.00     0.100 C 
HETATM    6  C   UNL     1      61.924   9.449   1.392  1.00  0.00     0.044 A 
HETATM    7  C   UNL     1      62.779   7.480   2.495  1.00  0.00     0.044 A 
HETATM    8  C   UNL     1      62.259   8.102   1.368  1.00  0.00     0.066 A 
HETATM    9  C   UNL     1      61.725  11.665   2.505  1.00  0.00     0.050 C 
HETATM   10  C   UNL     1      63.537   7.487   4.875  1.00  0.00     0.050 C 
ENDROOT
BRANCH   8  11
HETATM   11  O   UNL     1      62.055   7.427   0.202  1.00  0.00    -0.361 OA
HETATM   12  H   UNL     1      62.225   6.506   0.158  1.00  0.00     0.217 HD
ENDBRANCH   8  11
TORSDOF 1
ENDMDL
MODEL 7
REMARK VINA RESULT:      -4.8      2.996      4.580
REMARK  1 active torsions:
REMARK  status: ('A' for Active; 'I' for Inactive)
REMARK    1  A    between atoms: C_8  and  O_9 
ROOT
HETATM    1  C   UNL     1      62.642   9.552   3.669  1.00  0.00     0.056 A 
HETATM    2  C   UNL     1      62.115  10.177   2.513  1.00  0.00    -0.038 A 
HETATM    3  C   UNL     1      62.986   8.184   3.635  1.00  0.00    -0.038 A 
HETATM    4  N   UNL     1      62.974  10.919   5.855  1.00  0.00    -0.191 NA
HETATM    5  C   UNL     1      62.826  10.310   4.880  1.00  0.00     0.100 C 
HETATM    6  C   UNL     1      62.800   7.458   2.447  1.00  0.00     0.044 A 
HETATM    7  C   UNL     1      61.938   9.421   1.338  1.00  0.00     0.044 A 
HETATM    8  C   UNL     1      62.280   8.075   1.317  1.00  0.00     0.066 A 
HETATM    9  C   UNL     1      63.550   7.444   4.819  1.00  0.00     0.050 C 
HETATM   10  C   UNL     1      61.730  11.634   2.477  1.00  0.00     0.050 C 
ENDROOT
BRANCH   8  11
HETATM   11  O   UNL     1      62.125   7.309   0.201  1.00  0.00    -0.361 OA
HETATM   12  H   UNL     1      62.173   7.704  -0.648  1.00  0.00     0.217 HD
ENDBRANCH   8  11
TORSDOF 1
ENDMDL
MODEL 8
REMARK VINA RESULT:      -4.6      2.109      3.127
REMARK  1 active torsions:
REMARK  status: ('A' for Active; 'I' for Inactive)
REMARK    1  A    between atoms: C_8  and  O_9 
ROOT
HETATM    1  C   UNL     1      62.426   9.873   3.111  1.00  0.00     0.056 A 
HETATM    2  C   UNL     1      62.437   8.701   2.318  1.00  0.00    -0.038 A 
HETATM    3  C   UNL     1      62.809   9.809   4.469  1.00  0.00    -0.038 A 
HETATM    4  N   UNL     1      61.700  12.144   2.076  1.00  0.00    -0.191 NA
HETATM    5  C   UNL     1      62.024  11.131   2.537  1.00  0.00     0.100 C 
HETATM    6  C   UNL     1      63.198   8.574   5.015  1.00  0.00     0.044 A 
HETATM    7  C   UNL     1      62.829   7.478   2.897  1.00  0.00     0.044 A 
HETATM    8  C   UNL     1      63.204   7.428   4.233  1.00  0.00     0.066 A 
HETATM    9  C   UNL     1      62.825  11.007   5.381  1.00  0.00     0.050 C 
HETATM   10  C   UNL     1      62.044   8.697   0.862  1.00  0.00     0.050 C 
ENDROOT
BRANCH   8  11
HETATM   11  O   UNL     1      63.590   6.264   4.829  1.00  0.00    -0.361 OA
HETATM   12  H   UNL     1      63.090   5.483   4.699  1.00  0.00     0.217 HD
ENDBRANCH   8  11
TORSDOF 1
ENDMDL
MODEL 9
REMARK VINA RESULT:      -4.3      1.562      2.229
REMARK  1 active torsions:
REMARK  status: ('A' for Active; 'I' for Inactive)
REMARK    1  A    between atoms: C_8  and  O_9 
ROOT
HETATM    1  C   UNL     1      62.846   8.409   3.024  1.00  0.00     0.056 A 
HETATM    2  C   UNL     1      63.437   7.148   3.275  1.00  0.00    -0.038 A 
HETATM    3  C   UNL     1      62.632   9.312   4.089  1.00  0.00    -0.038 A 
HETATM    4  N   UNL     1      62.153   9.069   0.607  1.00  0.00    -0.191 NA
HETATM    5  C   UNL     1      62.463   8.775   1.685  1.00  0.00     0.100 C 
HETATM    6  C   UNL     1      63.011   8.940   5.390  1.00  0.00     0.044 A 
HETATM    7  C   UNL     1      63.802   6.805   4.591  1.00  0.00     0.044 A 
HETATM    8  C   UNL     1      63.586   7.701   5.631  1.00  0.00     0.066 A 
HETATM    9  C   UNL     1      62.010  10.671   3.908  1.00  0.00     0.050 C 
HETATM   10  C   UNL     1      63.698   6.138   2.187  1.00  0.00     0.050 C 
ENDROOT
BRANCH   8  11
HETATM   11  O   UNL     1      63.927   7.407   6.917  1.00  0.00    -0.361 OA
HETATM   12  H   UNL     1      63.276   7.095   7.514  1.00  0.00     0.217 HD
ENDBRANCH   8  11
TORSDOF 1
ENDMDL
