MODEL 1
REMARK VINA RESULT:      -4.7      0.000      0.000
REMARK  2 active torsions:
REMARK  status: ('A' for Active; 'I' for Inactive)
REMARK    1  A    between atoms: C_1  and  C_2 
REMARK    2  A    between atoms: C_4  and  N_5 
ROOT
HETATM    1  C   UNL     1      62.940   8.755   3.805  1.00  0.00    -0.048 A 
HETATM    2  C   UNL     1      63.294   9.421   4.995  1.00  0.00     0.037 A 
HETATM    3  C   UNL     1      62.963  10.763   5.226  1.00  0.00     0.026 A 
HETATM    4  C   UNL     1      62.193   9.482   2.861  1.00  0.00     0.008 A 
HETATM    5  C   UNL     1      61.803  10.801   3.106  1.00  0.00     0.003 A 
HETATM    6  C   UNL     1      62.170  11.429   4.295  1.00  0.00     0.029 A 
ENDROOT
BRANCH   1   7
HETATM    7  C   UNL     1      63.316   7.289   3.535  1.00  0.00    -0.024 C 
HETATM    8  C   UNL     1      64.788   6.953   3.866  1.00  0.00     0.019 C 
HETATM    9  C   UNL     1      62.431   6.359   4.392  1.00  0.00     0.019 C 
HETATM   10  C   UNL     1      63.100   6.953   2.043  1.00  0.00     0.019 C 
ENDBRANCH   1   7
BRANCH   3  11
HETATM   11  N   UNL     1      63.226  11.345   6.475  1.00  0.00    -0.399 N 
HETATM   12  H   UNL     1      62.587  11.982   6.865  1.00  0.00     0.156 HD
HETATM   13  H   UNL     1      64.051  11.114   6.961  1.00  0.00     0.156 HD
ENDBRANCH   3  11
TORSDOF 2
ENDMDL
MODEL 2
REMARK VINA RESULT:      -4.6      1.565      2.551
REMARK  2 active torsions:
REMARK  status: ('A' for Active; 'I' for Inactive)
REMARK    1  A    between atoms: C_1  and  C_2 
REMARK    2  A    between atoms: C_4  and  N_5 
ROOT
HETATM    1  C   UNL     1      62.503   8.960   3.076  1.00  0.00    -0.048 A 
HETATM    2  C   UNL     1      63.490   8.489   3.964  1.00  0.00     0.037 A 
HETATM    3  C   UNL     1      63.920   9.238   5.068  1.00  0.00     0.026 A 
HETATM    4  C   UNL     1      61.922  10.208   3.366  1.00  0.00     0.008 A 
HETATM    5  C   UNL     1      62.297  10.936   4.499  1.00  0.00     0.003 A 
HETATM    6  C   UNL     1      63.276  10.439   5.356  1.00  0.00     0.029 A 
ENDROOT
BRANCH   1   7
HETATM    7  C   UNL     1      62.040   8.155   1.851  1.00  0.00    -0.024 C 
HETATM    8  C   UNL     1      60.554   7.733   1.910  1.00  0.00     0.019 C 
HETATM    9  C   UNL     1      62.224   9.001   0.573  1.00  0.00     0.019 C 
HETATM   10  C   UNL     1      62.873   6.861   1.722  1.00  0.00     0.019 C 
ENDBRANCH   1   7
BRANCH   3  11
HETATM   11  N   UNL     1      64.812   8.675   5.992  1.00  0.00    -0.399 N 
HETATM   12  H   UNL     1      65.647   8.259   5.679  1.00  0.00     0.156 HD
HETATM   13  H   UNL     1      64.603   8.698   6.954  1.00  0.00     0.156 HD
ENDBRANCH   3  11
TORSDOF 2
ENDMDL
MODEL 3
REMARK VINA RESULT:      -4.5      1.995      2.823
REMARK  2 active torsions:
REMARK  status: ('A' for Active; 'I' for Inactive)
REMARK    1  A    between atoms: C_1  and  C_2 
REMARK    2  A    between atoms: C_4  and  N_5 
ROOT
HETATM    1  C   UNL     1      63.498   8.814   4.483  1.00  0.00    -0.048 A 
HETATM    2  C   UNL     1      62.782   8.802   3.269  1.00  0.00     0.037 A 
HETATM    3  C   UNL     1      61.938   9.855   2.890  1.00  0.00     0.026 A 
HETATM    4  C   UNL     1      63.368   9.957   5.293  1.00  0.00     0.008 A 
HETATM    5  C   UNL     1      62.579  11.040   4.897  1.00  0.00     0.003 A 
HETATM    6  C   UNL     1      61.885  10.994   3.690  1.00  0.00     0.029 A 
ENDROOT
BRANCH   1   7
HETATM    7  C   UNL     1      64.411   7.655   4.916  1.00  0.00    -0.024 C 
HETATM    8  C   UNL     1      63.822   6.793   6.056  1.00  0.00     0.019 C 
HETATM    9  C   UNL     1      64.664   6.717   3.717  1.00  0.00     0.019 C 
HETATM   10  C   UNL     1      65.764   8.206   5.417  1.00  0.00     0.019 C 
ENDBRANCH   1   7
BRANCH   3  11
HETATM   11  N   UNL     1      61.346   9.855   1.619  1.00  0.00    -0.399 N 
HETATM   12  H   UNL     1      60.391  10.072   1.521  1.00  0.00     0.156 HD
HETATM   13  H   UNL     1      61.887   9.640   0.824  1.00  0.00     0.156 HD
ENDBRANCH   3  11
TORSDOF 2
ENDMDL
MODEL 4
REMARK VINA RESULT:      -4.5      1.591      3.625
REMARK  2 active torsions:
REMARK  status: ('A' for Active; 'I' for Inactive)
REMARK    1  A    between atoms: C_1  and  C_2 
REMARK    2  A    between atoms: C_4  and  N_5 
ROOT
HETATM    1  C   UNL     1      63.286   8.341   3.643  1.00  0.00    -0.048 A 
HETATM    2  C   UNL     1      64.028   8.748   4.770  1.00  0.00     0.037 A 
HETATM    3  C   UNL     1      65.111   8.005   5.259  1.00  0.00     0.026 A 
HETATM    4  C   UNL     1      63.705   7.168   2.989  1.00  0.00     0.008 A 
HETATM    5  C   UNL     1      64.821   6.452   3.429  1.00  0.00     0.003 A 
HETATM    6  C   UNL     1      65.532   6.884   4.547  1.00  0.00     0.029 A 
ENDROOT
BRANCH   1   7
HETATM    7  C   UNL     1      62.084   9.140   3.111  1.00  0.00    -0.024 C 
HETATM    8  C   UNL     1      62.110   9.356   1.581  1.00  0.00     0.019 C 
HETATM    9  C   UNL     1      60.776   8.393   3.445  1.00  0.00     0.019 C 
HETATM   10  C   UNL     1      62.046  10.537   3.766  1.00  0.00     0.019 C 
ENDBRANCH   1   7
BRANCH   3  11
HETATM   11  N   UNL     1      65.894   8.513   6.304  1.00  0.00    -0.399 N 
HETATM   12  H   UNL     1      66.733   8.989   6.104  1.00  0.00     0.156 HD
HETATM   13  H   UNL     1      65.606   8.396   7.238  1.00  0.00     0.156 HD
ENDBRANCH   3  11
TORSDOF 2
ENDMDL
MODEL 5
REMARK VINA RESULT:      -4.5      1.496      2.072
REMARK  2 active torsions:
REMARK  status: ('A' for Active; 'I' for Inactive)
REMARK    1  A    between atoms: C_1  and  C_2 
REMARK    2  A    between atoms: C_4  and  N_5 
ROOT
HETATM    1  C   UNL     1      62.773   8.550   3.492  1.00  0.00    -0.048 A 
HETATM    2  C   UNL     1      62.214   9.512   2.628  1.00  0.00     0.037 A 
HETATM    3  C   UNL     1      61.926  10.817   3.052  1.00  0.00     0.026 A 
HETATM    4  C   UNL     1      63.078   8.963   4.801  1.00  0.00     0.008 A 
HETATM    5  C   UNL     1      62.854  10.278   5.217  1.00  0.00     0.003 A 
HETATM    6  C   UNL     1      62.301  11.204   4.336  1.00  0.00     0.029 A 
ENDROOT
BRANCH   1   7
HETATM    7  C   UNL     1      63.073   7.110   3.042  1.00  0.00    -0.024 C 
HETATM    8  C   UNL     1      64.526   6.662   3.323  1.00  0.00     0.019 C 
HETATM    9  C   UNL     1      62.141   6.129   3.784  1.00  0.00     0.019 C 
HETATM   10  C   UNL     1      62.843   6.972   1.522  1.00  0.00     0.019 C 
ENDBRANCH   1   7
BRANCH   3  11
HETATM   11  N   UNL     1      61.489  11.774   2.124  1.00  0.00    -0.399 N 
HETATM   12  H   UNL     1      61.510  12.730   2.357  1.00  0.00     0.156 HD
HETATM   13  H   UNL     1      61.162  11.489   1.240  1.00  0.00     0.156 HD
ENDBRANCH   3  11
TORSDOF 2
ENDMDL
MODEL 6
REMARK VINA RESULT:      -4.4      1.921      2.932
REMARK  2 active torsions:
REMARK  status: ('A' for Active; 'I' for Inactive)
REMARK    1  A    between atoms: C_1  and  C_2 
REMARK    2  A    between atoms: C_4  and  N_5 
ROOT
HETATM    1  C   UNL     1      63.045   8.268   3.469  1.00  0.00    -0.048 A 
HETATM    2  C   UNL     1      62.559   9.590   3.419  1.00  0.00     0.037 A 
HETATM    3  C   UNL     1      62.005  10.137   2.254  1.00  0.00     0.026 A 
HETATM    4  C   UNL     1      62.911   7.491   2.304  1.00  0.00     0.008 A 
HETATM    5  C   UNL     1      62.303   8.005   1.156  1.00  0.00     0.003 A 
HETATM    6  C   UNL     1      61.833   9.317   1.142  1.00  0.00     0.029 A 
ENDROOT
BRANCH   1   7
HETATM    7  C   UNL     1      63.672   7.665   4.737  1.00  0.00    -0.024 C 
HETATM    8  C   UNL     1      62.713   7.627   5.948  1.00  0.00     0.019 C 
HETATM    9  C   UNL     1      64.113   6.212   4.457  1.00  0.00     0.019 C 
HETATM   10  C   UNL     1      64.906   8.491   5.161  1.00  0.00     0.019 C 
ENDBRANCH   1   7
BRANCH   3  11
HETATM   11  N   UNL     1      61.421  11.412   2.288  1.00  0.00    -0.399 N 
HETATM   12  H   UNL     1      61.897  12.181   1.900  1.00  0.00     0.156 HD
HETATM   13  H   UNL     1      60.536  11.537   2.700  1.00  0.00     0.156 HD
ENDBRANCH   3  11
TORSDOF 2
ENDMDL
MODEL 7
REMARK VINA RESULT:      -4.3      2.652      3.932
REMARK  2 active torsions:
REMARK  status: ('A' for Active; 'I' for Inactive)
REMARK    1  A    between atoms: C_1  and  C_2 
REMARK    2  A    between atoms: C_4  and  N_5 
ROOT
HETATM    1  C   UNL     1      62.882   8.662   3.398  1.00  0.00    -0.048 A 
HETATM    2  C   UNL     1      63.139   7.495   2.651  1.00  0.00     0.037 A 
HETATM    3  C   UNL     1      62.711   7.348   1.325  1.00  0.00     0.026 A 
HETATM    4  C   UNL     1      62.209   9.708   2.742  1.00  0.00     0.008 A 
HETATM    5  C   UNL     1      61.832   9.599   1.400  1.00  0.00     0.003 A 
HETATM    6  C   UNL     1      62.103   8.430   0.692  1.00  0.00     0.029 A 
ENDROOT
BRANCH   1   7
HETATM    7  C   UNL     1      63.330   8.823   4.860  1.00  0.00    -0.024 C 
HETATM    8  C   UNL     1      62.628   7.853   5.836  1.00  0.00     0.019 C 
HETATM    9  C   UNL     1      64.848   8.564   4.970  1.00  0.00     0.019 C 
HETATM   10  C   UNL     1      63.028  10.256   5.350  1.00  0.00     0.019 C 
ENDBRANCH   1   7
BRANCH   3  11
HETATM   11  N   UNL     1      63.099   6.223   0.584  1.00  0.00    -0.399 N 
HETATM   12  H   UNL     1      62.659   5.356   0.739  1.00  0.00     0.156 HD
HETATM   13  H   UNL     1      63.810   6.300  -0.093  1.00  0.00     0.156 HD
ENDBRANCH   3  11
TORSDOF 2
ENDMDL
MODEL 8
REMARK VINA RESULT:      -4.3      1.305      2.845
REMARK  2 active torsions:
REMARK  status: ('A' for Active; 'I' for Inactive)
REMARK    1  A    between atoms: C_1  and  C_2 
REMARK    2  A    between atoms: C_4  and  N_5 
ROOT
HETATM    1  C   UNL     1      62.865   8.371   3.151  1.00  0.00    -0.048 A 
HETATM    2  C   UNL     1      62.687   9.511   3.959  1.00  0.00     0.037 A 
HETATM    3  C   UNL     1      63.467   9.747   5.099  1.00  0.00     0.026 A 
HETATM    4  C   UNL     1      63.898   7.486   3.509  1.00  0.00     0.008 A 
HETATM    5  C   UNL     1      64.724   7.742   4.607  1.00  0.00     0.003 A 
HETATM    6  C   UNL     1      64.520   8.881   5.384  1.00  0.00     0.029 A 
ENDROOT
BRANCH   1   7
HETATM    7  C   UNL     1      62.000   8.094   1.910  1.00  0.00    -0.024 C 
HETATM    8  C   UNL     1      62.084   9.201   0.835  1.00  0.00     0.019 C 
HETATM    9  C   UNL     1      62.454   6.776   1.245  1.00  0.00     0.019 C 
HETATM   10  C   UNL     1      60.516   7.967   2.316  1.00  0.00     0.019 C 
ENDBRANCH   1   7
BRANCH   3  11
HETATM   11  N   UNL     1      63.338  10.956   5.799  1.00  0.00    -0.399 N 
HETATM   12  H   UNL     1      64.029  11.227   6.445  1.00  0.00     0.156 HD
HETATM   13  H   UNL     1      62.556  11.534   5.642  1.00  0.00     0.156 HD
ENDBRANCH   3  11
TORSDOF 2
ENDMDL
MODEL 9
REMARK VINA RESULT:      -4.1      2.430      4.189
REMARK  2 active torsions:
REMARK  status: ('A' for Active; 'I' for Inactive)
REMARK    1  A    between atoms: C_1  and  C_2 
REMARK    2  A    between atoms: C_4  and  N_5 
ROOT
HETATM    1  C   UNL     1      63.271   8.424   3.607  1.00  0.00    -0.048 A 
HETATM    2  C   UNL     1      63.733   7.208   3.065  1.00  0.00     0.037 A 
HETATM    3  C   UNL     1      64.877   6.561   3.552  1.00  0.00     0.026 A 
HETATM    4  C   UNL     1      63.984   8.951   4.699  1.00  0.00     0.008 A 
HETATM    5  C   UNL     1      65.088   8.283   5.234  1.00  0.00     0.003 A 
HETATM    6  C   UNL     1      65.517   7.081   4.674  1.00  0.00     0.029 A 
ENDROOT
BRANCH   1   7
HETATM    7  C   UNL     1      62.029   9.152   3.066  1.00  0.00    -0.024 C 
HETATM    8  C   UNL     1      62.034   9.333   1.531  1.00  0.00     0.019 C 
HETATM    9  C   UNL     1      60.760   8.352   3.429  1.00  0.00     0.019 C 
HETATM   10  C   UNL     1      61.930  10.562   3.688  1.00  0.00     0.019 C 
ENDBRANCH   1   7
BRANCH   3  11
HETATM   11  N   UNL     1      65.224   5.292   3.065  1.00  0.00    -0.399 N 
HETATM   12  H   UNL     1      64.622   4.527   3.211  1.00  0.00     0.156 HD
HETATM   13  H   UNL     1      66.069   5.167   2.576  1.00  0.00     0.156 HD
ENDBRANCH   3  11
TORSDOF 2
ENDMDL
