MODEL 1
REMARK VINA RESULT:      -4.6      0.000      0.000
REMARK  2 active torsions:
REMARK  status: ('A' for Active; 'I' for Inactive)
REMARK    1  A    between atoms: C_1  and  C_2 
REMARK    2  A    between atoms: C_3  and  N_9 
ROOT
HETATM    1  C   UNL     1      63.028   9.371   4.208  1.00  0.00     0.076 A 
HETATM    2  C   UNL     1      62.654  10.626   4.708  1.00  0.00     0.056 A 
HETATM    3  N   UNL     1      61.501  11.103   2.603  1.00  0.00    -0.373 N 
ATOM      4  HN  UNL     1      60.948  11.739   2.029  1.00  0.00     0.164 HD
HETATM    5  C   UNL     1      62.591   8.990   2.924  1.00  0.00     0.035 A 
HETATM    6  C   UNL     1      61.934  11.451   3.837  1.00  0.00     0.117 A 
HETATM    7  C   UNL     1      61.837   9.875   2.174  1.00  0.00     0.088 A 
ENDROOT
BRANCH   1   8
HETATM    8  C   UNL     1      63.860   8.387   4.985  1.00  0.00     0.419 C 
HETATM    9  F   UNL     1      63.286   7.933   6.136  1.00  0.00    -0.166 F 
HETATM   10  F   UNL     1      65.072   8.895   5.346  1.00  0.00    -0.166 F 
HETATM   11  F   UNL     1      64.136   7.266   4.257  1.00  0.00    -0.166 F 
ENDBRANCH   1   8
BRANCH   2  12
HETATM   12  N   UNL     1      63.161  11.150   5.903  1.00  0.00    -0.397 N 
HETATM   13  H   UNL     1      62.596  11.171   6.709  1.00  0.00     0.156 HD
HETATM   14  H   UNL     1      64.081  11.498   5.937  1.00  0.00     0.156 HD
ENDBRANCH   2  12
TORSDOF 2
ENDMDL
MODEL 2
REMARK VINA RESULT:      -4.5      2.451      3.544
REMARK  2 active torsions:
REMARK  status: ('A' for Active; 'I' for Inactive)
REMARK    1  A    between atoms: C_1  and  C_2 
REMARK    2  A    between atoms: C_3  and  N_9 
ROOT
HETATM    1  C   UNL     1      62.344   9.323   2.901  1.00  0.00     0.076 A 
HETATM    2  C   UNL     1      62.140  10.653   3.292  1.00  0.00     0.056 A 
HETATM    3  N   UNL     1      62.964  10.106   5.530  1.00  0.00    -0.373 N 
ATOM      4  HN  UNL     1      63.185  10.401   6.481  1.00  0.00     0.164 HD
HETATM    5  C   UNL     1      62.897   8.417   3.828  1.00  0.00     0.035 A 
HETATM    6  C   UNL     1      62.428  10.959   4.627  1.00  0.00     0.117 A 
HETATM    7  C   UNL     1      63.191   8.850   5.108  1.00  0.00     0.088 A 
ENDROOT
BRANCH   1   8
HETATM    8  C   UNL     1      62.024   8.807   1.525  1.00  0.00     0.419 C 
HETATM    9  F   UNL     1      60.703   8.855   1.187  1.00  0.00    -0.166 F 
HETATM   10  F   UNL     1      62.409   7.512   1.347  1.00  0.00    -0.166 F 
HETATM   11  F   UNL     1      62.667   9.516   0.552  1.00  0.00    -0.166 F 
ENDBRANCH   1   8
BRANCH   2  12
HETATM   12  N   UNL     1      61.461  11.583   2.496  1.00  0.00    -0.397 N 
HETATM   13  H   UNL     1      61.173  12.443   2.881  1.00  0.00     0.156 HD
HETATM   14  H   UNL     1      61.271  11.378   1.552  1.00  0.00     0.156 HD
ENDBRANCH   2  12
TORSDOF 2
ENDMDL
MODEL 3
REMARK VINA RESULT:      -4.5      2.967      4.029
REMARK  2 active torsions:
REMARK  status: ('A' for Active; 'I' for Inactive)
REMARK    1  A    between atoms: C_1  and  C_2 
REMARK    2  A    between atoms: C_3  and  N_9 
ROOT
HETATM    1  C   UNL     1      62.373   9.811   3.171  1.00  0.00     0.076 A 
HETATM    2  C   UNL     1      62.986   8.636   3.625  1.00  0.00     0.056 A 
HETATM    3  N   UNL     1      63.414   9.710   5.781  1.00  0.00    -0.373 N 
ATOM      4  HN  UNL     1      63.796   9.662   6.726  1.00  0.00     0.164 HD
HETATM    5  C   UNL     1      62.255  10.904   4.053  1.00  0.00     0.035 A 
HETATM    6  C   UNL     1      63.520   8.674   4.917  1.00  0.00     0.117 A 
HETATM    7  C   UNL     1      62.779  10.805   5.330  1.00  0.00     0.088 A 
ENDROOT
BRANCH   1   8
HETATM    8  C   UNL     1      61.805   9.966   1.787  1.00  0.00     0.419 C 
HETATM    9  F   UNL     1      62.667   9.660   0.775  1.00  0.00    -0.166 F 
HETATM   10  F   UNL     1      61.370  11.234   1.536  1.00  0.00    -0.166 F 
HETATM   11  F   UNL     1      60.720   9.162   1.587  1.00  0.00    -0.166 F 
ENDBRANCH   1   8
BRANCH   2  12
HETATM   12  N   UNL     1      63.281   7.559   2.782  1.00  0.00    -0.397 N 
HETATM   13  H   UNL     1      63.388   6.655   3.157  1.00  0.00     0.156 HD
HETATM   14  H   UNL     1      63.382   7.704   1.813  1.00  0.00     0.156 HD
ENDBRANCH   2  12
TORSDOF 2
ENDMDL
MODEL 4
REMARK VINA RESULT:      -4.1      5.408      6.198
REMARK  2 active torsions:
REMARK  status: ('A' for Active; 'I' for Inactive)
REMARK    1  A    between atoms: C_1  and  C_2 
REMARK    2  A    between atoms: C_3  and  N_9 
ROOT
HETATM    1  C   UNL     1      67.126   6.216   7.018  1.00  0.00     0.076 A 
HETATM    2  C   UNL     1      67.026   7.485   6.432  1.00  0.00     0.056 A 
HETATM    3  N   UNL     1      67.391   6.481   4.231  1.00  0.00    -0.373 N 
ATOM      4  HN  UNL     1      67.485   6.588   3.221  1.00  0.00     0.164 HD
HETATM    5  C   UNL     1      67.315   5.094   6.188  1.00  0.00     0.035 A 
HETATM    6  C   UNL     1      67.213   7.545   5.047  1.00  0.00     0.117 A 
HETATM    7  C   UNL     1      67.434   5.274   4.821  1.00  0.00     0.088 A 
ENDROOT
BRANCH   1   8
HETATM    8  C   UNL     1      67.018   5.979   8.500  1.00  0.00     0.419 C 
HETATM    9  F   UNL     1      68.070   6.444   9.234  1.00  0.00    -0.166 F 
HETATM   10  F   UNL     1      66.899   4.658   8.812  1.00  0.00    -0.166 F 
HETATM   11  F   UNL     1      65.916   6.581   9.034  1.00  0.00    -0.166 F 
ENDBRANCH   1   8
BRANCH   2  12
HETATM   12  N   UNL     1      66.989   8.667   7.181  1.00  0.00    -0.397 N 
HETATM   13  H   UNL     1      66.997   9.540   6.724  1.00  0.00     0.156 HD
HETATM   14  H   UNL     1      66.955   8.626   8.164  1.00  0.00     0.156 HD
ENDBRANCH   2  12
TORSDOF 2
ENDMDL
MODEL 5
REMARK VINA RESULT:      -3.9      1.957      2.573
REMARK  2 active torsions:
REMARK  status: ('A' for Active; 'I' for Inactive)
REMARK    1  A    between atoms: C_1  and  C_2 
REMARK    2  A    between atoms: C_3  and  N_9 
ROOT
HETATM    1  C   UNL     1      62.719   9.368   3.747  1.00  0.00     0.076 A 
HETATM    2  C   UNL     1      62.986   8.247   2.950  1.00  0.00     0.056 A 
HETATM    3  N   UNL     1      61.864   9.337   1.068  1.00  0.00    -0.373 N 
ATOM      4  HN  UNL     1      61.558   9.314   0.096  1.00  0.00     0.164 HD
HETATM    5  C   UNL     1      62.062  10.474   3.172  1.00  0.00     0.035 A 
HETATM    6  C   UNL     1      62.492   8.284   1.642  1.00  0.00     0.117 A 
HETATM    7  C   UNL     1      61.665  10.414   1.848  1.00  0.00     0.088 A 
ENDROOT
BRANCH   1   8
HETATM    8  C   UNL     1      63.119   9.467   5.194  1.00  0.00     0.419 C 
HETATM    9  F   UNL     1      62.618   8.486   5.997  1.00  0.00    -0.166 F 
HETATM   10  F   UNL     1      62.740  10.647   5.763  1.00  0.00    -0.166 F 
HETATM   11  F   UNL     1      64.473   9.403   5.354  1.00  0.00    -0.166 F 
ENDBRANCH   1   8
BRANCH   2  12
HETATM   12  N   UNL     1      63.496   7.051   3.467  1.00  0.00    -0.397 N 
HETATM   13  H   UNL     1      64.454   6.976   3.683  1.00  0.00     0.156 HD
HETATM   14  H   UNL     1      62.897   6.284   3.615  1.00  0.00     0.156 HD
ENDBRANCH   2  12
TORSDOF 2
ENDMDL
MODEL 6
REMARK VINA RESULT:      -3.8      2.877      4.096
REMARK  2 active torsions:
REMARK  status: ('A' for Active; 'I' for Inactive)
REMARK    1  A    between atoms: C_1  and  C_2 
REMARK    2  A    between atoms: C_3  and  N_9 
ROOT
HETATM    1  C   UNL     1      63.169   8.994   3.957  1.00  0.00     0.076 A 
HETATM    2  C   UNL     1      63.213   7.865   3.128  1.00  0.00     0.056 A 
HETATM    3  N   UNL     1      65.115   7.014   4.411  1.00  0.00    -0.373 N 
ATOM      4  HN  UNL     1      65.816   6.291   4.566  1.00  0.00     0.164 HD
HETATM    5  C   UNL     1      64.079   9.089   5.029  1.00  0.00     0.035 A 
HETATM    6  C   UNL     1      64.235   6.945   3.385  1.00  0.00     0.117 A 
HETATM    7  C   UNL     1      65.015   8.087   5.215  1.00  0.00     0.088 A 
ENDROOT
BRANCH   1   8
HETATM    8  C   UNL     1      62.179  10.112   3.779  1.00  0.00     0.419 C 
HETATM    9  F   UNL     1      62.252  10.758   2.580  1.00  0.00    -0.166 F 
HETATM   10  F   UNL     1      62.303  11.079   4.733  1.00  0.00    -0.166 F 
HETATM   11  F   UNL     1      60.890   9.672   3.870  1.00  0.00    -0.166 F 
ENDBRANCH   1   8
BRANCH   2  12
HETATM   12  N   UNL     1      62.455   7.753   1.957  1.00  0.00    -0.397 N 
HETATM   13  H   UNL     1      61.685   7.139   1.926  1.00  0.00     0.156 HD
HETATM   14  H   UNL     1      62.691   8.287   1.164  1.00  0.00     0.156 HD
ENDBRANCH   2  12
TORSDOF 2
ENDMDL
MODEL 7
REMARK VINA RESULT:      -3.8      1.629      2.398
REMARK  2 active torsions:
REMARK  status: ('A' for Active; 'I' for Inactive)
REMARK    1  A    between atoms: C_1  and  C_2 
REMARK    2  A    between atoms: C_3  and  N_9 
ROOT
HETATM    1  C   UNL     1      62.719   9.128   3.555  1.00  0.00     0.076 A 
HETATM    2  C   UNL     1      62.008   9.980   2.700  1.00  0.00     0.056 A 
HETATM    3  N   UNL     1      62.122   8.283   0.940  1.00  0.00    -0.373 N 
ATOM      4  HN  UNL     1      61.901   7.987  -0.010  1.00  0.00     0.164 HD
HETATM    5  C   UNL     1      63.081   7.846   3.096  1.00  0.00     0.035 A 
HETATM    6  C   UNL     1      61.788   9.511   1.400  1.00  0.00     0.117 A 
HETATM    7  C   UNL     1      62.761   7.474   1.802  1.00  0.00     0.088 A 
ENDROOT
BRANCH   1   8
HETATM    8  C   UNL     1      63.100   9.500   4.962  1.00  0.00     0.419 C 
HETATM    9  F   UNL     1      62.668  10.729   5.368  1.00  0.00    -0.166 F 
HETATM   10  F   UNL     1      64.449   9.494   5.159  1.00  0.00    -0.166 F 
HETATM   11  F   UNL     1      62.593   8.623   5.878  1.00  0.00    -0.166 F 
ENDBRANCH   1   8
BRANCH   2  12
HETATM   12  N   UNL     1      61.737  11.317   3.012  1.00  0.00    -0.397 N 
HETATM   13  H   UNL     1      61.151  11.850   2.426  1.00  0.00     0.156 HD
HETATM   14  H   UNL     1      62.133  11.725   3.815  1.00  0.00     0.156 HD
ENDBRANCH   2  12
TORSDOF 2
ENDMDL
MODEL 8
REMARK VINA RESULT:      -3.8      5.114      6.235
REMARK  2 active torsions:
REMARK  status: ('A' for Active; 'I' for Inactive)
REMARK    1  A    between atoms: C_1  and  C_2 
REMARK    2  A    between atoms: C_3  and  N_9 
ROOT
HETATM    1  C   UNL     1      66.792   6.307   6.215  1.00  0.00     0.076 A 
HETATM    2  C   UNL     1      66.797   7.106   7.366  1.00  0.00     0.056 A 
HETATM    3  N   UNL     1      66.253   5.140   8.716  1.00  0.00    -0.373 N 
ATOM      4  HN  UNL     1      66.058   4.727   9.628  1.00  0.00     0.164 HD
HETATM    5  C   UNL     1      66.558   4.924   6.346  1.00  0.00     0.035 A 
HETATM    6  C   UNL     1      66.476   6.466   8.568  1.00  0.00     0.117 A 
HETATM    7  C   UNL     1      66.302   4.395   7.599  1.00  0.00     0.088 A 
ENDROOT
BRANCH   1   8
HETATM    8  C   UNL     1      67.050   6.845   4.834  1.00  0.00     0.419 C 
HETATM    9  F   UNL     1      68.075   7.741   4.749  1.00  0.00    -0.166 F 
HETATM   10  F   UNL     1      65.961   7.471   4.303  1.00  0.00    -0.166 F 
HETATM   11  F   UNL     1      67.367   5.854   3.951  1.00  0.00    -0.166 F 
ENDBRANCH   1   8
BRANCH   2  12
HETATM   12  N   UNL     1      66.872   8.503   7.320  1.00  0.00    -0.397 N 
HETATM   13  H   UNL     1      66.049   9.037   7.231  1.00  0.00     0.156 HD
HETATM   14  H   UNL     1      67.746   8.952   7.377  1.00  0.00     0.156 HD
ENDBRANCH   2  12
TORSDOF 2
ENDMDL
MODEL 9
REMARK VINA RESULT:      -3.7     12.197     13.072
REMARK  2 active torsions:
REMARK  status: ('A' for Active; 'I' for Inactive)
REMARK    1  A    between atoms: C_1  and  C_2 
REMARK    2  A    between atoms: C_3  and  N_9 
ROOT
HETATM    1  C   UNL     1      57.757   1.725  12.998  1.00  0.00     0.076 A 
HETATM    2  C   UNL     1      56.399   1.468  13.227  1.00  0.00     0.056 A 
HETATM    3  N   UNL     1      55.862   2.455  11.053  1.00  0.00    -0.373 N 
ATOM      4  HN  UNL     1      55.166   2.716  10.355  1.00  0.00     0.164 HD
HETATM    5  C   UNL     1      58.145   2.306  11.775  1.00  0.00     0.035 A 
HETATM    6  C   UNL     1      55.510   1.899  12.236  1.00  0.00     0.117 A 
HETATM    7  C   UNL     1      57.176   2.643  10.846  1.00  0.00     0.088 A 
ENDROOT
BRANCH   1   8
HETATM    8  C   UNL     1      58.840   1.389  13.987  1.00  0.00     0.419 C 
HETATM    9  F   UNL     1      58.885   0.078  14.365  1.00  0.00    -0.166 F 
HETATM   10  F   UNL     1      58.738   2.107  15.141  1.00  0.00    -0.166 F 
HETATM   11  F   UNL     1      60.083   1.662  13.495  1.00  0.00    -0.166 F 
ENDBRANCH   1   8
BRANCH   2  12
HETATM   12  N   UNL     1      55.905   1.035  14.463  1.00  0.00    -0.397 N 
HETATM   13  H   UNL     1      55.291   1.608  14.976  1.00  0.00     0.156 HD
HETATM   14  H   UNL     1      56.172   0.157  14.819  1.00  0.00     0.156 HD
ENDBRANCH   2  12
TORSDOF 2
ENDMDL
