MODEL 1
REMARK VINA RESULT:      -5.0      0.000      0.000
REMARK  2 active torsions:
REMARK  status: ('A' for Active; 'I' for Inactive)
REMARK    1  A    between atoms: C_1  and  C_4 
REMARK    2  A    between atoms: C_2  and  C_3 
ROOT
HETATM    1  C   UNL     1      62.805   9.338   4.099  1.00  0.00     0.071 A 
HETATM    2  C   UNL     1      62.868   8.506   2.975  1.00  0.00     0.067 A 
HETATM    3  N   UNL     1      61.644  11.042   2.809  1.00  0.00    -0.374 N 
ATOM      4  HN  UNL     1      61.204  11.961   2.755  1.00  0.00     0.164 HD
HETATM    5  C   UNL     1      62.199  10.588   3.958  1.00  0.00     0.106 A 
HETATM    6  C   UNL     1      62.290   8.973   1.776  1.00  0.00     0.034 A 
HETATM    7  C   UNL     1      61.702  10.227   1.741  1.00  0.00     0.088 A 
ENDROOT
BRANCH   2   8
HETATM    8  C   UNL     1      63.528   7.153   2.928  1.00  0.00     0.418 C 
HETATM    9  F   UNL     1      64.821   7.087   3.331  1.00  0.00    -0.166 F 
HETATM   10  F   UNL     1      62.843   6.227   3.657  1.00  0.00    -0.166 F 
HETATM   11  F   UNL     1      63.541   6.661   1.653  1.00  0.00    -0.166 F 
ENDBRANCH   2   8
BRANCH   1  12
HETATM   12  C   UNL     1      63.339   9.043   5.435  1.00  0.00     0.211 C 
HETATM   13  O   UNL     1      62.815   8.323   6.264  1.00  0.00    -0.644 OA
HETATM   14  O   UNL     1      64.556   9.570   5.614  1.00  0.00    -0.644 OA
ENDBRANCH   1  12
TORSDOF 2
ENDMDL
MODEL 2
REMARK VINA RESULT:      -4.8      2.760      3.571
REMARK  2 active torsions:
REMARK  status: ('A' for Active; 'I' for Inactive)
REMARK    1  A    between atoms: C_1  and  C_4 
REMARK    2  A    between atoms: C_2  and  C_3 
ROOT
HETATM    1  C   UNL     1      62.809   8.600   3.731  1.00  0.00     0.071 A 
HETATM    2  C   UNL     1      62.296   9.775   3.168  1.00  0.00     0.067 A 
HETATM    3  N   UNL     1      63.220   9.751   5.833  1.00  0.00    -0.374 N 
ATOM      4  HN  UNL     1      63.556   9.735   6.797  1.00  0.00     0.164 HD
HETATM    5  C   UNL     1      63.264   8.647   5.050  1.00  0.00     0.106 A 
HETATM    6  C   UNL     1      62.247  10.927   3.981  1.00  0.00     0.034 A 
HETATM    7  C   UNL     1      62.714  10.868   5.283  1.00  0.00     0.088 A 
ENDROOT
BRANCH   2   8
HETATM    8  C   UNL     1      61.812   9.923   1.751  1.00  0.00     0.418 C 
HETATM    9  F   UNL     1      62.678   9.576   0.767  1.00  0.00    -0.166 F 
HETATM   10  F   UNL     1      60.665   9.221   1.528  1.00  0.00    -0.166 F 
HETATM   11  F   UNL     1      61.490  11.224   1.479  1.00  0.00    -0.166 F 
ENDBRANCH   2   8
BRANCH   1  12
HETATM   12  C   UNL     1      62.946   7.299   3.063  1.00  0.00     0.211 C 
HETATM   13  O   UNL     1      63.987   6.816   2.660  1.00  0.00    -0.644 OA
HETATM   14  O   UNL     1      61.791   6.623   3.044  1.00  0.00    -0.644 OA
ENDBRANCH   1  12
TORSDOF 2
ENDMDL
MODEL 3
REMARK VINA RESULT:      -4.4      2.652      3.437
REMARK  2 active torsions:
REMARK  status: ('A' for Active; 'I' for Inactive)
REMARK    1  A    between atoms: C_1  and  C_4 
REMARK    2  A    between atoms: C_2  and  C_3 
ROOT
HETATM    1  C   UNL     1      62.438   9.741   3.460  1.00  0.00     0.071 A 
HETATM    2  C   UNL     1      62.377   8.656   2.578  1.00  0.00     0.067 A 
HETATM    3  N   UNL     1      63.250   8.292   5.236  1.00  0.00    -0.374 N 
ATOM      4  HN  UNL     1      63.564   8.167   6.198  1.00  0.00     0.164 HD
HETATM    5  C   UNL     1      62.865   9.503   4.767  1.00  0.00     0.106 A 
HETATM    6  C   UNL     1      62.779   7.392   3.060  1.00  0.00     0.034 A 
HETATM    7  C   UNL     1      63.198   7.261   4.374  1.00  0.00     0.088 A 
ENDROOT
BRANCH   2   8
HETATM    8  C   UNL     1      61.893   8.716   1.154  1.00  0.00     0.418 C 
HETATM    9  F   UNL     1      61.896   7.554   0.455  1.00  0.00    -0.166 F 
HETATM   10  F   UNL     1      60.630   9.221   1.066  1.00  0.00    -0.166 F 
HETATM   11  F   UNL     1      62.667   9.563   0.411  1.00  0.00    -0.166 F 
ENDBRANCH   2   8
BRANCH   1  12
HETATM   12  C   UNL     1      62.070  11.132   3.161  1.00  0.00     0.211 C 
HETATM   13  O   UNL     1      61.960  11.611   2.048  1.00  0.00    -0.644 OA
HETATM   14  O   UNL     1      61.744  11.811   4.266  1.00  0.00    -0.644 OA
ENDBRANCH   1  12
TORSDOF 2
ENDMDL
MODEL 4
REMARK VINA RESULT:      -4.4      2.298      3.122
REMARK  2 active torsions:
REMARK  status: ('A' for Active; 'I' for Inactive)
REMARK    1  A    between atoms: C_1  and  C_4 
REMARK    2  A    between atoms: C_2  and  C_3 
ROOT
HETATM    1  C   UNL     1      62.259   9.662   3.020  1.00  0.00     0.071 A 
HETATM    2  C   UNL     1      62.967   8.906   3.961  1.00  0.00     0.067 A 
HETATM    3  N   UNL     1      62.258  11.578   4.517  1.00  0.00    -0.374 N 
ATOM      4  HN  UNL     1      61.999  12.546   4.712  1.00  0.00     0.164 HD
HETATM    5  C   UNL     1      61.923  10.976   3.351  1.00  0.00     0.106 A 
HETATM    6  C   UNL     1      63.321   9.529   5.175  1.00  0.00     0.034 A 
HETATM    7  C   UNL     1      62.950  10.843   5.405  1.00  0.00     0.088 A 
ENDROOT
BRANCH   2   8
HETATM    8  C   UNL     1      63.367   7.463   3.797  1.00  0.00     0.418 C 
HETATM    9  F   UNL     1      64.063   7.142   2.679  1.00  0.00    -0.166 F 
HETATM   10  F   UNL     1      64.099   7.014   4.855  1.00  0.00    -0.166 F 
HETATM   11  F   UNL     1      62.266   6.653   3.759  1.00  0.00    -0.166 F 
ENDBRANCH   2   8
BRANCH   1  12
HETATM   12  C   UNL     1      61.799   9.207   1.701  1.00  0.00     0.211 C 
HETATM   13  O   UNL     1      62.426   9.297   0.662  1.00  0.00    -0.644 OA
HETATM   14  O   UNL     1      60.632   8.556   1.776  1.00  0.00    -0.644 OA
ENDBRANCH   1  12
TORSDOF 2
ENDMDL
MODEL 5
REMARK VINA RESULT:      -4.2      1.877      2.285
REMARK  2 active torsions:
REMARK  status: ('A' for Active; 'I' for Inactive)
REMARK    1  A    between atoms: C_1  and  C_4 
REMARK    2  A    between atoms: C_2  and  C_3 
ROOT
HETATM    1  C   UNL     1      62.498   9.486   4.379  1.00  0.00     0.071 A 
HETATM    2  C   UNL     1      62.086   8.149   4.421  1.00  0.00     0.067 A 
HETATM    3  N   UNL     1      61.384   9.795   2.240  1.00  0.00    -0.374 N 
ATOM      4  HN  UNL     1      61.134  10.396   1.454  1.00  0.00     0.164 HD
HETATM    5  C   UNL     1      62.134  10.252   3.271  1.00  0.00     0.106 A 
HETATM    6  C   UNL     1      61.303   7.668   3.351  1.00  0.00     0.034 A 
HETATM    7  C   UNL     1      60.985   8.513   2.300  1.00  0.00     0.088 A 
ENDROOT
BRANCH   2   8
HETATM    8  C   UNL     1      62.429   7.164   5.506  1.00  0.00     0.418 C 
HETATM    9  F   UNL     1      62.350   7.608   6.785  1.00  0.00    -0.166 F 
HETATM   10  F   UNL     1      61.663   6.040   5.435  1.00  0.00    -0.166 F 
HETATM   11  F   UNL     1      63.717   6.724   5.376  1.00  0.00    -0.166 F 
ENDBRANCH   2   8
BRANCH   1  12
HETATM   12  C   UNL     1      63.312  10.181   5.386  1.00  0.00     0.211 C 
HETATM   13  O   UNL     1      62.913  11.039   6.150  1.00  0.00    -0.644 OA
HETATM   14  O   UNL     1      64.550   9.678   5.462  1.00  0.00    -0.644 OA
ENDBRANCH   1  12
TORSDOF 2
ENDMDL
MODEL 6
REMARK VINA RESULT:      -4.1      5.412      6.600
REMARK  2 active torsions:
REMARK  status: ('A' for Active; 'I' for Inactive)
REMARK    1  A    between atoms: C_1  and  C_4 
REMARK    2  A    between atoms: C_2  and  C_3 
ROOT
HETATM    1  C   UNL     1      66.583   5.823   7.282  1.00  0.00     0.071 A 
HETATM    2  C   UNL     1      67.139   5.125   6.204  1.00  0.00     0.067 A 
HETATM    3  N   UNL     1      67.157   4.007   8.793  1.00  0.00    -0.374 N 
ATOM      4  HN  UNL     1      67.160   3.608   9.732  1.00  0.00     0.164 HD
HETATM    5  C   UNL     1      66.608   5.219   8.540  1.00  0.00     0.106 A 
HETATM    6  C   UNL     1      67.715   3.864   6.463  1.00  0.00     0.034 A 
HETATM    7  C   UNL     1      67.699   3.354   7.750  1.00  0.00     0.088 A 
ENDROOT
BRANCH   2   8
HETATM    8  C   UNL     1      67.154   5.597   4.774  1.00  0.00     0.418 C 
HETATM    9  F   UNL     1      67.691   4.756   3.856  1.00  0.00    -0.166 F 
HETATM   10  F   UNL     1      65.906   5.915   4.330  1.00  0.00    -0.166 F 
HETATM   11  F   UNL     1      67.880   6.749   4.648  1.00  0.00    -0.166 F 
ENDBRANCH   2   8
BRANCH   1  12
HETATM   12  C   UNL     1      65.941   7.143   7.229  1.00  0.00     0.211 C 
HETATM   13  O   UNL     1      66.512   8.203   7.052  1.00  0.00    -0.644 OA
HETATM   14  O   UNL     1      64.607   7.052   7.281  1.00  0.00    -0.644 OA
ENDBRANCH   1  12
TORSDOF 2
ENDMDL
MODEL 7
REMARK VINA RESULT:      -4.0      3.433      4.406
REMARK  2 active torsions:
REMARK  status: ('A' for Active; 'I' for Inactive)
REMARK    1  A    between atoms: C_1  and  C_4 
REMARK    2  A    between atoms: C_2  and  C_3 
ROOT
HETATM    1  C   UNL     1      63.059   7.919   2.843  1.00  0.00     0.071 A 
HETATM    2  C   UNL     1      63.073   8.962   3.775  1.00  0.00     0.067 A 
HETATM    3  N   UNL     1      64.883   6.811   4.010  1.00  0.00    -0.374 N 
ATOM      4  HN  UNL     1      65.535   6.031   4.089  1.00  0.00     0.164 HD
HETATM    5  C   UNL     1      63.984   6.885   2.999  1.00  0.00     0.106 A 
HETATM    6  C   UNL     1      64.006   8.890   4.831  1.00  0.00     0.034 A 
HETATM    7  C   UNL     1      64.876   7.815   4.905  1.00  0.00     0.088 A 
ENDROOT
BRANCH   2   8
HETATM    8  C   UNL     1      62.188  10.180   3.734  1.00  0.00     0.418 C 
HETATM    9  F   UNL     1      62.411  11.132   4.674  1.00  0.00    -0.166 F 
HETATM   10  F   UNL     1      62.238  10.806   2.525  1.00  0.00    -0.166 F 
HETATM   11  F   UNL     1      60.876   9.835   3.901  1.00  0.00    -0.166 F 
ENDBRANCH   2   8
BRANCH   1  12
HETATM   12  C   UNL     1      62.172   7.800   1.678  1.00  0.00     0.211 C 
HETATM   13  O   UNL     1      62.365   8.303   0.587  1.00  0.00    -0.644 OA
HETATM   14  O   UNL     1      61.156   6.959   1.907  1.00  0.00    -0.644 OA
ENDBRANCH   1  12
TORSDOF 2
ENDMDL
MODEL 8
REMARK VINA RESULT:      -3.9      4.693      5.971
REMARK  2 active torsions:
REMARK  status: ('A' for Active; 'I' for Inactive)
REMARK    1  A    between atoms: C_1  and  C_4 
REMARK    2  A    between atoms: C_2  and  C_3 
ROOT
HETATM    1  C   UNL     1      65.436   6.031   6.686  1.00  0.00     0.071 A 
HETATM    2  C   UNL     1      66.660   6.517   6.212  1.00  0.00     0.067 A 
HETATM    3  N   UNL     1      66.585   4.655   8.329  1.00  0.00    -0.374 N 
ATOM      4  HN  UNL     1      66.551   3.981   9.094  1.00  0.00     0.164 HD
HETATM    5  C   UNL     1      65.457   5.102   7.728  1.00  0.00     0.106 A 
HETATM    6  C   UNL     1      67.838   6.056   6.836  1.00  0.00     0.034 A 
HETATM    7  C   UNL     1      67.753   5.139   7.870  1.00  0.00     0.088 A 
ENDROOT
BRANCH   2   8
HETATM    8  C   UNL     1      66.831   7.478   5.066  1.00  0.00     0.418 C 
HETATM    9  F   UNL     1      66.720   6.968   3.815  1.00  0.00    -0.166 F 
HETATM   10  F   UNL     1      65.957   8.522   5.141  1.00  0.00    -0.166 F 
HETATM   11  F   UNL     1      68.072   8.052   5.092  1.00  0.00    -0.166 F 
ENDBRANCH   2   8
BRANCH   1  12
HETATM   12  C   UNL     1      64.102   6.382   6.181  1.00  0.00     0.211 C 
HETATM   13  O   UNL     1      63.515   5.816   5.279  1.00  0.00    -0.644 OA
HETATM   14  O   UNL     1      63.528   7.344   6.913  1.00  0.00    -0.644 OA
ENDBRANCH   1  12
TORSDOF 2
ENDMDL
MODEL 9
REMARK VINA RESULT:      -3.9      6.346      7.103
REMARK  2 active torsions:
REMARK  status: ('A' for Active; 'I' for Inactive)
REMARK    1  A    between atoms: C_1  and  C_4 
REMARK    2  A    between atoms: C_2  and  C_3 
ROOT
HETATM    1  C   UNL     1      58.930   6.084   7.434  1.00  0.00     0.071 A 
HETATM    2  C   UNL     1      58.006   6.287   6.403  1.00  0.00     0.067 A 
HETATM    3  N   UNL     1      60.611   5.373   5.827  1.00  0.00    -0.374 N 
ATOM      4  HN  UNL     1      61.555   5.042   5.625  1.00  0.00     0.164 HD
HETATM    5  C   UNL     1      60.202   5.619   7.094  1.00  0.00     0.106 A 
HETATM    6  C   UNL     1      58.427   6.035   5.081  1.00  0.00     0.034 A 
HETATM    7  C   UNL     1      59.716   5.585   4.846  1.00  0.00     0.088 A 
ENDROOT
BRANCH   2   8
HETATM    8  C   UNL     1      56.579   6.732   6.587  1.00  0.00     0.418 C 
HETATM    9  F   UNL     1      55.832   6.043   7.484  1.00  0.00    -0.166 F 
HETATM   10  F   UNL     1      56.497   8.046   6.938  1.00  0.00    -0.166 F 
HETATM   11  F   UNL     1      55.883   6.634   5.414  1.00  0.00    -0.166 F 
ENDBRANCH   2   8
BRANCH   1  12
HETATM   12  C   UNL     1      58.697   6.288   8.870  1.00  0.00     0.211 C 
HETATM   13  O   UNL     1      58.387   7.342   9.394  1.00  0.00    -0.644 OA
HETATM   14  O   UNL     1      58.744   5.138   9.552  1.00  0.00    -0.644 OA
ENDBRANCH   1  12
TORSDOF 2
ENDMDL
