MODEL 1
REMARK VINA RESULT:      -5.5      0.000      0.000
REMARK  1 active torsions:
REMARK  status: ('A' for Active; 'I' for Inactive)
REMARK    1  A    between atoms: C_6  and  O_8 
ROOT
HETATM    1  N   UNL     1      62.451  11.716   5.121  1.00  0.00    -0.238 N 
ATOM      2  HN  UNL     1      62.154  12.644   5.422  1.00  0.00     0.197 HD
HETATM    3  C   UNL     1      63.621   9.749   4.960  1.00  0.00     0.053 A 
HETATM    4  O   UNL     1      61.884  10.911   4.131  1.00  0.00    -0.234 OA
HETATM    5  C   UNL     1      62.585   9.739   4.039  1.00  0.00     0.119 A 
HETATM    6  C   UNL     1      63.468  10.994   5.581  1.00  0.00     0.173 A 
HETATM    7  C   UNL     1      62.317   8.683   3.161  1.00  0.00    -0.025 A 
HETATM    8  C   UNL     1      64.478   8.643   5.045  1.00  0.00     0.019 A 
HETATM    9  C   UNL     1      64.247   7.563   4.185  1.00  0.00     0.002 A 
HETATM   10  C   UNL     1      63.190   7.585   3.266  1.00  0.00     0.010 A 
HETATM   11  C   UNL     1      61.190   8.700   2.179  1.00  0.00     0.051 C 
ENDROOT
BRANCH   6  12
HETATM   12  O   UNL     1      64.194  11.546   6.556  1.00  0.00    -0.344 OA
HETATM   13  H   UNL     1      63.938  11.434   7.452  1.00  0.00     0.219 HD
ENDBRANCH   6  12
TORSDOF 1
ENDMDL
MODEL 2
REMARK VINA RESULT:      -5.4      1.835      2.458
REMARK  1 active torsions:
REMARK  status: ('A' for Active; 'I' for Inactive)
REMARK    1  A    between atoms: C_6  and  O_8 
ROOT
HETATM    1  N   UNL     1      62.958  10.196   5.780  1.00  0.00    -0.238 N 
ATOM      2  HN  UNL     1      63.138  10.515   6.732  1.00  0.00     0.197 HD
HETATM    3  C   UNL     1      62.759   8.846   3.937  1.00  0.00     0.053 A 
HETATM    4  O   UNL     1      62.520  10.951   4.690  1.00  0.00    -0.234 OA
HETATM    5  C   UNL     1      62.404  10.141   3.593  1.00  0.00     0.119 A 
HETATM    6  C   UNL     1      63.085   8.967   5.292  1.00  0.00     0.173 A 
HETATM    7  C   UNL     1      61.992  10.535   2.314  1.00  0.00    -0.025 A 
HETATM    8  C   UNL     1      62.716   7.837   2.963  1.00  0.00     0.019 A 
HETATM    9  C   UNL     1      62.309   8.188   1.670  1.00  0.00     0.002 A 
HETATM   10  C   UNL     1      61.956   9.506   1.356  1.00  0.00     0.010 A 
HETATM   11  C   UNL     1      61.611  11.940   1.973  1.00  0.00     0.051 C 
ENDROOT
BRANCH   6  12
HETATM   12  O   UNL     1      63.500   8.029   6.148  1.00  0.00    -0.344 OA
HETATM   13  H   UNL     1      63.643   7.152   5.848  1.00  0.00     0.219 HD
ENDBRANCH   6  12
TORSDOF 1
ENDMDL
MODEL 3
REMARK VINA RESULT:      -5.4      1.101      2.942
REMARK  1 active torsions:
REMARK  status: ('A' for Active; 'I' for Inactive)
REMARK    1  A    between atoms: C_6  and  O_8 
ROOT
HETATM    1  N   UNL     1      63.006  11.103   5.432  1.00  0.00    -0.238 N 
ATOM      2  HN  UNL     1      62.719  11.998   5.830  1.00  0.00     0.197 HD
HETATM    3  C   UNL     1      63.067   9.222   4.122  1.00  0.00     0.053 A 
HETATM    4  O   UNL     1      64.093  10.308   5.802  1.00  0.00    -0.234 OA
HETATM    5  C   UNL     1      64.125   9.187   5.017  1.00  0.00     0.119 A 
HETATM    6  C   UNL     1      62.433  10.427   4.443  1.00  0.00     0.173 A 
HETATM    7  C   UNL     1      65.067   8.155   5.090  1.00  0.00    -0.025 A 
HETATM    8  C   UNL     1      62.899   8.168   3.213  1.00  0.00     0.019 A 
HETATM    9  C   UNL     1      63.820   7.113   3.250  1.00  0.00     0.002 A 
HETATM   10  C   UNL     1      64.878   7.109   4.167  1.00  0.00     0.010 A 
HETATM   11  C   UNL     1      66.200   8.146   6.065  1.00  0.00     0.051 C 
ENDROOT
BRANCH   6  12
HETATM   12  O   UNL     1      61.345  10.980   3.899  1.00  0.00    -0.344 OA
HETATM   13  H   UNL     1      60.741  10.449   3.418  1.00  0.00     0.219 HD
ENDBRANCH   6  12
TORSDOF 1
ENDMDL
MODEL 4
REMARK VINA RESULT:      -5.3      1.086      2.619
REMARK  1 active torsions:
REMARK  status: ('A' for Active; 'I' for Inactive)
REMARK    1  A    between atoms: C_6  and  O_8 
ROOT
HETATM    1  N   UNL     1      63.651  11.068   5.917  1.00  0.00    -0.238 N 
ATOM      2  HN  UNL     1      63.791  11.823   6.588  1.00  0.00     0.197 HD
HETATM    3  C   UNL     1      62.829   9.832   4.168  1.00  0.00     0.053 A 
HETATM    4  O   UNL     1      64.337   9.854   5.835  1.00  0.00    -0.234 OA
HETATM    5  C   UNL     1      63.843   9.121   4.790  1.00  0.00     0.119 A 
HETATM    6  C   UNL     1      62.775  11.011   4.920  1.00  0.00     0.173 A 
HETATM    7  C   UNL     1      64.277   7.851   4.394  1.00  0.00    -0.025 A 
HETATM    8  C   UNL     1      62.171   9.271   3.064  1.00  0.00     0.019 A 
HETATM    9  C   UNL     1      62.574   8.002   2.633  1.00  0.00     0.002 A 
HETATM   10  C   UNL     1      63.603   7.310   3.283  1.00  0.00     0.010 A 
HETATM   11  C   UNL     1      65.377   7.109   5.083  1.00  0.00     0.051 C 
ENDROOT
BRANCH   6  12
HETATM   12  O   UNL     1      61.975  12.071   4.772  1.00  0.00    -0.344 OA
HETATM   13  H   UNL     1      62.344  12.920   4.626  1.00  0.00     0.219 HD
ENDBRANCH   6  12
TORSDOF 1
ENDMDL
MODEL 5
REMARK VINA RESULT:      -5.3      1.730      2.626
REMARK  1 active torsions:
REMARK  status: ('A' for Active; 'I' for Inactive)
REMARK    1  A    between atoms: C_6  and  O_8 
ROOT
HETATM    1  N   UNL     1      63.555   9.239   5.744  1.00  0.00    -0.238 N 
ATOM      2  HN  UNL     1      63.961   8.994   6.648  1.00  0.00     0.197 HD
HETATM    3  C   UNL     1      62.577  10.434   4.048  1.00  0.00     0.053 A 
HETATM    4  O   UNL     1      63.385   8.418   4.628  1.00  0.00    -0.234 OA
HETATM    5  C   UNL     1      62.802   9.135   3.619  1.00  0.00     0.119 A 
HETATM    6  C   UNL     1      63.066  10.413   5.359  1.00  0.00     0.173 A 
HETATM    7  C   UNL     1      62.474   8.655   2.346  1.00  0.00    -0.025 A 
HETATM    8  C   UNL     1      61.982  11.355   3.174  1.00  0.00     0.019 A 
HETATM    9  C   UNL     1      61.638  10.917   1.890  1.00  0.00     0.002 A 
HETATM   10  C   UNL     1      61.879   9.598   1.487  1.00  0.00     0.010 A 
HETATM   11  C   UNL     1      62.731   7.248   1.910  1.00  0.00     0.051 C 
ENDROOT
BRANCH   6  12
HETATM   12  O   UNL     1      63.108  11.397   6.261  1.00  0.00    -0.344 OA
HETATM   13  H   UNL     1      62.594  11.338   7.043  1.00  0.00     0.219 HD
ENDBRANCH   6  12
TORSDOF 1
ENDMDL
MODEL 6
REMARK VINA RESULT:      -4.9      2.420      3.079
REMARK  1 active torsions:
REMARK  status: ('A' for Active; 'I' for Inactive)
REMARK    1  A    between atoms: C_6  and  O_8 
ROOT
HETATM    1  N   UNL     1      64.078   7.069   4.265  1.00  0.00    -0.238 N 
ATOM      2  HN  UNL     1      64.528   6.158   4.356  1.00  0.00     0.197 HD
HETATM    3  C   UNL     1      63.309   9.176   4.743  1.00  0.00     0.053 A 
HETATM    4  O   UNL     1      63.404   7.587   3.156  1.00  0.00    -0.234 OA
HETATM    5  C   UNL     1      62.948   8.844   3.447  1.00  0.00     0.119 A 
HETATM    6  C   UNL     1      63.997   8.036   5.172  1.00  0.00     0.173 A 
HETATM    7  C   UNL     1      62.227   9.680   2.587  1.00  0.00    -0.025 A 
HETATM    8  C   UNL     1      62.945  10.428   5.261  1.00  0.00     0.019 A 
HETATM    9  C   UNL     1      62.223  11.297   4.435  1.00  0.00     0.002 A 
HETATM   10  C   UNL     1      61.874  10.930   3.129  1.00  0.00     0.010 A 
HETATM   11  C   UNL     1      61.853   9.295   1.192  1.00  0.00     0.051 C 
ENDROOT
BRANCH   6  12
HETATM   12  O   UNL     1      64.574   7.792   6.352  1.00  0.00    -0.344 OA
HETATM   13  H   UNL     1      64.073   7.419   7.050  1.00  0.00     0.219 HD
ENDBRANCH   6  12
TORSDOF 1
ENDMDL
MODEL 7
REMARK VINA RESULT:      -4.7      2.424      3.299
REMARK  1 active torsions:
REMARK  status: ('A' for Active; 'I' for Inactive)
REMARK    1  A    between atoms: C_6  and  O_8 
ROOT
HETATM    1  N   UNL     1      65.625   8.472   6.084  1.00  0.00    -0.238 N 
ATOM      2  HN  UNL     1      66.340   8.482   6.812  1.00  0.00     0.197 HD
HETATM    3  C   UNL     1      64.327   7.805   4.315  1.00  0.00     0.053 A 
HETATM    4  O   UNL     1      64.674   9.455   5.802  1.00  0.00    -0.234 OA
HETATM    5  C   UNL     1      63.902   9.052   4.746  1.00  0.00     0.119 A 
HETATM    6  C   UNL     1      65.384   7.523   5.187  1.00  0.00     0.173 A 
HETATM    7  C   UNL     1      62.845   9.769   4.174  1.00  0.00    -0.025 A 
HETATM    8  C   UNL     1      63.677   7.191   3.235  1.00  0.00     0.019 A 
HETATM    9  C   UNL     1      62.613   7.873   2.632  1.00  0.00     0.002 A 
HETATM   10  C   UNL     1      62.208   9.132   3.093  1.00  0.00     0.010 A 
HETATM   11  C   UNL     1      62.407  11.113   4.663  1.00  0.00     0.051 C 
ENDROOT
BRANCH   6  12
HETATM   12  O   UNL     1      66.172   6.445   5.237  1.00  0.00    -0.344 OA
HETATM   13  H   UNL     1      66.944   6.404   4.707  1.00  0.00     0.219 HD
ENDBRANCH   6  12
TORSDOF 1
ENDMDL
MODEL 8
REMARK VINA RESULT:      -4.5      3.419      4.927
REMARK  1 active torsions:
REMARK  status: ('A' for Active; 'I' for Inactive)
REMARK    1  A    between atoms: C_6  and  O_8 
ROOT
HETATM    1  N   UNL     1      63.400   7.941   6.224  1.00  0.00    -0.238 N 
ATOM      2  HN  UNL     1      62.417   8.204   6.293  1.00  0.00     0.197 HD
HETATM    3  C   UNL     1      65.540   7.696   5.434  1.00  0.00     0.053 A 
HETATM    4  O   UNL     1      64.166   7.231   7.152  1.00  0.00    -0.234 OA
HETATM    5  C   UNL     1      65.441   7.088   6.676  1.00  0.00     0.119 A 
HETATM    6  C   UNL     1      64.247   8.193   5.232  1.00  0.00     0.173 A 
HETATM    7  C   UNL     1      66.496   6.435   7.323  1.00  0.00    -0.025 A 
HETATM    8  C   UNL     1      66.764   7.674   4.751  1.00  0.00     0.019 A 
HETATM    9  C   UNL     1      67.847   7.031   5.362  1.00  0.00     0.002 A 
HETATM   10  C   UNL     1      67.714   6.427   6.619  1.00  0.00     0.010 A 
HETATM   11  C   UNL     1      66.360   5.790   8.666  1.00  0.00     0.051 C 
ENDROOT
BRANCH   6  12
HETATM   12  O   UNL     1      63.757   8.874   4.193  1.00  0.00    -0.344 OA
HETATM   13  H   UNL     1      63.820   8.518   3.328  1.00  0.00     0.219 HD
ENDBRANCH   6  12
TORSDOF 1
ENDMDL
MODEL 9
REMARK VINA RESULT:      -4.4      2.803      3.633
REMARK  1 active torsions:
REMARK  status: ('A' for Active; 'I' for Inactive)
REMARK    1  A    between atoms: C_6  and  O_8 
ROOT
HETATM    1  N   UNL     1      62.772   7.500   1.760  1.00  0.00    -0.238 N 
ATOM      2  HN  UNL     1      62.811   6.771   1.048  1.00  0.00     0.197 HD
HETATM    3  C   UNL     1      62.948   8.597   3.767  1.00  0.00     0.053 A 
HETATM    4  O   UNL     1      62.341   8.821   1.614  1.00  0.00    -0.234 OA
HETATM    5  C   UNL     1      62.448   9.470   2.814  1.00  0.00     0.119 A 
HETATM    6  C   UNL     1      63.119   7.414   3.039  1.00  0.00     0.173 A 
HETATM    7  C   UNL     1      62.112  10.806   3.064  1.00  0.00    -0.025 A 
HETATM    8  C   UNL     1      63.143   9.047   5.081  1.00  0.00     0.019 A 
HETATM    9  C   UNL     1      62.819  10.377   5.375  1.00  0.00     0.002 A 
HETATM   10  C   UNL     1      62.317  11.234   4.388  1.00  0.00     0.010 A 
HETATM   11  C   UNL     1      61.577  11.726   2.014  1.00  0.00     0.051 C 
ENDROOT
BRANCH   6  12
HETATM   12  O   UNL     1      63.575   6.228   3.451  1.00  0.00    -0.344 OA
HETATM   13  H   UNL     1      64.493   6.039   3.411  1.00  0.00     0.219 HD
ENDBRANCH   6  12
TORSDOF 1
ENDMDL
