MODEL 1
REMARK VINA RESULT:      -4.7      0.000      0.000
REMARK  3 active torsions:
REMARK  status: ('A' for Active; 'I' for Inactive)
REMARK    1  A    between atoms: C_1  and  O_2 
REMARK    2  A    between atoms: O_2  and  C_6 
REMARK    3  A    between atoms: C_7  and  N_8 
ROOT
HETATM    1  C   UNL     1      62.180   8.872   3.200  1.00  0.00     0.078 A 
HETATM    2  C   UNL     1      63.154  10.551   5.248  1.00  0.00     0.025 A 
HETATM    3  C   UNL     1      61.689  10.188   3.342  1.00  0.00     0.039 A 
HETATM    4  C   UNL     1      63.140   8.409   4.111  1.00  0.00     0.039 A 
HETATM    5  C   UNL     1      62.178  11.018   4.357  1.00  0.00     0.031 A 
HETATM    6  C   UNL     1      63.626   9.239   5.124  1.00  0.00     0.031 A 
ENDROOT
BRANCH   1   7
HETATM    7  O   UNL     1      61.773   8.009   2.229  1.00  0.00    -0.255 OA
BRANCH   7   8
HETATM    8  C   UNL     1      61.555   8.215   0.875  1.00  0.00     0.530 C 
HETATM    9  F   UNL     1      60.312   8.748   0.596  1.00  0.00    -0.144 F 
HETATM   10  F   UNL     1      61.701   7.019   0.200  1.00  0.00    -0.144 F 
HETATM   11  F   UNL     1      62.505   9.105   0.412  1.00  0.00    -0.144 F 
ENDBRANCH   7   8
ENDBRANCH   1   7
BRANCH   2  12
HETATM   12  N   UNL     1      63.659  11.396   6.266  1.00  0.00    -0.399 N 
HETATM   13  H   UNL     1      63.639  12.374   6.148  1.00  0.00     0.156 HD
HETATM   14  H   UNL     1      64.029  11.007   7.090  1.00  0.00     0.156 HD
ENDBRANCH   2  12
TORSDOF 3
ENDMDL
MODEL 2
REMARK VINA RESULT:      -4.7      3.945      4.840
REMARK  3 active torsions:
REMARK  status: ('A' for Active; 'I' for Inactive)
REMARK    1  A    between atoms: C_1  and  O_2 
REMARK    2  A    between atoms: O_2  and  C_6 
REMARK    3  A    between atoms: C_7  and  N_8 
ROOT
HETATM    1  C   UNL     1      63.554   8.943   5.008  1.00  0.00     0.078 A 
HETATM    2  C   UNL     1      62.040  10.467   3.180  1.00  0.00     0.025 A 
HETATM    3  C   UNL     1      63.214   8.415   3.743  1.00  0.00     0.039 A 
HETATM    4  C   UNL     1      63.103  10.226   5.346  1.00  0.00     0.039 A 
HETATM    5  C   UNL     1      62.466   9.176   2.839  1.00  0.00     0.031 A 
HETATM    6  C   UNL     1      62.356  10.985   4.441  1.00  0.00     0.031 A 
ENDROOT
BRANCH   1   7
HETATM    7  O   UNL     1      64.294   8.277   5.937  1.00  0.00    -0.255 OA
BRANCH   7   8
HETATM    8  C   UNL     1      65.595   7.799   5.877  1.00  0.00     0.530 C 
HETATM    9  F   UNL     1      66.342   8.103   6.998  1.00  0.00    -0.144 F 
HETATM   10  F   UNL     1      66.220   8.314   4.758  1.00  0.00    -0.144 F 
HETATM   11  F   UNL     1      65.548   6.423   5.764  1.00  0.00    -0.144 F 
ENDBRANCH   7   8
ENDBRANCH   1   7
BRANCH   2  12
HETATM   12  N   UNL     1      61.295  11.243   2.258  1.00  0.00    -0.399 N 
HETATM   13  H   UNL     1      60.320  11.327   2.361  1.00  0.00     0.156 HD
HETATM   14  H   UNL     1      61.753  11.697   1.515  1.00  0.00     0.156 HD
ENDBRANCH   2  12
TORSDOF 3
ENDMDL
MODEL 3
REMARK VINA RESULT:      -4.7      3.850      4.582
REMARK  3 active torsions:
REMARK  status: ('A' for Active; 'I' for Inactive)
REMARK    1  A    between atoms: C_1  and  O_2 
REMARK    2  A    between atoms: O_2  and  C_6 
REMARK    3  A    between atoms: C_7  and  N_8 
ROOT
HETATM    1  C   UNL     1      63.355   9.050   5.064  1.00  0.00     0.078 A 
HETATM    2  C   UNL     1      62.010  10.640   3.162  1.00  0.00     0.025 A 
HETATM    3  C   UNL     1      62.995  10.380   5.369  1.00  0.00     0.039 A 
HETATM    4  C   UNL     1      63.055   8.544   3.791  1.00  0.00     0.039 A 
HETATM    5  C   UNL     1      62.325  11.164   4.423  1.00  0.00     0.031 A 
HETATM    6  C   UNL     1      62.386   9.329   2.849  1.00  0.00     0.031 A 
ENDROOT
BRANCH   1   7
HETATM    7  O   UNL     1      63.990   8.215   5.933  1.00  0.00    -0.255 OA
BRANCH   7   8
HETATM    8  C   UNL     1      65.217   7.577   5.833  1.00  0.00     0.530 C 
HETATM    9  F   UNL     1      65.140   6.333   5.239  1.00  0.00    -0.144 F 
HETATM   10  F   UNL     1      65.770   7.448   7.092  1.00  0.00    -0.144 F 
HETATM   11  F   UNL     1      66.052   8.360   5.060  1.00  0.00    -0.144 F 
ENDBRANCH   7   8
ENDBRANCH   1   7
BRANCH   2  12
HETATM   12  N   UNL     1      61.318  11.429   2.211  1.00  0.00    -0.399 N 
HETATM   13  H   UNL     1      61.814  12.065   1.645  1.00  0.00     0.156 HD
HETATM   14  H   UNL     1      60.343  11.343   2.115  1.00  0.00     0.156 HD
ENDBRANCH   2  12
TORSDOF 3
ENDMDL
MODEL 4
REMARK VINA RESULT:      -4.7      0.142      1.794
REMARK  3 active torsions:
REMARK  status: ('A' for Active; 'I' for Inactive)
REMARK    1  A    between atoms: C_1  and  O_2 
REMARK    2  A    between atoms: O_2  and  C_6 
REMARK    3  A    between atoms: C_7  and  N_8 
ROOT
HETATM    1  C   UNL     1      62.076   8.819   3.198  1.00  0.00     0.078 A 
HETATM    2  C   UNL     1      63.102  10.533   5.189  1.00  0.00     0.025 A 
HETATM    3  C   UNL     1      63.018   8.344   4.136  1.00  0.00     0.039 A 
HETATM    4  C   UNL     1      61.682  10.163   3.259  1.00  0.00     0.039 A 
HETATM    5  C   UNL     1      63.521   9.198   5.125  1.00  0.00     0.031 A 
HETATM    6  C   UNL     1      62.186  11.013   4.247  1.00  0.00     0.031 A 
ENDROOT
BRANCH   1   7
HETATM    7  O   UNL     1      61.523   8.051   2.218  1.00  0.00    -0.255 OA
BRANCH   7   8
HETATM    8  C   UNL     1      61.409   8.276   0.855  1.00  0.00     0.530 C 
HETATM    9  F   UNL     1      62.360   9.149   0.364  1.00  0.00    -0.144 F 
HETATM   10  F   UNL     1      60.149   8.769   0.577  1.00  0.00    -0.144 F 
HETATM   11  F   UNL     1      61.569   7.070   0.200  1.00  0.00    -0.144 F 
ENDBRANCH   7   8
ENDBRANCH   1   7
BRANCH   2  12
HETATM   12  N   UNL     1      63.601  11.392   6.200  1.00  0.00    -0.399 N 
HETATM   13  H   UNL     1      63.013  11.678   6.936  1.00  0.00     0.156 HD
HETATM   14  H   UNL     1      64.534  11.703   6.164  1.00  0.00     0.156 HD
ENDBRANCH   2  12
TORSDOF 3
ENDMDL
MODEL 5
REMARK VINA RESULT:      -4.4      3.835      4.444
REMARK  3 active torsions:
REMARK  status: ('A' for Active; 'I' for Inactive)
REMARK    1  A    between atoms: C_1  and  O_2 
REMARK    2  A    between atoms: O_2  and  C_6 
REMARK    3  A    between atoms: C_7  and  N_8 
ROOT
HETATM    1  C   UNL     1      63.289   8.875   4.584  1.00  0.00     0.078 A 
HETATM    2  C   UNL     1      61.964  10.780   2.982  1.00  0.00     0.025 A 
HETATM    3  C   UNL     1      62.937   8.570   3.251  1.00  0.00     0.039 A 
HETATM    4  C   UNL     1      62.944  10.131   5.102  1.00  0.00     0.039 A 
HETATM    5  C   UNL     1      62.283   9.520   2.459  1.00  0.00     0.031 A 
HETATM    6  C   UNL     1      62.292  11.078   4.310  1.00  0.00     0.031 A 
ENDROOT
BRANCH   1   7
HETATM    7  O   UNL     1      63.944   8.015   5.414  1.00  0.00    -0.255 OA
BRANCH   7   8
HETATM    8  C   UNL     1      63.458   6.987   6.208  1.00  0.00     0.530 C 
HETATM    9  F   UNL     1      62.224   7.262   6.765  1.00  0.00    -0.144 F 
HETATM   10  F   UNL     1      64.364   6.720   7.216  1.00  0.00    -0.144 F 
HETATM   11  F   UNL     1      63.323   5.858   5.423  1.00  0.00    -0.144 F 
ENDBRANCH   7   8
ENDBRANCH   1   7
BRANCH   2  12
HETATM   12  N   UNL     1      61.315  11.747   2.175  1.00  0.00    -0.399 N 
HETATM   13  H   UNL     1      60.498  12.191   2.500  1.00  0.00     0.156 HD
HETATM   14  H   UNL     1      61.681  11.975   1.290  1.00  0.00     0.156 HD
ENDBRANCH   2  12
TORSDOF 3
ENDMDL
MODEL 6
REMARK VINA RESULT:      -4.3      1.510      2.044
REMARK  3 active torsions:
REMARK  status: ('A' for Active; 'I' for Inactive)
REMARK    1  A    between atoms: C_1  and  O_2 
REMARK    2  A    between atoms: O_2  and  C_6 
REMARK    3  A    between atoms: C_7  and  N_8 
ROOT
HETATM    1  C   UNL     1      62.774   8.354   3.283  1.00  0.00     0.078 A 
HETATM    2  C   UNL     1      64.801   8.373   5.245  1.00  0.00     0.025 A 
HETATM    3  C   UNL     1      62.827   9.381   4.250  1.00  0.00     0.039 A 
HETATM    4  C   UNL     1      63.732   7.331   3.334  1.00  0.00     0.039 A 
HETATM    5  C   UNL     1      63.836   9.388   5.219  1.00  0.00     0.031 A 
HETATM    6  C   UNL     1      64.739   7.340   4.302  1.00  0.00     0.031 A 
ENDROOT
BRANCH   1   7
HETATM    7  O   UNL     1      61.838   8.284   2.296  1.00  0.00    -0.255 OA
BRANCH   7   8
HETATM    8  C   UNL     1      61.724   8.997   1.113  1.00  0.00     0.530 C 
HETATM    9  F   UNL     1      61.948  10.351   1.267  1.00  0.00    -0.144 F 
HETATM   10  F   UNL     1      60.465   8.800   0.580  1.00  0.00    -0.144 F 
HETATM   11  F   UNL     1      62.663   8.515   0.222  1.00  0.00    -0.144 F 
ENDBRANCH   7   8
ENDBRANCH   1   7
BRANCH   2  12
HETATM   12  N   UNL     1      65.832   8.389   6.217  1.00  0.00    -0.399 N 
HETATM   13  H   UNL     1      66.249   9.242   6.477  1.00  0.00     0.156 HD
HETATM   14  H   UNL     1      66.130   7.548   6.632  1.00  0.00     0.156 HD
ENDBRANCH   2  12
TORSDOF 3
ENDMDL
MODEL 7
REMARK VINA RESULT:      -4.2      1.067      1.236
REMARK  3 active torsions:
REMARK  status: ('A' for Active; 'I' for Inactive)
REMARK    1  A    between atoms: C_1  and  O_2 
REMARK    2  A    between atoms: O_2  and  C_6 
REMARK    3  A    between atoms: C_7  and  N_8 
ROOT
HETATM    1  C   UNL     1      62.271   9.156   2.678  1.00  0.00     0.078 A 
HETATM    2  C   UNL     1      62.914  10.570   5.033  1.00  0.00     0.025 A 
HETATM    3  C   UNL     1      61.767  10.457   2.893  1.00  0.00     0.039 A 
HETATM    4  C   UNL     1      63.074   8.572   3.668  1.00  0.00     0.039 A 
HETATM    5  C   UNL     1      62.092  11.156   4.061  1.00  0.00     0.031 A 
HETATM    6  C   UNL     1      63.397   9.272   4.833  1.00  0.00     0.031 A 
ENDROOT
BRANCH   1   7
HETATM    7  O   UNL     1      62.019   8.417   1.562  1.00  0.00    -0.255 OA
BRANCH   7   8
HETATM    8  C   UNL     1      61.250   7.276   1.394  1.00  0.00     0.530 C 
HETATM    9  F   UNL     1      60.352   7.065   2.422  1.00  0.00    -0.144 F 
HETATM   10  F   UNL     1      62.079   6.177   1.280  1.00  0.00    -0.144 F 
HETATM   11  F   UNL     1      60.526   7.408   0.225  1.00  0.00    -0.144 F 
ENDBRANCH   7   8
ENDBRANCH   1   7
BRANCH   2  12
HETATM   12  N   UNL     1      63.255  11.284   6.208  1.00  0.00    -0.399 N 
HETATM   13  H   UNL     1      63.159  10.855   7.089  1.00  0.00     0.156 HD
HETATM   14  H   UNL     1      63.587  12.208   6.143  1.00  0.00     0.156 HD
ENDBRANCH   2  12
TORSDOF 3
ENDMDL
MODEL 8
REMARK VINA RESULT:      -4.1      4.613      5.593
REMARK  3 active torsions:
REMARK  status: ('A' for Active; 'I' for Inactive)
REMARK    1  A    between atoms: C_1  and  O_2 
REMARK    2  A    between atoms: O_2  and  C_6 
REMARK    3  A    between atoms: C_7  and  N_8 
ROOT
HETATM    1  C   UNL     1      65.641   8.000   5.839  1.00  0.00     0.078 A 
HETATM    2  C   UNL     1      67.179   5.662   6.186  1.00  0.00     0.025 A 
HETATM    3  C   UNL     1      65.198   6.972   6.699  1.00  0.00     0.039 A 
HETATM    4  C   UNL     1      66.844   7.824   5.142  1.00  0.00     0.039 A 
HETATM    5  C   UNL     1      65.966   5.816   6.871  1.00  0.00     0.031 A 
HETATM    6  C   UNL     1      67.610   6.669   5.315  1.00  0.00     0.031 A 
ENDROOT
BRANCH   1   7
HETATM    7  O   UNL     1      64.964   9.164   5.632  1.00  0.00    -0.255 OA
BRANCH   7   8
HETATM    8  C   UNL     1      63.694   9.387   5.120  1.00  0.00     0.530 C 
HETATM    9  F   UNL     1      63.334  10.720   5.113  1.00  0.00    -0.144 F 
HETATM   10  F   UNL     1      62.772   8.668   5.854  1.00  0.00    -0.144 F 
HETATM   11  F   UNL     1      63.668   8.939   3.813  1.00  0.00    -0.144 F 
ENDBRANCH   7   8
ENDBRANCH   1   7
BRANCH   2  12
HETATM   12  N   UNL     1      67.963   4.497   6.372  1.00  0.00    -0.399 N 
HETATM   13  H   UNL     1      68.571   4.431   7.144  1.00  0.00     0.156 HD
HETATM   14  H   UNL     1      67.901   3.754   5.729  1.00  0.00     0.156 HD
ENDBRANCH   2  12
TORSDOF 3
ENDMDL
MODEL 9
REMARK VINA RESULT:      -3.9      3.844      4.934
REMARK  3 active torsions:
REMARK  status: ('A' for Active; 'I' for Inactive)
REMARK    1  A    between atoms: C_1  and  O_2 
REMARK    2  A    between atoms: O_2  and  C_6 
REMARK    3  A    between atoms: C_7  and  N_8 
ROOT
HETATM    1  C   UNL     1      61.601   9.296   3.275  1.00  0.00     0.078 A 
HETATM    2  C   UNL     1      60.359   7.801   1.232  1.00  0.00     0.025 A 
HETATM    3  C   UNL     1      60.631   8.320   3.590  1.00  0.00     0.039 A 
HETATM    4  C   UNL     1      61.914   9.526   1.928  1.00  0.00     0.039 A 
HETATM    5  C   UNL     1      60.021   7.578   2.573  1.00  0.00     0.031 A 
HETATM    6  C   UNL     1      61.303   8.784   0.914  1.00  0.00     0.031 A 
ENDROOT
BRANCH   1   7
HETATM    7  O   UNL     1      62.256  10.046   4.205  1.00  0.00    -0.255 OA
BRANCH   7   8
HETATM    8  C   UNL     1      63.266   9.700   5.090  1.00  0.00     0.530 C 
HETATM    9  F   UNL     1      64.335   9.071   4.483  1.00  0.00    -0.144 F 
HETATM   10  F   UNL     1      62.750   8.878   6.073  1.00  0.00    -0.144 F 
HETATM   11  F   UNL     1      63.740  10.855   5.682  1.00  0.00    -0.144 F 
ENDBRANCH   7   8
ENDBRANCH   1   7
BRANCH   2  12
HETATM   12  N   UNL     1      59.750   7.039   0.203  1.00  0.00    -0.399 N 
HETATM   13  H   UNL     1      58.857   7.287  -0.129  1.00  0.00     0.156 HD
HETATM   14  H   UNL     1      60.221   6.264  -0.178  1.00  0.00     0.156 HD
ENDBRANCH   2  12
TORSDOF 3
ENDMDL
