MODEL 1
REMARK VINA RESULT:      -6.1      0.000      0.000
REMARK  1 active torsions:
REMARK  status: ('A' for Active; 'I' for Inactive)
REMARK    1  A    between atoms: C_1  and  C_7 
ROOT
HETATM    1  C   UNL     1      64.178   7.296   3.693  1.00  0.00     0.158 C 
HETATM    2  O   UNL     1      65.054   9.121   5.803  1.00  0.00    -0.310 OA
HETATM    3  C   UNL     1      65.449   7.100   4.491  1.00  0.00    -0.005 A 
HETATM    4  C   UNL     1      63.509   8.621   3.979  1.00  0.00    -0.005 A 
HETATM    5  C   UNL     1      65.793   8.005   5.495  1.00  0.00     0.083 A 
HETATM    6  C   UNL     1      63.971   9.431   5.018  1.00  0.00     0.083 A 
HETATM    7  C   UNL     1      66.285   5.995   4.253  1.00  0.00     0.011 A 
HETATM    8  C   UNL     1      62.402   9.048   3.225  1.00  0.00     0.011 A 
HETATM    9  C   UNL     1      63.329  10.635   5.316  1.00  0.00     0.038 A 
HETATM   10  C   UNL     1      66.942   7.806   6.264  1.00  0.00     0.038 A 
HETATM   11  C   UNL     1      61.761  10.251   3.526  1.00  0.00     0.001 A 
HETATM   12  C   UNL     1      67.430   5.795   5.025  1.00  0.00     0.001 A 
HETATM   13  C   UNL     1      62.221  11.043   4.575  1.00  0.00     0.003 A 
HETATM   14  C   UNL     1      67.757   6.699   6.033  1.00  0.00     0.003 A 
ENDROOT
BRANCH   1  15
HETATM   15  C   UNL     1      63.208   6.146   3.949  1.00  0.00     0.186 C 
HETATM   16  O   UNL     1      62.771   5.339   3.146  1.00  0.00    -0.647 OA
HETATM   17  O   UNL     1      62.827   6.063   5.246  1.00  0.00    -0.647 OA
ENDBRANCH   1  15
TORSDOF 1
ENDMDL
MODEL 2
REMARK VINA RESULT:      -5.8      2.162      5.186
REMARK  1 active torsions:
REMARK  status: ('A' for Active; 'I' for Inactive)
REMARK    1  A    between atoms: C_1  and  C_7 
ROOT
HETATM    1  C   UNL     1      63.458   7.918   4.594  1.00  0.00     0.158 C 
HETATM    2  O   UNL     1      62.756   7.911   1.756  1.00  0.00    -0.310 OA
HETATM    3  C   UNL     1      62.864   9.111   3.880  1.00  0.00    -0.005 A 
HETATM    4  C   UNL     1      63.814   6.791   3.651  1.00  0.00    -0.005 A 
HETATM    5  C   UNL     1      62.537   9.027   2.526  1.00  0.00     0.083 A 
HETATM    6  C   UNL     1      63.427   6.849   2.311  1.00  0.00     0.083 A 
HETATM    7  C   UNL     1      62.605  10.308   4.570  1.00  0.00     0.011 A 
HETATM    8  C   UNL     1      64.516   5.662   4.107  1.00  0.00     0.011 A 
HETATM    9  C   UNL     1      63.712   5.791   1.445  1.00  0.00     0.038 A 
HETATM   10  C   UNL     1      61.948  10.111   1.871  1.00  0.00     0.038 A 
HETATM   11  C   UNL     1      64.800   4.605   3.240  1.00  0.00     0.001 A 
HETATM   12  C   UNL     1      62.011  11.388   3.916  1.00  0.00     0.001 A 
HETATM   13  C   UNL     1      64.394   4.668   1.909  1.00  0.00     0.003 A 
HETATM   14  C   UNL     1      61.680  11.289   2.566  1.00  0.00     0.003 A 
ENDROOT
BRANCH   1  15
HETATM   15  C   UNL     1      62.508   7.420   5.679  1.00  0.00     0.186 C 
HETATM   16  O   UNL     1      61.439   6.849   5.537  1.00  0.00    -0.647 OA
HETATM   17  O   UNL     1      62.965   7.669   6.929  1.00  0.00    -0.647 OA
ENDBRANCH   1  15
TORSDOF 1
ENDMDL
MODEL 3
REMARK VINA RESULT:      -5.7      1.409      5.149
REMARK  1 active torsions:
REMARK  status: ('A' for Active; 'I' for Inactive)
REMARK    1  A    between atoms: C_1  and  C_7 
ROOT
HETATM    1  C   UNL     1      65.294   7.974   4.981  1.00  0.00     0.158 C 
HETATM    2  O   UNL     1      63.479   7.012   2.900  1.00  0.00    -0.310 OA
HETATM    3  C   UNL     1      64.054   8.722   4.545  1.00  0.00    -0.005 A 
HETATM    4  C   UNL     1      65.589   6.776   4.108  1.00  0.00    -0.005 A 
HETATM    5  C   UNL     1      63.225   8.191   3.556  1.00  0.00     0.083 A 
HETATM    6  C   UNL     1      64.664   6.363   3.148  1.00  0.00     0.083 A 
HETATM    7  C   UNL     1      63.702   9.945   5.144  1.00  0.00     0.011 A 
HETATM    8  C   UNL     1      66.780   6.046   4.262  1.00  0.00     0.011 A 
HETATM    9  C   UNL     1      64.910   5.229   2.369  1.00  0.00     0.038 A 
HETATM   10  C   UNL     1      62.056   8.856   3.179  1.00  0.00     0.038 A 
HETATM   11  C   UNL     1      67.024   4.913   3.484  1.00  0.00     0.001 A 
HETATM   12  C   UNL     1      62.531  10.605   4.770  1.00  0.00     0.001 A 
HETATM   13  C   UNL     1      66.086   4.501   2.541  1.00  0.00     0.003 A 
HETATM   14  C   UNL     1      61.706  10.059   3.790  1.00  0.00     0.003 A 
ENDROOT
BRANCH   1  15
HETATM   15  C   UNL     1      65.172   7.549   6.441  1.00  0.00     0.186 C 
HETATM   16  O   UNL     1      64.226   7.007   6.989  1.00  0.00    -0.647 OA
HETATM   17  O   UNL     1      66.282   7.832   7.162  1.00  0.00    -0.647 OA
ENDBRANCH   1  15
TORSDOF 1
ENDMDL
MODEL 4
REMARK VINA RESULT:      -5.5      1.472      5.126
REMARK  1 active torsions:
REMARK  status: ('A' for Active; 'I' for Inactive)
REMARK    1  A    between atoms: C_1  and  C_7 
ROOT
HETATM    1  C   UNL     1      64.088   8.750   4.542  1.00  0.00     0.158 C 
HETATM    2  O   UNL     1      64.407   6.320   2.948  1.00  0.00    -0.310 OA
HETATM    3  C   UNL     1      63.234   8.425   3.336  1.00  0.00    -0.005 A 
HETATM    4  C   UNL     1      65.232   7.778   4.724  1.00  0.00    -0.005 A 
HETATM    5  C   UNL     1      63.434   7.236   2.634  1.00  0.00     0.083 A 
HETATM    6  C   UNL     1      65.307   6.627   3.938  1.00  0.00     0.083 A 
HETATM    7  C   UNL     1      62.212   9.298   2.922  1.00  0.00     0.011 A 
HETATM    8  C   UNL     1      66.221   8.002   5.698  1.00  0.00     0.011 A 
HETATM    9  C   UNL     1      66.336   5.702   4.133  1.00  0.00     0.038 A 
HETATM   10  C   UNL     1      62.620   6.911   1.547  1.00  0.00     0.038 A 
HETATM   11  C   UNL     1      67.248   7.077   5.892  1.00  0.00     0.001 A 
HETATM   12  C   UNL     1      61.397   8.969   1.838  1.00  0.00     0.001 A 
HETATM   13  C   UNL     1      67.303   5.923   5.112  1.00  0.00     0.003 A 
HETATM   14  C   UNL     1      61.599   7.774   1.152  1.00  0.00     0.003 A 
ENDROOT
BRANCH   1  15
HETATM   15  C   UNL     1      63.230   8.801   5.802  1.00  0.00     0.186 C 
HETATM   16  O   UNL     1      62.832   7.867   6.478  1.00  0.00    -0.647 OA
HETATM   17  O   UNL     1      62.909  10.065   6.165  1.00  0.00    -0.647 OA
ENDBRANCH   1  15
TORSDOF 1
ENDMDL
MODEL 5
REMARK VINA RESULT:      -5.4      2.846      5.787
REMARK  1 active torsions:
REMARK  status: ('A' for Active; 'I' for Inactive)
REMARK    1  A    between atoms: C_1  and  C_7 
ROOT
HETATM    1  C   UNL     1      62.346   8.991   2.706  1.00  0.00     0.158 C 
HETATM    2  O   UNL     1      61.099   6.682   3.995  1.00  0.00    -0.310 OA
HETATM    3  C   UNL     1      61.155   8.257   2.131  1.00  0.00    -0.005 A 
HETATM    4  C   UNL     1      62.929   8.298   3.917  1.00  0.00    -0.005 A 
HETATM    5  C   UNL     1      60.603   7.173   2.813  1.00  0.00     0.083 A 
HETATM    6  C   UNL     1      62.265   7.212   4.491  1.00  0.00     0.083 A 
HETATM    7  C   UNL     1      60.571   8.670   0.920  1.00  0.00     0.011 A 
HETATM    8  C   UNL     1      64.128   8.745   4.497  1.00  0.00     0.011 A 
HETATM    9  C   UNL     1      62.774   6.596   5.637  1.00  0.00     0.038 A 
HETATM   10  C   UNL     1      59.477   6.518   2.308  1.00  0.00     0.038 A 
HETATM   11  C   UNL     1      64.635   8.129   5.643  1.00  0.00     0.001 A 
HETATM   12  C   UNL     1      59.443   8.018   0.420  1.00  0.00     0.001 A 
HETATM   13  C   UNL     1      63.954   7.057   6.216  1.00  0.00     0.003 A 
HETATM   14  C   UNL     1      58.894   6.944   1.115  1.00  0.00     0.003 A 
ENDROOT
BRANCH   1  15
HETATM   15  C   UNL     1      61.969  10.429   3.049  1.00  0.00     0.186 C 
HETATM   16  O   UNL     1      61.506  10.855   4.095  1.00  0.00    -0.647 OA
HETATM   17  O   UNL     1      62.204  11.289   2.030  1.00  0.00    -0.647 OA
ENDBRANCH   1  15
TORSDOF 1
ENDMDL
MODEL 6
REMARK VINA RESULT:      -5.4      2.190      3.768
REMARK  1 active torsions:
REMARK  status: ('A' for Active; 'I' for Inactive)
REMARK    1  A    between atoms: C_1  and  C_7 
ROOT
HETATM    1  C   UNL     1      62.929   7.821   4.555  1.00  0.00     0.158 C 
HETATM    2  O   UNL     1      62.761   7.783   1.636  1.00  0.00    -0.310 OA
HETATM    3  C   UNL     1      63.068   6.562   3.728  1.00  0.00    -0.005 A 
HETATM    4  C   UNL     1      62.517   9.018   3.728  1.00  0.00    -0.005 A 
HETATM    5  C   UNL     1      62.994   6.624   2.336  1.00  0.00     0.083 A 
HETATM    6  C   UNL     1      62.480   8.930   2.335  1.00  0.00     0.083 A 
HETATM    7  C   UNL     1      63.301   5.319   4.343  1.00  0.00     0.011 A 
HETATM    8  C   UNL     1      62.191  10.240   4.341  1.00  0.00     0.011 A 
HETATM    9  C   UNL     1      62.145  10.046   1.564  1.00  0.00     0.038 A 
HETATM   10  C   UNL     1      63.164   5.472   1.565  1.00  0.00     0.038 A 
HETATM   11  C   UNL     1      61.857  11.354   3.568  1.00  0.00     0.001 A 
HETATM   12  C   UNL     1      63.476   4.169   3.571  1.00  0.00     0.001 A 
HETATM   13  C   UNL     1      61.839  11.258   2.179  1.00  0.00     0.003 A 
HETATM   14  C   UNL     1      63.411   4.246   2.182  1.00  0.00     0.003 A 
ENDROOT
BRANCH   1  15
HETATM   15  C   UNL     1      64.227   8.113   5.300  1.00  0.00     0.186 C 
HETATM   16  O   UNL     1      64.463   7.959   6.487  1.00  0.00    -0.647 OA
HETATM   17  O   UNL     1      65.198   8.596   4.490  1.00  0.00    -0.647 OA
ENDBRANCH   1  15
TORSDOF 1
ENDMDL
MODEL 7
REMARK VINA RESULT:      -5.2      2.342      5.264
REMARK  1 active torsions:
REMARK  status: ('A' for Active; 'I' for Inactive)
REMARK    1  A    between atoms: C_1  and  C_7 
ROOT
HETATM    1  C   UNL     1      65.892   5.703   5.165  1.00  0.00     0.158 C 
HETATM    2  O   UNL     1      64.653   7.224   7.333  1.00  0.00    -0.310 OA
HETATM    3  C   UNL     1      64.562   6.410   5.033  1.00  0.00    -0.005 A 
HETATM    4  C   UNL     1      66.421   5.716   6.581  1.00  0.00    -0.005 A 
HETATM    5  C   UNL     1      64.041   7.132   6.107  1.00  0.00     0.083 A 
HETATM    6  C   UNL     1      65.787   6.484   7.560  1.00  0.00     0.083 A 
HETATM    7  C   UNL     1      63.845   6.376   3.823  1.00  0.00     0.011 A 
HETATM    8  C   UNL     1      67.566   4.981   6.932  1.00  0.00     0.011 A 
HETATM    9  C   UNL     1      66.297   6.537   8.860  1.00  0.00     0.038 A 
HETATM   10  C   UNL     1      62.834   7.823   5.976  1.00  0.00     0.038 A 
HETATM   11  C   UNL     1      68.075   5.035   8.230  1.00  0.00     0.001 A 
HETATM   12  C   UNL     1      62.642   7.071   3.693  1.00  0.00     0.001 A 
HETATM   13  C   UNL     1      67.443   5.818   9.194  1.00  0.00     0.003 A 
HETATM   14  C   UNL     1      62.138   7.797   4.769  1.00  0.00     0.003 A 
ENDROOT
BRANCH   1  15
HETATM   15  C   UNL     1      66.915   6.312   4.212  1.00  0.00     0.186 C 
HETATM   16  O   UNL     1      67.409   7.427   4.252  1.00  0.00    -0.647 OA
HETATM   17  O   UNL     1      67.284   5.460   3.226  1.00  0.00    -0.647 OA
ENDBRANCH   1  15
TORSDOF 1
ENDMDL
MODEL 8
REMARK VINA RESULT:      -5.2      2.367      5.061
REMARK  1 active torsions:
REMARK  status: ('A' for Active; 'I' for Inactive)
REMARK    1  A    between atoms: C_1  and  C_7 
ROOT
HETATM    1  C   UNL     1      63.057   8.163   4.458  1.00  0.00     0.158 C 
HETATM    2  O   UNL     1      62.895   6.295   6.702  1.00  0.00    -0.310 OA
HETATM    3  C   UNL     1      61.824   7.348   4.777  1.00  0.00    -0.005 A 
HETATM    4  C   UNL     1      64.246   7.777   5.309  1.00  0.00    -0.005 A 
HETATM    5  C   UNL     1      61.814   6.489   5.876  1.00  0.00     0.083 A 
HETATM    6  C   UNL     1      64.087   6.893   6.378  1.00  0.00     0.083 A 
HETATM    7  C   UNL     1      60.662   7.463   3.992  1.00  0.00     0.011 A 
HETATM    8  C   UNL     1      65.519   8.315   5.056  1.00  0.00     0.011 A 
HETATM    9  C   UNL     1      65.172   6.569   7.196  1.00  0.00     0.038 A 
HETATM   10  C   UNL     1      60.664   5.767   6.201  1.00  0.00     0.038 A 
HETATM   11  C   UNL     1      66.603   7.990   5.875  1.00  0.00     0.001 A 
HETATM   12  C   UNL     1      59.512   6.744   4.321  1.00  0.00     0.001 A 
HETATM   13  C   UNL     1      66.428   7.120   6.948  1.00  0.00     0.003 A 
HETATM   14  C   UNL     1      59.512   5.898   5.428  1.00  0.00     0.003 A 
ENDROOT
BRANCH   1  15
HETATM   15  C   UNL     1      62.763   9.652   4.604  1.00  0.00     0.186 C 
HETATM   16  O   UNL     1      62.400  10.435   3.741  1.00  0.00    -0.647 OA
HETATM   17  O   UNL     1      62.939  10.098   5.870  1.00  0.00    -0.647 OA
ENDBRANCH   1  15
TORSDOF 1
ENDMDL
MODEL 9
REMARK VINA RESULT:      -5.2      1.737      3.702
REMARK  1 active torsions:
REMARK  status: ('A' for Active; 'I' for Inactive)
REMARK    1  A    between atoms: C_1  and  C_7 
ROOT
HETATM    1  C   UNL     1      65.672   6.971   5.605  1.00  0.00     0.158 C 
HETATM    2  O   UNL     1      65.321   5.217   3.292  1.00  0.00    -0.310 OA
HETATM    3  C   UNL     1      66.351   5.626   5.467  1.00  0.00    -0.005 A 
HETATM    4  C   UNL     1      64.661   7.227   4.511  1.00  0.00    -0.005 A 
HETATM    5  C   UNL     1      66.148   4.851   4.325  1.00  0.00     0.083 A 
HETATM    6  C   UNL     1      64.565   6.355   3.425  1.00  0.00     0.083 A 
HETATM    7  C   UNL     1      67.215   5.150   6.470  1.00  0.00     0.011 A 
HETATM    8  C   UNL     1      63.822   8.354   4.553  1.00  0.00     0.011 A 
HETATM    9  C   UNL     1      63.664   6.611   2.388  1.00  0.00     0.038 A 
HETATM   10  C   UNL     1      66.806   3.628   4.173  1.00  0.00     0.038 A 
HETATM   11  C   UNL     1      62.923   8.609   3.516  1.00  0.00     0.001 A 
HETATM   12  C   UNL     1      67.875   3.930   6.314  1.00  0.00     0.001 A 
HETATM   13  C   UNL     1      62.848   7.739   2.430  1.00  0.00     0.003 A 
HETATM   14  C   UNL     1      67.673   3.171   5.164  1.00  0.00     0.003 A 
ENDROOT
BRANCH   1  15
HETATM   15  C   UNL     1      66.710   8.089   5.640  1.00  0.00     0.186 C 
HETATM   16  O   UNL     1      67.585   8.327   4.824  1.00  0.00    -0.647 OA
HETATM   17  O   UNL     1      66.589   8.880   6.732  1.00  0.00    -0.647 OA
ENDBRANCH   1  15
TORSDOF 1
ENDMDL
