MODEL 1
REMARK VINA RESULT:      -5.3      0.000      0.000
REMARK  2 active torsions:
REMARK  status: ('A' for Active; 'I' for Inactive)
REMARK    1  A    between atoms: C_1  and  C_5 
REMARK    2  A    between atoms: C_5  and  C_7 
ROOT
HETATM    1  C   UNL     1      63.259   7.892   4.197  1.00  0.00    -0.020 A 
HETATM    2  N   UNL     1      62.865   7.674   2.011  1.00  0.00    -0.365 N 
HETATM    3  C   UNL     1      63.350   7.033   3.118  1.00  0.00     0.097 A 
HETATM    4  C   UNL     1      62.726   9.127   3.697  1.00  0.00    -0.001 A 
HETATM    5  C   UNL     1      62.492   8.958   2.331  1.00  0.00     0.042 A 
HETATM    6  C   UNL     1      62.423  10.375   4.279  1.00  0.00     0.014 A 
HETATM    7  C   UNL     1      61.969   9.972   1.519  1.00  0.00     0.030 A 
HETATM    8  C   UNL     1      61.913  11.405   3.478  1.00  0.00     0.001 A 
HETATM    9  C   UNL     1      61.690  11.203   2.119  1.00  0.00     0.002 A 
HETATM   10  H   UNL     1      62.795   7.275   1.115  1.00  0.00     0.165 HD
ENDROOT
BRANCH   1  11
HETATM   11  C   UNL     1      63.649   7.588   5.609  1.00  0.00     0.154 C 
BRANCH  11  12
HETATM   12  C   UNL     1      65.135   7.744   5.838  1.00  0.00     0.177 C 
HETATM   13  O   UNL     1      65.984   6.870   5.902  1.00  0.00    -0.648 OA
HETATM   14  O   UNL     1      65.511   9.041   5.918  1.00  0.00    -0.648 OA
ENDBRANCH  11  12
ENDBRANCH   1  11
TORSDOF 2
ENDMDL
MODEL 2
REMARK VINA RESULT:      -5.3      1.439      2.341
REMARK  2 active torsions:
REMARK  status: ('A' for Active; 'I' for Inactive)
REMARK    1  A    between atoms: C_1  and  C_5 
REMARK    2  A    between atoms: C_5  and  C_7 
ROOT
HETATM    1  C   UNL     1      63.269   8.968   4.784  1.00  0.00    -0.020 A 
HETATM    2  N   UNL     1      62.226  10.800   4.053  1.00  0.00    -0.365 N 
HETATM    3  C   UNL     1      62.834  10.231   5.138  1.00  0.00     0.097 A 
HETATM    4  C   UNL     1      62.864   8.759   3.424  1.00  0.00    -0.001 A 
HETATM    5  C   UNL     1      62.217   9.920   2.997  1.00  0.00     0.042 A 
HETATM    6  C   UNL     1      62.986   7.688   2.515  1.00  0.00     0.014 A 
HETATM    7  C   UNL     1      61.687  10.064   1.709  1.00  0.00     0.030 A 
HETATM    8  C   UNL     1      62.450   7.811   1.227  1.00  0.00     0.001 A 
HETATM    9  C   UNL     1      61.812   8.983   0.832  1.00  0.00     0.002 A 
HETATM   10  H   UNL     1      61.850  11.710   4.030  1.00  0.00     0.165 HD
ENDROOT
BRANCH   1  11
HETATM   11  C   UNL     1      64.011   8.008   5.659  1.00  0.00     0.154 C 
BRANCH  11  12
HETATM   12  C   UNL     1      65.509   8.120   5.490  1.00  0.00     0.177 C 
HETATM   13  O   UNL     1      66.211   7.613   4.632  1.00  0.00    -0.648 OA
HETATM   14  O   UNL     1      66.070   8.943   6.405  1.00  0.00    -0.648 OA
ENDBRANCH  11  12
ENDBRANCH   1  11
TORSDOF 2
ENDMDL
MODEL 3
REMARK VINA RESULT:      -5.0      1.586      1.850
REMARK  2 active torsions:
REMARK  status: ('A' for Active; 'I' for Inactive)
REMARK    1  A    between atoms: C_1  and  C_5 
REMARK    2  A    between atoms: C_5  and  C_7 
ROOT
HETATM    1  C   UNL     1      63.370   7.457   3.804  1.00  0.00    -0.020 A 
HETATM    2  N   UNL     1      62.808   7.465   1.645  1.00  0.00    -0.365 N 
HETATM    3  C   UNL     1      63.362   6.710   2.641  1.00  0.00     0.097 A 
HETATM    4  C   UNL     1      62.825   8.742   3.472  1.00  0.00    -0.001 A 
HETATM    5  C   UNL     1      62.484   8.715   2.118  1.00  0.00     0.042 A 
HETATM    6  C   UNL     1      62.591   9.929   4.197  1.00  0.00     0.014 A 
HETATM    7  C   UNL     1      61.922   9.812   1.454  1.00  0.00     0.030 A 
HETATM    8  C   UNL     1      62.042  11.040   3.545  1.00  0.00     0.001 A 
HETATM    9  C   UNL     1      61.713  10.979   2.194  1.00  0.00     0.002 A 
HETATM   10  H   UNL     1      62.661   7.159   0.721  1.00  0.00     0.165 HD
ENDROOT
BRANCH   1  11
HETATM   11  C   UNL     1      63.860   7.007   5.144  1.00  0.00     0.154 C 
BRANCH  11  12
HETATM   12  C   UNL     1      62.770   7.031   6.190  1.00  0.00     0.177 C 
HETATM   13  O   UNL     1      62.618   7.824   7.104  1.00  0.00    -0.648 OA
HETATM   14  O   UNL     1      61.850   6.057   5.998  1.00  0.00    -0.648 OA
ENDBRANCH  11  12
ENDBRANCH   1  11
TORSDOF 2
ENDMDL
MODEL 4
REMARK VINA RESULT:      -4.7      1.448      1.789
REMARK  2 active torsions:
REMARK  status: ('A' for Active; 'I' for Inactive)
REMARK    1  A    between atoms: C_1  and  C_5 
REMARK    2  A    between atoms: C_5  and  C_7 
ROOT
HETATM    1  C   UNL     1      64.852   7.838   4.848  1.00  0.00    -0.020 A 
HETATM    2  N   UNL     1      63.672   7.287   3.035  1.00  0.00    -0.365 N 
HETATM    3  C   UNL     1      64.710   6.903   3.839  1.00  0.00     0.097 A 
HETATM    4  C   UNL     1      63.868   8.854   4.608  1.00  0.00    -0.001 A 
HETATM    5  C   UNL     1      63.149   8.481   3.471  1.00  0.00     0.042 A 
HETATM    6  C   UNL     1      63.523  10.060   5.252  1.00  0.00     0.014 A 
HETATM    7  C   UNL     1      62.104   9.251   2.947  1.00  0.00     0.030 A 
HETATM    8  C   UNL     1      62.489  10.849   4.733  1.00  0.00     0.001 A 
HETATM    9  C   UNL     1      61.791  10.448   3.598  1.00  0.00     0.002 A 
HETATM   10  H   UNL     1      63.347   6.781   2.256  1.00  0.00     0.165 HD
ENDROOT
BRANCH   1  11
HETATM   11  C   UNL     1      65.846   7.793   5.965  1.00  0.00     0.154 C 
BRANCH  11  12
HETATM   12  C   UNL     1      67.223   7.392   5.489  1.00  0.00     0.177 C 
HETATM   13  O   UNL     1      67.806   6.336   5.672  1.00  0.00    -0.648 OA
HETATM   14  O   UNL     1      67.803   8.346   4.725  1.00  0.00    -0.648 OA
ENDBRANCH  11  12
ENDBRANCH   1  11
TORSDOF 2
ENDMDL
MODEL 5
REMARK VINA RESULT:      -4.5      2.925      3.759
REMARK  2 active torsions:
REMARK  status: ('A' for Active; 'I' for Inactive)
REMARK    1  A    between atoms: C_1  and  C_5 
REMARK    2  A    between atoms: C_5  and  C_7 
ROOT
HETATM    1  C   UNL     1      61.995   8.853   2.775  1.00  0.00    -0.020 A 
HETATM    2  N   UNL     1      61.402   8.765   0.625  1.00  0.00    -0.365 N 
HETATM    3  C   UNL     1      62.389   9.161   1.486  1.00  0.00     0.097 A 
HETATM    4  C   UNL     1      60.684   8.278   2.678  1.00  0.00    -0.001 A 
HETATM    5  C   UNL     1      60.344   8.238   1.325  1.00  0.00     0.042 A 
HETATM    6  C   UNL     1      59.753   7.790   3.618  1.00  0.00     0.014 A 
HETATM    7  C   UNL     1      59.121   7.733   0.865  1.00  0.00     0.030 A 
HETATM    8  C   UNL     1      58.520   7.295   3.175  1.00  0.00     0.001 A 
HETATM    9  C   UNL     1      58.212   7.267   1.818  1.00  0.00     0.002 A 
HETATM   10  H   UNL     1      61.444   8.847  -0.355  1.00  0.00     0.165 HD
ENDROOT
BRANCH   1  11
HETATM   11  C   UNL     1      62.786   9.086   4.023  1.00  0.00     0.154 C 
BRANCH  11  12
HETATM   12  C   UNL     1      62.505  10.439   4.635  1.00  0.00     0.177 C 
HETATM   13  O   UNL     1      61.794  11.330   4.202  1.00  0.00    -0.648 OA
HETATM   14  O   UNL     1      63.104  10.595   5.838  1.00  0.00    -0.648 OA
ENDBRANCH  11  12
ENDBRANCH   1  11
TORSDOF 2
ENDMDL
MODEL 6
REMARK VINA RESULT:      -4.4      2.037      2.909
REMARK  2 active torsions:
REMARK  status: ('A' for Active; 'I' for Inactive)
REMARK    1  A    between atoms: C_1  and  C_5 
REMARK    2  A    between atoms: C_5  and  C_7 
ROOT
HETATM    1  C   UNL     1      64.118   7.421   4.104  1.00  0.00    -0.020 A 
HETATM    2  N   UNL     1      64.219   8.763   5.884  1.00  0.00    -0.365 N 
HETATM    3  C   UNL     1      64.621   7.555   5.384  1.00  0.00     0.097 A 
HETATM    4  C   UNL     1      63.341   8.598   3.841  1.00  0.00    -0.001 A 
HETATM    5  C   UNL     1      63.424   9.415   4.971  1.00  0.00     0.042 A 
HETATM    6  C   UNL     1      62.572   9.045   2.747  1.00  0.00     0.014 A 
HETATM    7  C   UNL     1      62.779  10.654   5.061  1.00  0.00     0.030 A 
HETATM    8  C   UNL     1      61.908  10.276   2.827  1.00  0.00     0.001 A 
HETATM    9  C   UNL     1      62.013  11.067   3.967  1.00  0.00     0.002 A 
HETATM   10  H   UNL     1      64.462   9.116   6.770  1.00  0.00     0.165 HD
ENDROOT
BRANCH   1  11
HETATM   11  C   UNL     1      64.339   6.265   3.180  1.00  0.00     0.154 C 
BRANCH  11  12
HETATM   12  C   UNL     1      65.576   5.474   3.540  1.00  0.00     0.177 C 
HETATM   13  O   UNL     1      66.744   5.773   3.353  1.00  0.00    -0.648 OA
HETATM   14  O   UNL     1      65.282   4.330   4.199  1.00  0.00    -0.648 OA
ENDBRANCH  11  12
ENDBRANCH   1  11
TORSDOF 2
ENDMDL
MODEL 7
REMARK VINA RESULT:      -4.3      3.520      6.166
REMARK  2 active torsions:
REMARK  status: ('A' for Active; 'I' for Inactive)
REMARK    1  A    between atoms: C_1  and  C_5 
REMARK    2  A    between atoms: C_5  and  C_7 
ROOT
HETATM    1  C   UNL     1      65.875   7.267   5.534  1.00  0.00    -0.020 A 
HETATM    2  N   UNL     1      67.434   5.761   5.005  1.00  0.00    -0.365 N 
HETATM    3  C   UNL     1      66.531   6.648   4.487  1.00  0.00     0.097 A 
HETATM    4  C   UNL     1      66.391   6.690   6.742  1.00  0.00    -0.001 A 
HETATM    5  C   UNL     1      67.361   5.754   6.378  1.00  0.00     0.042 A 
HETATM    6  C   UNL     1      66.121   6.874   8.114  1.00  0.00     0.014 A 
HETATM    7  C   UNL     1      68.074   4.996   7.314  1.00  0.00     0.030 A 
HETATM    8  C   UNL     1      66.815   6.114   9.063  1.00  0.00     0.001 A 
HETATM    9  C   UNL     1      67.778   5.190   8.666  1.00  0.00     0.002 A 
HETATM   10  H   UNL     1      68.049   5.207   4.472  1.00  0.00     0.165 HD
ENDROOT
BRANCH   1  11
HETATM   11  C   UNL     1      64.828   8.329   5.421  1.00  0.00     0.154 C 
BRANCH  11  12
HETATM   12  C   UNL     1      63.431   7.773   5.576  1.00  0.00     0.177 C 
HETATM   13  O   UNL     1      62.785   7.121   4.773  1.00  0.00    -0.648 OA
HETATM   14  O   UNL     1      62.912   8.018   6.801  1.00  0.00    -0.648 OA
ENDBRANCH  11  12
ENDBRANCH   1  11
TORSDOF 2
ENDMDL
MODEL 8
REMARK VINA RESULT:      -4.3      4.429      7.417
REMARK  2 active torsions:
REMARK  status: ('A' for Active; 'I' for Inactive)
REMARK    1  A    between atoms: C_1  and  C_5 
REMARK    2  A    between atoms: C_5  and  C_7 
ROOT
HETATM    1  C   UNL     1      67.079   6.765   7.258  1.00  0.00    -0.020 A 
HETATM    2  N   UNL     1      67.159   5.665   9.198  1.00  0.00    -0.365 N 
HETATM    3  C   UNL     1      66.951   6.891   8.629  1.00  0.00     0.097 A 
HETATM    4  C   UNL     1      67.420   5.396   7.000  1.00  0.00    -0.001 A 
HETATM    5  C   UNL     1      67.461   4.736   8.230  1.00  0.00     0.042 A 
HETATM    6  C   UNL     1      67.699   4.655   5.834  1.00  0.00     0.014 A 
HETATM    7  C   UNL     1      67.767   3.375   8.352  1.00  0.00     0.030 A 
HETATM    8  C   UNL     1      68.020   3.296   5.939  1.00  0.00     0.001 A 
HETATM    9  C   UNL     1      68.052   2.668   7.181  1.00  0.00     0.002 A 
HETATM   10  H   UNL     1      67.100   5.474  10.162  1.00  0.00     0.165 HD
ENDROOT
BRANCH   1  11
HETATM   11  C   UNL     1      66.902   7.854   6.248  1.00  0.00     0.154 C 
BRANCH  11  12
HETATM   12  C   UNL     1      65.459   8.018   5.830  1.00  0.00     0.177 C 
HETATM   13  O   UNL     1      64.641   7.147   5.585  1.00  0.00    -0.648 OA
HETATM   14  O   UNL     1      65.077   9.315   5.796  1.00  0.00    -0.648 OA
ENDBRANCH  11  12
ENDBRANCH   1  11
TORSDOF 2
ENDMDL
MODEL 9
REMARK VINA RESULT:      -4.2      4.664      7.111
REMARK  2 active torsions:
REMARK  status: ('A' for Active; 'I' for Inactive)
REMARK    1  A    between atoms: C_1  and  C_5 
REMARK    2  A    between atoms: C_5  and  C_7 
ROOT
HETATM    1  C   UNL     1      67.419   6.009   5.482  1.00  0.00    -0.020 A 
HETATM    2  N   UNL     1      67.003   3.835   5.199  1.00  0.00    -0.365 N 
HETATM    3  C   UNL     1      67.020   5.049   4.570  1.00  0.00     0.097 A 
HETATM    4  C   UNL     1      67.614   5.334   6.732  1.00  0.00    -0.001 A 
HETATM    5  C   UNL     1      67.346   3.979   6.523  1.00  0.00     0.042 A 
HETATM    6  C   UNL     1      67.991   5.749   8.026  1.00  0.00     0.014 A 
HETATM    7  C   UNL     1      67.438   3.021   7.539  1.00  0.00     0.030 A 
HETATM    8  C   UNL     1      68.074   4.805   9.058  1.00  0.00     0.001 A 
HETATM    9  C   UNL     1      67.802   3.462   8.815  1.00  0.00     0.002 A 
HETATM   10  H   UNL     1      66.777   2.980   4.767  1.00  0.00     0.165 HD
ENDROOT
BRANCH   1  11
HETATM   11  C   UNL     1      67.603   7.468   5.209  1.00  0.00     0.154 C 
BRANCH  11  12
HETATM   12  C   UNL     1      66.488   8.305   5.792  1.00  0.00     0.177 C 
HETATM   13  O   UNL     1      66.428   8.817   6.897  1.00  0.00    -0.648 OA
HETATM   14  O   UNL     1      65.488   8.519   4.907  1.00  0.00    -0.648 OA
ENDBRANCH  11  12
ENDBRANCH   1  11
TORSDOF 2
ENDMDL
