MODEL 1
REMARK VINA RESULT:      -5.4      0.000      0.000
REMARK  2 active torsions:
REMARK  status: ('A' for Active; 'I' for Inactive)
REMARK    1  A    between atoms: C_1  and  C_3 
REMARK    2  A    between atoms: C_3  and  C_4 
ROOT
HETATM    1  C   UNL     1      62.400   9.026   3.667  1.00  0.00    -0.048 A 
HETATM    2  C   UNL     1      61.821  11.358   2.245  1.00  0.00     0.116 A 
HETATM    3  F   UNL     1      61.532  12.475   1.564  1.00  0.00    -0.206 F 
HETATM    4  C   UNL     1      61.960  11.414   3.626  1.00  0.00     0.043 A 
HETATM    5  C   UNL     1      61.978  10.159   1.560  1.00  0.00     0.043 A 
HETATM    6  C   UNL     1      62.271   8.994   2.269  1.00  0.00     0.011 A 
HETATM    7  C   UNL     1      62.253  10.251   4.339  1.00  0.00     0.011 A 
ENDROOT
BRANCH   1   8
HETATM    8  C   UNL     1      62.695   7.757   4.434  1.00  0.00     0.151 C 
BRANCH   8   9
HETATM    9  C   UNL     1      63.499   7.961   5.694  1.00  0.00     0.176 C 
HETATM   10  O   UNL     1      64.673   8.273   5.804  1.00  0.00    -0.648 OA
HETATM   11  O   UNL     1      62.750   7.753   6.800  1.00  0.00    -0.648 OA
ENDBRANCH   8   9
ENDBRANCH   1   8
TORSDOF 2
ENDMDL
MODEL 2
REMARK VINA RESULT:      -5.3      0.643      1.596
REMARK  2 active torsions:
REMARK  status: ('A' for Active; 'I' for Inactive)
REMARK    1  A    between atoms: C_1  and  C_3 
REMARK    2  A    between atoms: C_3  and  C_4 
ROOT
HETATM    1  C   UNL     1      62.641   9.108   3.689  1.00  0.00    -0.048 A 
HETATM    2  C   UNL     1      61.777  11.351   2.269  1.00  0.00     0.116 A 
HETATM    3  F   UNL     1      61.373  12.430   1.586  1.00  0.00    -0.206 F 
HETATM    4  C   UNL     1      62.015  10.162   1.592  1.00  0.00     0.043 A 
HETATM    5  C   UNL     1      61.951  11.437   3.645  1.00  0.00     0.043 A 
HETATM    6  C   UNL     1      62.379  10.316   4.357  1.00  0.00     0.011 A 
HETATM    7  C   UNL     1      62.443   9.038   2.301  1.00  0.00     0.011 A 
ENDROOT
BRANCH   1   8
HETATM    8  C   UNL     1      63.126   7.902   4.460  1.00  0.00     0.151 C 
BRANCH   8   9
HETATM    9  C   UNL     1      64.333   8.158   5.328  1.00  0.00     0.176 C 
HETATM   10  O   UNL     1      65.364   8.742   5.040  1.00  0.00    -0.648 OA
HETATM   11  O   UNL     1      64.172   7.644   6.567  1.00  0.00    -0.648 OA
ENDBRANCH   8   9
ENDBRANCH   1   8
TORSDOF 2
ENDMDL
MODEL 3
REMARK VINA RESULT:      -5.1      0.829      1.910
REMARK  2 active torsions:
REMARK  status: ('A' for Active; 'I' for Inactive)
REMARK    1  A    between atoms: C_1  and  C_3 
REMARK    2  A    between atoms: C_3  and  C_4 
ROOT
HETATM    1  C   UNL     1      62.714   9.084   3.805  1.00  0.00    -0.048 A 
HETATM    2  C   UNL     1      61.779  11.256   2.319  1.00  0.00     0.116 A 
HETATM    3  F   UNL     1      61.342  12.301   1.605  1.00  0.00    -0.206 F 
HETATM    4  C   UNL     1      62.036  10.049   1.681  1.00  0.00     0.043 A 
HETATM    5  C   UNL     1      61.970  11.394   3.689  1.00  0.00     0.043 A 
HETATM    6  C   UNL     1      62.433  10.308   4.433  1.00  0.00     0.011 A 
HETATM    7  C   UNL     1      62.499   8.960   2.422  1.00  0.00     0.011 A 
ENDROOT
BRANCH   1   8
HETATM    8  C   UNL     1      63.236   7.917   4.610  1.00  0.00     0.151 C 
BRANCH   8   9
HETATM    9  C   UNL     1      62.272   7.386   5.641  1.00  0.00     0.176 C 
HETATM   10  O   UNL     1      61.252   6.740   5.466  1.00  0.00    -0.648 OA
HETATM   11  O   UNL     1      62.657   7.710   6.896  1.00  0.00    -0.648 OA
ENDBRANCH   8   9
ENDBRANCH   1   8
TORSDOF 2
ENDMDL
MODEL 4
REMARK VINA RESULT:      -4.7      3.359      4.142
REMARK  2 active torsions:
REMARK  status: ('A' for Active; 'I' for Inactive)
REMARK    1  A    between atoms: C_1  and  C_3 
REMARK    2  A    between atoms: C_3  and  C_4 
ROOT
HETATM    1  C   UNL     1      62.112   9.394   1.847  1.00  0.00    -0.048 A 
HETATM    2  C   UNL     1      62.240  10.944   4.166  1.00  0.00     0.116 A 
HETATM    3  F   UNL     1      62.312  11.690   5.276  1.00  0.00    -0.206 F 
HETATM    4  C   UNL     1      61.865  11.535   2.966  1.00  0.00     0.043 A 
HETATM    5  C   UNL     1      62.540   9.589   4.230  1.00  0.00     0.043 A 
HETATM    6  C   UNL     1      62.473   8.812   3.073  1.00  0.00     0.011 A 
HETATM    7  C   UNL     1      61.797  10.762   1.806  1.00  0.00     0.011 A 
ENDROOT
BRANCH   1   8
HETATM    8  C   UNL     1      62.062   8.554   0.591  1.00  0.00     0.151 C 
BRANCH   8   9
HETATM    9  C   UNL     1      60.807   7.731   0.439  1.00  0.00     0.176 C 
HETATM   10  O   UNL     1      59.672   8.112   0.203  1.00  0.00    -0.648 OA
HETATM   11  O   UNL     1      61.056   6.412   0.596  1.00  0.00    -0.648 OA
ENDBRANCH   8   9
ENDBRANCH   1   8
TORSDOF 2
ENDMDL
MODEL 5
REMARK VINA RESULT:      -4.2      3.659      4.884
REMARK  2 active torsions:
REMARK  status: ('A' for Active; 'I' for Inactive)
REMARK    1  A    between atoms: C_1  and  C_3 
REMARK    2  A    between atoms: C_3  and  C_4 
ROOT
HETATM    1  C   UNL     1      63.152   8.646   4.078  1.00  0.00    -0.048 A 
HETATM    2  C   UNL     1      65.414   7.018   4.262  1.00  0.00     0.116 A 
HETATM    3  F   UNL     1      66.493   6.231   4.358  1.00  0.00    -0.206 F 
HETATM    4  C   UNL     1      64.429   6.720   3.329  1.00  0.00     0.043 A 
HETATM    5  C   UNL     1      65.294   8.123   5.097  1.00  0.00     0.043 A 
HETATM    6  C   UNL     1      64.167   8.939   5.004  1.00  0.00     0.011 A 
HETATM    7  C   UNL     1      63.299   7.535   3.232  1.00  0.00     0.011 A 
ENDROOT
BRANCH   1   8
HETATM    8  C   UNL     1      61.922   9.520   3.995  1.00  0.00     0.151 C 
BRANCH   8   9
HETATM    9  C   UNL     1      61.970  10.567   2.910  1.00  0.00     0.176 C 
HETATM   10  O   UNL     1      62.046  10.407   1.703  1.00  0.00    -0.648 OA
HETATM   11  O   UNL     1      61.917  11.816   3.422  1.00  0.00    -0.648 OA
ENDBRANCH   8   9
ENDBRANCH   1   8
TORSDOF 2
ENDMDL
MODEL 6
REMARK VINA RESULT:      -4.2      2.739      3.280
REMARK  2 active torsions:
REMARK  status: ('A' for Active; 'I' for Inactive)
REMARK    1  A    between atoms: C_1  and  C_3 
REMARK    2  A    between atoms: C_3  and  C_4 
ROOT
HETATM    1  C   UNL     1      62.099   8.823   3.134  1.00  0.00    -0.048 A 
HETATM    2  C   UNL     1      60.222   7.876   1.296  1.00  0.00     0.116 A 
HETATM    3  F   UNL     1      59.327   7.412   0.414  1.00  0.00    -0.206 F 
HETATM    4  C   UNL     1      60.030   7.645   2.652  1.00  0.00     0.043 A 
HETATM    5  C   UNL     1      61.329   8.582   0.842  1.00  0.00     0.043 A 
HETATM    6  C   UNL     1      62.266   9.059   1.759  1.00  0.00     0.011 A 
HETATM    7  C   UNL     1      60.964   8.121   3.574  1.00  0.00     0.011 A 
ENDROOT
BRANCH   1   8
HETATM    8  C   UNL     1      63.127   9.322   4.123  1.00  0.00     0.151 C 
BRANCH   8   9
HETATM    9  C   UNL     1      62.700  10.535   4.910  1.00  0.00     0.176 C 
HETATM   10  O   UNL     1      62.898  10.785   6.088  1.00  0.00    -0.648 OA
HETATM   11  O   UNL     1      62.017  11.412   4.140  1.00  0.00    -0.648 OA
ENDBRANCH   8   9
ENDBRANCH   1   8
TORSDOF 2
ENDMDL
MODEL 7
REMARK VINA RESULT:      -4.1      3.655      5.258
REMARK  2 active torsions:
REMARK  status: ('A' for Active; 'I' for Inactive)
REMARK    1  A    between atoms: C_1  and  C_3 
REMARK    2  A    between atoms: C_3  and  C_4 
ROOT
HETATM    1  C   UNL     1      63.735   8.287   4.993  1.00  0.00    -0.048 A 
HETATM    2  C   UNL     1      64.993   6.560   6.790  1.00  0.00     0.116 A 
HETATM    3  F   UNL     1      65.595   5.739   7.661  1.00  0.00    -0.206 F 
HETATM    4  C   UNL     1      63.638   6.406   6.526  1.00  0.00     0.043 A 
HETATM    5  C   UNL     1      65.734   7.555   6.163  1.00  0.00     0.043 A 
HETATM    6  C   UNL     1      65.107   8.416   5.262  1.00  0.00     0.011 A 
HETATM    7  C   UNL     1      63.008   7.265   5.625  1.00  0.00     0.011 A 
ENDROOT
BRANCH   1   8
HETATM    8  C   UNL     1      63.054   9.236   4.033  1.00  0.00     0.151 C 
BRANCH   8   9
HETATM    9  C   UNL     1      62.540  10.504   4.667  1.00  0.00     0.176 C 
HETATM   10  O   UNL     1      61.816  11.357   4.180  1.00  0.00    -0.648 OA
HETATM   11  O   UNL     1      62.982  10.640   5.937  1.00  0.00    -0.648 OA
ENDBRANCH   8   9
ENDBRANCH   1   8
TORSDOF 2
ENDMDL
MODEL 8
REMARK VINA RESULT:      -4.0      2.060      2.445
REMARK  2 active torsions:
REMARK  status: ('A' for Active; 'I' for Inactive)
REMARK    1  A    between atoms: C_1  and  C_3 
REMARK    2  A    between atoms: C_3  and  C_4 
ROOT
HETATM    1  C   UNL     1      62.892   8.454   4.148  1.00  0.00    -0.048 A 
HETATM    2  C   UNL     1      62.254  11.172   4.173  1.00  0.00     0.116 A 
HETATM    3  F   UNL     1      61.938  12.474   4.190  1.00  0.00    -0.206 F 
HETATM    4  C   UNL     1      62.872  10.603   5.280  1.00  0.00     0.043 A 
HETATM    5  C   UNL     1      61.960  10.410   3.049  1.00  0.00     0.043 A 
HETATM    6  C   UNL     1      62.282   9.053   3.033  1.00  0.00     0.011 A 
HETATM    7  C   UNL     1      63.195   9.245   5.268  1.00  0.00     0.011 A 
ENDROOT
BRANCH   1   8
HETATM    8  C   UNL     1      63.218   6.978   4.136  1.00  0.00     0.151 C 
BRANCH   8   9
HETATM    9  C   UNL     1      64.421   6.610   3.303  1.00  0.00     0.176 C 
HETATM   10  O   UNL     1      65.602   6.688   3.599  1.00  0.00    -0.648 OA
HETATM   11  O   UNL     1      64.059   6.143   2.088  1.00  0.00    -0.648 OA
ENDBRANCH   8   9
ENDBRANCH   1   8
TORSDOF 2
ENDMDL
MODEL 9
REMARK VINA RESULT:      -4.0      1.960      2.590
REMARK  2 active torsions:
REMARK  status: ('A' for Active; 'I' for Inactive)
REMARK    1  A    between atoms: C_1  and  C_3 
REMARK    2  A    between atoms: C_3  and  C_4 
ROOT
HETATM    1  C   UNL     1      62.329   8.400   3.990  1.00  0.00    -0.048 A 
HETATM    2  C   UNL     1      60.983   8.487   1.545  1.00  0.00     0.116 A 
HETATM    3  F   UNL     1      60.347   8.525   0.367  1.00  0.00    -0.206 F 
HETATM    4  C   UNL     1      60.875   7.358   2.347  1.00  0.00     0.043 A 
HETATM    5  C   UNL     1      61.744   9.578   1.948  1.00  0.00     0.043 A 
HETATM    6  C   UNL     1      62.413   9.538   3.171  1.00  0.00     0.011 A 
HETATM    7  C   UNL     1      61.543   7.314   3.571  1.00  0.00     0.011 A 
ENDROOT
BRANCH   1   8
HETATM    8  C   UNL     1      63.075   8.350   5.303  1.00  0.00     0.151 C 
BRANCH   8   9
HETATM    9  C   UNL     1      64.554   8.623   5.194  1.00  0.00     0.176 C 
HETATM   10  O   UNL     1      65.415   7.941   4.663  1.00  0.00    -0.648 OA
HETATM   11  O   UNL     1      64.888   9.792   5.784  1.00  0.00    -0.648 OA
ENDBRANCH   8   9
ENDBRANCH   1   8
TORSDOF 2
ENDMDL
