MODEL 1
REMARK VINA RESULT:      -6.4      0.000      0.000
REMARK  1 active torsions:
REMARK  status: ('A' for Active; 'I' for Inactive)
REMARK    1  A    between atoms: C_1  and  C_8 
REMARK       I    between atoms: N_4  and  C_6 
ROOT
HETATM    1  C   UNL     1      63.414   7.637   3.822  1.00  0.00    -0.026 A 
HETATM    2  C   UNL     1      63.317   6.942   2.633  1.00  0.00     0.096 A 
HETATM    3  N   UNL     1      62.720   7.759   1.705  1.00  0.00    -0.365 N 
HETATM    4  C   UNL     1      62.833   8.929   3.593  1.00  0.00    -0.001 A 
HETATM    5  C   UNL     1      62.437   8.986   2.260  1.00  0.00     0.042 A 
HETATM    6  C   UNL     1      62.635  10.059   4.413  1.00  0.00     0.014 A 
HETATM    7  C   UNL     1      61.866  10.135   1.700  1.00  0.00     0.030 A 
HETATM    8  C   UNL     1      62.075  11.215   3.869  1.00  0.00     0.001 A 
HETATM    9  C   UNL     1      61.700  11.251   2.530  1.00  0.00     0.002 A 
HETATM   10  H   UNL     1      62.524   7.504   0.774  1.00  0.00     0.165 HD
ENDROOT
BRANCH   1  11
HETATM   11  C   UNL     1      64.009   7.227   5.136  1.00  0.00     0.024 C 
HETATM   12  C   UNL     1      63.848   5.757   5.522  1.00  0.00     0.029 C 
HETATM   13  C   UNL     1      64.365   5.561   6.951  1.00  0.00     0.126 C 
HETATM   14  N   UNL     1      65.738   6.050   7.106  1.00  0.00    -0.352 N 
HETATM   15  C   UNL     1      65.992   7.413   6.639  1.00  0.00     0.126 C 
HETATM   16  C   UNL     1      66.608   5.337   7.922  1.00  0.00     0.215 C 
HETATM   17  C   UNL     1      65.498   7.598   5.213  1.00  0.00     0.029 C 
HETATM   18  O   UNL     1      66.308   4.260   8.437  1.00  0.00    -0.274 OA
HETATM   19  C   UNL     1      67.972   5.935   8.163  1.00  0.00     0.117 C 
ENDBRANCH   1  11
TORSDOF 1
ENDMDL
MODEL 2
REMARK VINA RESULT:      -6.2      2.700      6.691
REMARK  1 active torsions:
REMARK  status: ('A' for Active; 'I' for Inactive)
REMARK    1  A    between atoms: C_1  and  C_8 
REMARK       I    between atoms: N_4  and  C_6 
ROOT
HETATM    1  C   UNL     1      65.770   6.375   5.155  1.00  0.00    -0.026 A 
HETATM    2  C   UNL     1      66.556   5.621   4.306  1.00  0.00     0.096 A 
HETATM    3  N   UNL     1      67.515   4.987   5.057  1.00  0.00    -0.365 N 
HETATM    4  C   UNL     1      66.297   6.190   6.477  1.00  0.00    -0.001 A 
HETATM    5  C   UNL     1      67.362   5.299   6.389  1.00  0.00     0.042 A 
HETATM    6  C   UNL     1      65.933   6.695   7.742  1.00  0.00     0.014 A 
HETATM    7  C   UNL     1      68.074   4.873   7.516  1.00  0.00     0.030 A 
HETATM    8  C   UNL     1      66.626   6.274   8.878  1.00  0.00     0.001 A 
HETATM    9  C   UNL     1      67.680   5.373   8.763  1.00  0.00     0.002 A 
HETATM   10  H   UNL     1      68.211   4.393   4.695  1.00  0.00     0.165 HD
ENDROOT
BRANCH   1  11
HETATM   11  C   UNL     1      64.573   7.229   4.862  1.00  0.00     0.024 C 
HETATM   12  C   UNL     1      64.667   8.694   5.284  1.00  0.00     0.029 C 
HETATM   13  C   UNL     1      63.306   9.363   5.058  1.00  0.00     0.126 C 
HETATM   14  N   UNL     1      62.836   9.189   3.681  1.00  0.00    -0.352 N 
HETATM   15  C   UNL     1      62.838   7.819   3.168  1.00  0.00     0.126 C 
HETATM   16  C   UNL     1      62.164  10.241   3.072  1.00  0.00     0.215 C 
HETATM   17  C   UNL     1      64.196   7.165   3.373  1.00  0.00     0.029 C 
HETATM   18  O   UNL     1      62.036  11.347   3.600  1.00  0.00    -0.274 OA
HETATM   19  C   UNL     1      61.580   9.987   1.705  1.00  0.00     0.117 C 
ENDBRANCH   1  11
TORSDOF 1
ENDMDL
MODEL 3
REMARK VINA RESULT:      -6.1      1.282      2.247
REMARK  1 active torsions:
REMARK  status: ('A' for Active; 'I' for Inactive)
REMARK    1  A    between atoms: C_1  and  C_8 
REMARK       I    between atoms: N_4  and  C_6 
ROOT
HETATM    1  C   UNL     1      63.027   9.114   4.333  1.00  0.00    -0.026 A 
HETATM    2  C   UNL     1      62.390  10.337   4.406  1.00  0.00     0.096 A 
HETATM    3  N   UNL     1      61.754  10.563   3.211  1.00  0.00    -0.365 N 
HETATM    4  C   UNL     1      62.767   8.592   3.022  1.00  0.00    -0.001 A 
HETATM    5  C   UNL     1      61.949   9.500   2.357  1.00  0.00     0.042 A 
HETATM    6  C   UNL     1      63.147   7.406   2.361  1.00  0.00     0.014 A 
HETATM    7  C   UNL     1      61.475   9.268   1.061  1.00  0.00     0.030 A 
HETATM    8  C   UNL     1      62.678   7.154   1.072  1.00  0.00     0.001 A 
HETATM    9  C   UNL     1      61.850   8.073   0.434  1.00  0.00     0.002 A 
HETATM   10  H   UNL     1      61.232  11.369   2.994  1.00  0.00     0.165 HD
ENDROOT
BRANCH   1  11
HETATM   11  C   UNL     1      63.831   8.379   5.364  1.00  0.00     0.024 C 
HETATM   12  C   UNL     1      63.400   6.944   5.662  1.00  0.00     0.029 C 
HETATM   13  C   UNL     1      64.220   6.415   6.843  1.00  0.00     0.126 C 
HETATM   14  N   UNL     1      65.661   6.547   6.608  1.00  0.00    -0.352 N 
HETATM   15  C   UNL     1      66.128   7.871   6.196  1.00  0.00     0.126 C 
HETATM   16  C   UNL     1      66.501   5.536   7.058  1.00  0.00     0.215 C 
HETATM   17  C   UNL     1      65.326   8.383   5.010  1.00  0.00     0.029 C 
HETATM   18  O   UNL     1      66.082   4.489   7.553  1.00  0.00    -0.274 OA
HETATM   19  C   UNL     1      67.986   5.760   6.917  1.00  0.00     0.117 C 
ENDBRANCH   1  11
TORSDOF 1
ENDMDL
MODEL 4
REMARK VINA RESULT:      -5.8      2.716      6.891
REMARK  1 active torsions:
REMARK  status: ('A' for Active; 'I' for Inactive)
REMARK    1  A    between atoms: C_1  and  C_8 
REMARK       I    between atoms: N_4  and  C_6 
ROOT
HETATM    1  C   UNL     1      65.473   7.346   6.021  1.00  0.00    -0.026 A 
HETATM    2  C   UNL     1      66.553   8.078   6.472  1.00  0.00     0.096 A 
HETATM    3  N   UNL     1      67.369   7.242   7.194  1.00  0.00    -0.365 N 
HETATM    4  C   UNL     1      65.649   6.009   6.511  1.00  0.00    -0.001 A 
HETATM    5  C   UNL     1      66.851   5.967   7.211  1.00  0.00     0.042 A 
HETATM    6  C   UNL     1      64.888   4.827   6.391  1.00  0.00     0.014 A 
HETATM    7  C   UNL     1      67.339   4.788   7.786  1.00  0.00     0.030 A 
HETATM    8  C   UNL     1      65.364   3.641   6.950  1.00  0.00     0.001 A 
HETATM    9  C   UNL     1      66.575   3.624   7.635  1.00  0.00     0.002 A 
HETATM   10  H   UNL     1      68.205   7.515   7.635  1.00  0.00     0.165 HD
ENDROOT
BRANCH   1  11
HETATM   11  C   UNL     1      64.312   7.761   5.168  1.00  0.00     0.024 C 
HETATM   12  C   UNL     1      64.043   9.262   5.075  1.00  0.00     0.029 C 
HETATM   13  C   UNL     1      62.737   9.485   4.305  1.00  0.00     0.126 C 
HETATM   14  N   UNL     1      62.755   8.820   2.998  1.00  0.00    -0.352 N 
HETATM   15  C   UNL     1      63.127   7.405   3.000  1.00  0.00     0.126 C 
HETATM   16  C   UNL     1      62.154   9.460   1.921  1.00  0.00     0.215 C 
HETATM   17  C   UNL     1      64.436   7.191   3.746  1.00  0.00     0.029 C 
HETATM   18  O   UNL     1      61.700  10.603   1.991  1.00  0.00    -0.274 OA
HETATM   19  C   UNL     1      62.075   8.697   0.623  1.00  0.00     0.117 C 
ENDBRANCH   1  11
TORSDOF 1
ENDMDL
MODEL 5
REMARK VINA RESULT:      -5.6      1.903      2.940
REMARK  1 active torsions:
REMARK  status: ('A' for Active; 'I' for Inactive)
REMARK    1  A    between atoms: C_1  and  C_8 
REMARK       I    between atoms: N_4  and  C_6 
ROOT
HETATM    1  C   UNL     1      63.106   8.728   4.904  1.00  0.00    -0.026 A 
HETATM    2  C   UNL     1      63.068   9.778   5.799  1.00  0.00     0.096 A 
HETATM    3  N   UNL     1      62.630  10.895   5.133  1.00  0.00    -0.365 N 
HETATM    4  C   UNL     1      62.682   9.250   3.637  1.00  0.00    -0.001 A 
HETATM    5  C   UNL     1      62.365  10.593   3.816  1.00  0.00     0.042 A 
HETATM    6  C   UNL     1      62.524   8.677   2.359  1.00  0.00     0.014 A 
HETATM    7  C   UNL     1      61.876  11.390   2.775  1.00  0.00     0.030 A 
HETATM    8  C   UNL     1      62.029   9.454   1.311  1.00  0.00     0.001 A 
HETATM    9  C   UNL     1      61.707  10.791   1.520  1.00  0.00     0.002 A 
HETATM   10  H   UNL     1      62.521  11.786   5.538  1.00  0.00     0.165 HD
ENDROOT
BRANCH   1  11
HETATM   11  C   UNL     1      63.477   7.290   5.116  1.00  0.00     0.024 C 
HETATM   12  C   UNL     1      64.738   7.030   5.938  1.00  0.00     0.029 C 
HETATM   13  C   UNL     1      65.048   5.529   5.909  1.00  0.00     0.126 C 
HETATM   14  N   UNL     1      63.900   4.728   6.346  1.00  0.00    -0.352 N 
HETATM   15  C   UNL     1      62.626   5.013   5.684  1.00  0.00     0.126 C 
HETATM   16  C   UNL     1      64.136   3.593   7.110  1.00  0.00     0.215 C 
HETATM   17  C   UNL     1      62.312   6.501   5.733  1.00  0.00     0.029 C 
HETATM   18  O   UNL     1      65.256   3.286   7.524  1.00  0.00    -0.274 OA
HETATM   19  C   UNL     1      62.949   2.720   7.434  1.00  0.00     0.117 C 
ENDBRANCH   1  11
TORSDOF 1
ENDMDL
MODEL 6
REMARK VINA RESULT:      -5.2      3.971      5.062
REMARK  1 active torsions:
REMARK  status: ('A' for Active; 'I' for Inactive)
REMARK    1  A    between atoms: C_1  and  C_8 
REMARK       I    between atoms: N_4  and  C_6 
ROOT
HETATM    1  C   UNL     1      59.909   7.715   2.108  1.00  0.00    -0.026 A 
HETATM    2  C   UNL     1      59.400   7.629   0.827  1.00  0.00     0.096 A 
HETATM    3  N   UNL     1      58.103   7.186   0.909  1.00  0.00    -0.365 N 
HETATM    4  C   UNL     1      58.866   7.287   2.996  1.00  0.00    -0.001 A 
HETATM    5  C   UNL     1      57.746   6.993   2.224  1.00  0.00     0.042 A 
HETATM    6  C   UNL     1      58.785   7.151   4.397  1.00  0.00     0.014 A 
HETATM    7  C   UNL     1      56.535   6.583   2.794  1.00  0.00     0.030 A 
HETATM    8  C   UNL     1      57.583   6.752   4.982  1.00  0.00     0.001 A 
HETATM    9  C   UNL     1      56.474   6.476   4.189  1.00  0.00     0.002 A 
HETATM   10  H   UNL     1      57.512   7.029   0.137  1.00  0.00     0.165 HD
ENDROOT
BRANCH   1  11
HETATM   11  C   UNL     1      61.256   8.172   2.584  1.00  0.00     0.024 C 
HETATM   12  C   UNL     1      61.260   9.260   3.656  1.00  0.00     0.029 C 
HETATM   13  C   UNL     1      62.704   9.713   3.897  1.00  0.00     0.126 C 
HETATM   14  N   UNL     1      63.583   8.584   4.218  1.00  0.00    -0.352 N 
HETATM   15  C   UNL     1      63.536   7.449   3.295  1.00  0.00     0.126 C 
HETATM   16  C   UNL     1      64.582   8.770   5.164  1.00  0.00     0.215 C 
HETATM   17  C   UNL     1      62.103   6.988   3.076  1.00  0.00     0.029 C 
HETATM   18  O   UNL     1      64.698   9.807   5.819  1.00  0.00    -0.274 OA
HETATM   19  C   UNL     1      65.550   7.632   5.378  1.00  0.00     0.117 C 
ENDBRANCH   1  11
TORSDOF 1
ENDMDL
MODEL 7
REMARK VINA RESULT:      -5.1      2.854      6.781
REMARK  1 active torsions:
REMARK  status: ('A' for Active; 'I' for Inactive)
REMARK    1  A    between atoms: C_1  and  C_8 
REMARK       I    between atoms: N_4  and  C_6 
ROOT
HETATM    1  C   UNL     1      65.363   7.157   6.000  1.00  0.00    -0.026 A 
HETATM    2  C   UNL     1      66.130   8.291   6.179  1.00  0.00     0.096 A 
HETATM    3  N   UNL     1      67.185   7.971   6.998  1.00  0.00    -0.365 N 
HETATM    4  C   UNL     1      65.986   6.113   6.762  1.00  0.00    -0.001 A 
HETATM    5  C   UNL     1      67.133   6.641   7.348  1.00  0.00     0.042 A 
HETATM    6  C   UNL     1      65.674   4.755   6.978  1.00  0.00     0.014 A 
HETATM    7  C   UNL     1      67.997   5.865   8.130  1.00  0.00     0.030 A 
HETATM    8  C   UNL     1      66.528   3.965   7.748  1.00  0.00     0.001 A 
HETATM    9  C   UNL     1      67.675   4.515   8.312  1.00  0.00     0.002 A 
HETATM   10  H   UNL     1      67.880   8.603   7.293  1.00  0.00     0.165 HD
ENDROOT
BRANCH   1  11
HETATM   11  C   UNL     1      64.127   6.946   5.178  1.00  0.00     0.024 C 
HETATM   12  C   UNL     1      62.797   7.251   5.865  1.00  0.00     0.029 C 
HETATM   13  C   UNL     1      61.652   6.825   4.940  1.00  0.00     0.126 C 
HETATM   14  N   UNL     1      61.768   7.436   3.612  1.00  0.00    -0.352 N 
HETATM   15  C   UNL     1      63.063   7.288   2.947  1.00  0.00     0.126 C 
HETATM   16  C   UNL     1      60.607   7.840   2.965  1.00  0.00     0.215 C 
HETATM   17  C   UNL     1      64.195   7.732   3.859  1.00  0.00     0.029 C 
HETATM   18  O   UNL     1      59.498   7.804   3.498  1.00  0.00    -0.274 OA
HETATM   19  C   UNL     1      60.747   8.345   1.550  1.00  0.00     0.117 C 
ENDBRANCH   1  11
TORSDOF 1
ENDMDL
MODEL 8
REMARK VINA RESULT:      -5.0      2.986      4.254
REMARK  1 active torsions:
REMARK  status: ('A' for Active; 'I' for Inactive)
REMARK    1  A    between atoms: C_1  and  C_8 
REMARK       I    between atoms: N_4  and  C_6 
ROOT
HETATM    1  C   UNL     1      63.455   7.647   4.054  1.00  0.00    -0.026 A 
HETATM    2  C   UNL     1      63.730   7.954   5.371  1.00  0.00     0.096 A 
HETATM    3  N   UNL     1      63.338   9.250   5.603  1.00  0.00    -0.365 N 
HETATM    4  C   UNL     1      62.881   8.825   3.468  1.00  0.00    -0.001 A 
HETATM    5  C   UNL     1      62.794   9.795   4.462  1.00  0.00     0.042 A 
HETATM    6  C   UNL     1      62.409   9.129   2.174  1.00  0.00     0.014 A 
HETATM    7  C   UNL     1      62.237  11.057   4.226  1.00  0.00     0.030 A 
HETATM    8  C   UNL     1      61.844  10.380   1.924  1.00  0.00     0.001 A 
HETATM    9  C   UNL     1      61.757  11.328   2.938  1.00  0.00     0.002 A 
HETATM   10  H   UNL     1      63.432   9.721   6.462  1.00  0.00     0.165 HD
ENDROOT
BRANCH   1  11
HETATM   11  C   UNL     1      63.652   6.368   3.298  1.00  0.00     0.024 C 
HETATM   12  C   UNL     1      65.051   5.755   3.357  1.00  0.00     0.029 C 
HETATM   13  C   UNL     1      65.108   4.557   2.403  1.00  0.00     0.126 C 
HETATM   14  N   UNL     1      64.042   3.589   2.681  1.00  0.00    -0.352 N 
HETATM   15  C   UNL     1      62.685   4.130   2.761  1.00  0.00     0.126 C 
HETATM   16  C   UNL     1      64.329   2.235   2.558  1.00  0.00     0.215 C 
HETATM   17  C   UNL     1      62.628   5.305   3.726  1.00  0.00     0.029 C 
HETATM   18  O   UNL     1      65.462   1.810   2.328  1.00  0.00    -0.274 OA
HETATM   19  C   UNL     1      63.181   1.270   2.723  1.00  0.00     0.117 C 
ENDBRANCH   1  11
TORSDOF 1
ENDMDL
MODEL 9
REMARK VINA RESULT:      -4.9      2.687      6.714
REMARK  1 active torsions:
REMARK  status: ('A' for Active; 'I' for Inactive)
REMARK    1  A    between atoms: C_1  and  C_8 
REMARK       I    between atoms: N_4  and  C_6 
ROOT
HETATM    1  C   UNL     1      64.519   5.548   5.635  1.00  0.00    -0.026 A 
HETATM    2  C   UNL     1      63.713   4.510   6.055  1.00  0.00     0.096 A 
HETATM    3  N   UNL     1      64.430   3.736   6.934  1.00  0.00    -0.365 N 
HETATM    4  C   UNL     1      65.786   5.376   6.288  1.00  0.00    -0.001 A 
HETATM    5  C   UNL     1      65.691   4.259   7.112  1.00  0.00     0.042 A 
HETATM    6  C   UNL     1      66.995   6.100   6.256  1.00  0.00     0.014 A 
HETATM    7  C   UNL     1      66.750   3.839   7.924  1.00  0.00     0.030 A 
HETATM    8  C   UNL     1      68.059   5.701   7.066  1.00  0.00     0.001 A 
HETATM    9  C   UNL     1      67.934   4.587   7.890  1.00  0.00     0.002 A 
HETATM   10  H   UNL     1      64.091   2.924   7.376  1.00  0.00     0.165 HD
ENDROOT
BRANCH   1  11
HETATM   11  C   UNL     1      64.222   6.689   4.708  1.00  0.00     0.024 C 
HETATM   12  C   UNL     1      63.226   6.406   3.585  1.00  0.00     0.029 C 
HETATM   13  C   UNL     1      63.173   7.621   2.652  1.00  0.00     0.126 C 
HETATM   14  N   UNL     1      62.882   8.858   3.384  1.00  0.00    -0.352 N 
HETATM   15  C   UNL     1      63.722   9.129   4.551  1.00  0.00     0.126 C 
HETATM   16  C   UNL     1      62.064   9.806   2.783  1.00  0.00     0.215 C 
HETATM   17  C   UNL     1      63.754   7.929   5.485  1.00  0.00     0.029 C 
HETATM   18  O   UNL     1      61.490   9.611   1.711  1.00  0.00    -0.274 OA
HETATM   19  C   UNL     1      61.887  11.120   3.503  1.00  0.00     0.117 C 
ENDBRANCH   1  11
TORSDOF 1
ENDMDL
