MODEL 1
REMARK VINA RESULT:      -6.1      0.000      0.000
REMARK  1 active torsions:
REMARK  status: ('A' for Active; 'I' for Inactive)
REMARK    1  A    between atoms: C_9  and  O_12 
ROOT
HETATM    1  C   UNL     1      64.008   8.814   4.696  1.00  0.00     0.092 A 
HETATM    2  C   UNL     1      64.002   7.777   3.757  1.00  0.00     0.044 A 
HETATM    3  C   UNL     1      65.097   6.791   3.769  1.00  0.00     0.165 C 
HETATM    4  C   UNL     1      63.022   9.816   4.638  1.00  0.00     0.005 A 
HETATM    5  O   UNL     1      64.948   8.910   5.694  1.00  0.00    -0.339 OA
HETATM    6  C   UNL     1      65.693   7.709   5.977  1.00  0.00     0.067 C 
HETATM    7  C   UNL     1      66.240   7.098   4.689  1.00  0.00     0.121 C 
HETATM    8  C   UNL     1      62.992   7.683   2.797  1.00  0.00     0.021 A 
HETATM    9  C   UNL     1      62.021   9.713   3.661  1.00  0.00     0.074 A 
HETATM   10  O   UNL     1      65.089   5.817   3.023  1.00  0.00    -0.292 OA
HETATM   11  C   UNL     1      61.994   8.652   2.753  1.00  0.00     0.038 A 
HETATM   12  C   UNL     1      63.056  10.965   5.610  1.00  0.00     0.054 C 
HETATM   13  C   UNL     1      64.829   6.723   6.785  1.00  0.00     0.046 C 
HETATM   14  C   UNL     1      66.878   8.132   6.858  1.00  0.00     0.046 C 
ENDROOT
BRANCH   9  15
HETATM   15  O   UNL     1      61.049  10.672   3.601  1.00  0.00    -0.360 OA
HETATM   16  H   UNL     1      61.009  11.253   2.867  1.00  0.00     0.217 HD
ENDBRANCH   9  15
TORSDOF 1
ENDMDL
MODEL 2
REMARK VINA RESULT:      -5.7      1.962      3.514
REMARK  1 active torsions:
REMARK  status: ('A' for Active; 'I' for Inactive)
REMARK    1  A    between atoms: C_9  and  O_12 
ROOT
HETATM    1  C   UNL     1      62.502   8.437   3.420  1.00  0.00     0.092 A 
HETATM    2  C   UNL     1      62.772   8.677   4.772  1.00  0.00     0.044 A 
HETATM    3  C   UNL     1      63.084   7.540   5.655  1.00  0.00     0.165 C 
HETATM    4  C   UNL     1      62.111   9.499   2.585  1.00  0.00     0.005 A 
HETATM    5  O   UNL     1      62.601   7.189   2.852  1.00  0.00    -0.339 OA
HETATM    6  C   UNL     1      63.355   6.213   3.596  1.00  0.00     0.067 C 
HETATM    7  C   UNL     1      62.902   6.179   5.054  1.00  0.00     0.121 C 
HETATM    8  C   UNL     1      62.721   9.971   5.295  1.00  0.00     0.021 A 
HETATM    9  C   UNL     1      62.054  10.791   3.128  1.00  0.00     0.074 A 
HETATM   10  O   UNL     1      63.411   7.710   6.825  1.00  0.00    -0.292 OA
HETATM   11  C   UNL     1      62.365  11.032   4.467  1.00  0.00     0.038 A 
HETATM   12  C   UNL     1      61.765   9.237   1.143  1.00  0.00     0.054 C 
HETATM   13  C   UNL     1      64.865   6.480   3.447  1.00  0.00     0.046 C 
HETATM   14  C   UNL     1      63.051   4.850   2.958  1.00  0.00     0.046 C 
ENDROOT
BRANCH   9  15
HETATM   15  O   UNL     1      61.687  11.834   2.325  1.00  0.00    -0.360 OA
HETATM   16  H   UNL     1      61.478  11.682   1.425  1.00  0.00     0.217 HD
ENDBRANCH   9  15
TORSDOF 1
ENDMDL
MODEL 3
REMARK VINA RESULT:      -5.4      1.735      3.886
REMARK  1 active torsions:
REMARK  status: ('A' for Active; 'I' for Inactive)
REMARK    1  A    between atoms: C_9  and  O_12 
ROOT
HETATM    1  C   UNL     1      63.365   8.528   3.618  1.00  0.00     0.092 A 
HETATM    2  C   UNL     1      62.315   9.146   2.931  1.00  0.00     0.044 A 
HETATM    3  C   UNL     1      61.768   8.500   1.725  1.00  0.00     0.165 C 
HETATM    4  C   UNL     1      63.960   9.177   4.716  1.00  0.00     0.005 A 
HETATM    5  O   UNL     1      63.859   7.293   3.270  1.00  0.00    -0.339 OA
HETATM    6  C   UNL     1      63.015   6.492   2.422  1.00  0.00     0.067 C 
HETATM    7  C   UNL     1      62.523   7.305   1.226  1.00  0.00     0.121 C 
HETATM    8  C   UNL     1      61.801  10.373   3.356  1.00  0.00     0.021 A 
HETATM    9  C   UNL     1      63.440  10.414   5.124  1.00  0.00     0.074 A 
HETATM   10  O   UNL     1      60.792   8.959   1.140  1.00  0.00    -0.292 OA
HETATM   11  C   UNL     1      62.364  11.006   4.461  1.00  0.00     0.038 A 
HETATM   12  C   UNL     1      65.128   8.543   5.424  1.00  0.00     0.054 C 
HETATM   13  C   UNL     1      61.863   5.880   3.242  1.00  0.00     0.046 C 
HETATM   14  C   UNL     1      63.889   5.340   1.903  1.00  0.00     0.046 C 
ENDROOT
BRANCH   9  15
HETATM   15  O   UNL     1      64.001  11.050   6.196  1.00  0.00    -0.360 OA
HETATM   16  H   UNL     1      63.456  11.373   6.886  1.00  0.00     0.217 HD
ENDBRANCH   9  15
TORSDOF 1
ENDMDL
MODEL 4
REMARK VINA RESULT:      -5.2      1.605      5.219
REMARK  1 active torsions:
REMARK  status: ('A' for Active; 'I' for Inactive)
REMARK    1  A    between atoms: C_9  and  O_12 
ROOT
HETATM    1  C   UNL     1      63.283   7.886   3.146  1.00  0.00     0.092 A 
HETATM    2  C   UNL     1      63.124   9.042   3.919  1.00  0.00     0.044 A 
HETATM    3  C   UNL     1      62.139  10.055   3.501  1.00  0.00     0.165 C 
HETATM    4  C   UNL     1      64.284   6.955   3.478  1.00  0.00     0.005 A 
HETATM    5  O   UNL     1      62.497   7.607   2.053  1.00  0.00    -0.339 OA
HETATM    6  C   UNL     1      61.263   8.344   1.958  1.00  0.00     0.067 C 
HETATM    7  C   UNL     1      61.511   9.838   2.157  1.00  0.00     0.121 C 
HETATM    8  C   UNL     1      63.903   9.257   5.058  1.00  0.00     0.021 A 
HETATM    9  C   UNL     1      65.065   7.191   4.619  1.00  0.00     0.074 A 
HETATM   10  O   UNL     1      61.903  11.040   4.192  1.00  0.00    -0.292 OA
HETATM   11  C   UNL     1      64.874   8.324   5.411  1.00  0.00     0.038 A 
HETATM   12  C   UNL     1      64.498   5.738   2.617  1.00  0.00     0.054 C 
HETATM   13  C   UNL     1      60.224   7.775   2.943  1.00  0.00     0.046 C 
HETATM   14  C   UNL     1      60.735   8.123   0.533  1.00  0.00     0.046 C 
ENDROOT
BRANCH   9  15
HETATM   15  O   UNL     1      66.033   6.289   4.960  1.00  0.00    -0.360 OA
HETATM   16  H   UNL     1      66.502   6.387   5.765  1.00  0.00     0.217 HD
ENDBRANCH   9  15
TORSDOF 1
ENDMDL
MODEL 5
REMARK VINA RESULT:      -5.1      2.676      3.081
REMARK  1 active torsions:
REMARK  status: ('A' for Active; 'I' for Inactive)
REMARK    1  A    between atoms: C_9  and  O_12 
ROOT
HETATM    1  C   UNL     1      62.189   8.632   3.476  1.00  0.00     0.092 A 
HETATM    2  C   UNL     1      62.203   7.797   2.354  1.00  0.00     0.044 A 
HETATM    3  C   UNL     1      62.324   6.341   2.543  1.00  0.00     0.165 C 
HETATM    4  C   UNL     1      62.168  10.029   3.309  1.00  0.00     0.005 A 
HETATM    5  O   UNL     1      62.196   8.149   4.764  1.00  0.00    -0.339 OA
HETATM    6  C   UNL     1      61.833   6.764   4.921  1.00  0.00     0.067 C 
HETATM    7  C   UNL     1      62.612   5.888   3.943  1.00  0.00     0.121 C 
HETATM    8  C   UNL     1      62.132   8.327   1.063  1.00  0.00     0.021 A 
HETATM    9  C   UNL     1      62.108  10.545   2.007  1.00  0.00     0.074 A 
HETATM   10  O   UNL     1      62.254   5.564   1.596  1.00  0.00    -0.292 OA
HETATM   11  C   UNL     1      62.078   9.707   0.891  1.00  0.00     0.038 A 
HETATM   12  C   UNL     1      62.211  10.933   4.512  1.00  0.00     0.054 C 
HETATM   13  C   UNL     1      60.308   6.595   4.789  1.00  0.00     0.046 C 
HETATM   14  C   UNL     1      62.230   6.371   6.352  1.00  0.00     0.046 C 
ENDROOT
BRANCH   9  15
HETATM   15  O   UNL     1      62.074  11.900   1.830  1.00  0.00    -0.360 OA
HETATM   16  H   UNL     1      61.258  12.358   1.868  1.00  0.00     0.217 HD
ENDBRANCH   9  15
TORSDOF 1
ENDMDL
MODEL 6
REMARK VINA RESULT:      -4.9      1.848      4.962
REMARK  1 active torsions:
REMARK  status: ('A' for Active; 'I' for Inactive)
REMARK    1  A    between atoms: C_9  and  O_12 
ROOT
HETATM    1  C   UNL     1      64.585   6.932   3.882  1.00  0.00     0.092 A 
HETATM    2  C   UNL     1      65.162   7.928   4.677  1.00  0.00     0.044 A 
HETATM    3  C   UNL     1      64.328   9.053   5.136  1.00  0.00     0.165 C 
HETATM    4  C   UNL     1      65.388   5.903   3.358  1.00  0.00     0.005 A 
HETATM    5  O   UNL     1      63.245   6.905   3.577  1.00  0.00    -0.339 OA
HETATM    6  C   UNL     1      62.391   7.713   4.410  1.00  0.00     0.067 C 
HETATM    7  C   UNL     1      62.952   9.127   4.547  1.00  0.00     0.121 C 
HETATM    8  C   UNL     1      66.516   7.884   5.015  1.00  0.00     0.021 A 
HETATM    9  C   UNL     1      66.749   5.878   3.698  1.00  0.00     0.074 A 
HETATM   10  O   UNL     1      64.767   9.903   5.905  1.00  0.00    -0.292 OA
HETATM   11  C   UNL     1      67.311   6.850   4.527  1.00  0.00     0.038 A 
HETATM   12  C   UNL     1      64.784   4.860   2.456  1.00  0.00     0.054 C 
HETATM   13  C   UNL     1      62.169   7.026   5.771  1.00  0.00     0.046 C 
HETATM   14  C   UNL     1      61.035   7.793   3.694  1.00  0.00     0.046 C 
ENDROOT
BRANCH   9  15
HETATM   15  O   UNL     1      67.538   4.876   3.206  1.00  0.00    -0.360 OA
HETATM   16  H   UNL     1      67.655   4.087   3.698  1.00  0.00     0.217 HD
ENDBRANCH   9  15
TORSDOF 1
ENDMDL
MODEL 7
REMARK VINA RESULT:      -4.8      2.185      3.711
REMARK  1 active torsions:
REMARK  status: ('A' for Active; 'I' for Inactive)
REMARK    1  A    between atoms: C_9  and  O_12 
ROOT
HETATM    1  C   UNL     1      61.856   7.985   4.013  1.00  0.00     0.092 A 
HETATM    2  C   UNL     1      62.654   8.332   5.109  1.00  0.00     0.044 A 
HETATM    3  C   UNL     1      63.107   7.275   6.031  1.00  0.00     0.165 C 
HETATM    4  C   UNL     1      61.338   8.992   3.179  1.00  0.00     0.005 A 
HETATM    5  O   UNL     1      61.543   6.683   3.702  1.00  0.00    -0.339 OA
HETATM    6  C   UNL     1      62.371   5.672   4.310  1.00  0.00     0.067 C 
HETATM    7  C   UNL     1      62.510   5.918   5.810  1.00  0.00     0.121 C 
HETATM    8  C   UNL     1      63.000   9.663   5.354  1.00  0.00     0.021 A 
HETATM    9  C   UNL     1      61.686  10.325   3.444  1.00  0.00     0.074 A 
HETATM   10  O   UNL     1      63.878   7.518   6.954  1.00  0.00    -0.292 OA
HETATM   11  C   UNL     1      62.517  10.662   4.513  1.00  0.00     0.038 A 
HETATM   12  C   UNL     1      60.433   8.629   2.031  1.00  0.00     0.054 C 
HETATM   13  C   UNL     1      63.731   5.594   3.590  1.00  0.00     0.046 C 
HETATM   14  C   UNL     1      61.647   4.334   4.099  1.00  0.00     0.046 C 
ENDROOT
BRANCH   9  15
HETATM   15  O   UNL     1      61.200  11.312   2.634  1.00  0.00    -0.360 OA
HETATM   16  H   UNL     1      60.988  11.124   1.741  1.00  0.00     0.217 HD
ENDBRANCH   9  15
TORSDOF 1
ENDMDL
MODEL 8
REMARK VINA RESULT:      -4.7      1.510      3.034
REMARK  1 active torsions:
REMARK  status: ('A' for Active; 'I' for Inactive)
REMARK    1  A    between atoms: C_9  and  O_12 
ROOT
HETATM    1  C   UNL     1      63.189   7.191   4.455  1.00  0.00     0.092 A 
HETATM    2  C   UNL     1      63.848   8.327   4.938  1.00  0.00     0.044 A 
HETATM    3  C   UNL     1      65.097   8.163   5.701  1.00  0.00     0.165 C 
HETATM    4  C   UNL     1      61.948   7.325   3.806  1.00  0.00     0.005 A 
HETATM    5  O   UNL     1      63.700   5.922   4.585  1.00  0.00    -0.339 OA
HETATM    6  C   UNL     1      65.106   5.836   4.890  1.00  0.00     0.067 C 
HETATM    7  C   UNL     1      65.462   6.753   6.058  1.00  0.00     0.121 C 
HETATM    8  C   UNL     1      63.323   9.605   4.730  1.00  0.00     0.021 A 
HETATM    9  C   UNL     1      61.429   8.614   3.614  1.00  0.00     0.074 A 
HETATM   10  O   UNL     1      65.754   9.131   6.069  1.00  0.00    -0.292 OA
HETATM   11  C   UNL     1      62.111   9.748   4.060  1.00  0.00     0.038 A 
HETATM   12  C   UNL     1      61.207   6.102   3.334  1.00  0.00     0.054 C 
HETATM   13  C   UNL     1      65.943   6.122   3.629  1.00  0.00     0.046 C 
HETATM   14  C   UNL     1      65.370   4.383   5.312  1.00  0.00     0.046 C 
ENDROOT
BRANCH   9  15
HETATM   15  O   UNL     1      60.231   8.760   2.974  1.00  0.00    -0.360 OA
HETATM   16  H   UNL     1      60.026   8.224   2.233  1.00  0.00     0.217 HD
ENDBRANCH   9  15
TORSDOF 1
ENDMDL
MODEL 9
REMARK VINA RESULT:      -4.6      3.342      6.020
REMARK  1 active torsions:
REMARK  status: ('A' for Active; 'I' for Inactive)
REMARK    1  A    between atoms: C_9  and  O_12 
ROOT
HETATM    1  C   UNL     1      66.757   5.444   6.602  1.00  0.00     0.092 A 
HETATM    2  C   UNL     1      67.240   4.660   5.548  1.00  0.00     0.044 A 
HETATM    3  C   UNL     1      67.007   5.098   4.161  1.00  0.00     0.165 C 
HETATM    4  C   UNL     1      66.888   4.993   7.928  1.00  0.00     0.005 A 
HETATM    5  O   UNL     1      66.145   6.659   6.406  1.00  0.00    -0.339 OA
HETATM    6  C   UNL     1      66.359   7.274   5.120  1.00  0.00     0.067 C 
HETATM    7  C   UNL     1      66.095   6.276   3.994  1.00  0.00     0.121 C 
HETATM    8  C   UNL     1      67.912   3.460   5.795  1.00  0.00     0.021 A 
HETATM    9  C   UNL     1      67.556   3.781   8.158  1.00  0.00     0.074 A 
HETATM   10  O   UNL     1      67.486   4.490   3.209  1.00  0.00    -0.292 OA
HETATM   11  C   UNL     1      68.074   3.023   7.107  1.00  0.00     0.038 A 
HETATM   12  C   UNL     1      66.320   5.805   9.061  1.00  0.00     0.054 C 
HETATM   13  C   UNL     1      67.768   7.891   5.052  1.00  0.00     0.046 C 
HETATM   14  C   UNL     1      65.337   8.415   5.010  1.00  0.00     0.046 C 
ENDROOT
BRANCH   9  15
HETATM   15  O   UNL     1      67.702   3.336   9.442  1.00  0.00    -0.360 OA
HETATM   16  H   UNL     1      67.092   2.719   9.797  1.00  0.00     0.217 HD
ENDBRANCH   9  15
TORSDOF 1
ENDMDL
