MODEL 1
REMARK VINA RESULT:      -5.6      0.000      0.000
REMARK  1 active torsions:
REMARK  status: ('A' for Active; 'I' for Inactive)
REMARK    1  A    between atoms: C_1  and  C_7 
ROOT
HETATM    1  C   UNL     1      64.395   7.673   4.402  1.00  0.00    -0.026 A 
HETATM    2  C   UNL     1      64.095   6.925   3.282  1.00  0.00     0.096 A 
HETATM    3  N   UNL     1      63.150   7.604   2.552  1.00  0.00    -0.365 N 
HETATM    4  C   UNL     1      63.575   8.848   4.342  1.00  0.00    -0.001 A 
HETATM    5  C   UNL     1      62.833   8.791   3.167  1.00  0.00     0.042 A 
HETATM    6  C   UNL     1      63.427   9.969   5.184  1.00  0.00     0.014 A 
HETATM    7  C   UNL     1      61.948   9.811   2.788  1.00  0.00     0.030 A 
HETATM    8  C   UNL     1      62.555  10.998   4.820  1.00  0.00     0.001 A 
HETATM    9  C   UNL     1      61.832  10.919   3.634  1.00  0.00     0.002 A 
HETATM   10  H   UNL     1      62.756   7.284   1.708  1.00  0.00     0.165 HD
ENDROOT
BRANCH   1  11
HETATM   11  C   UNL     1      65.370   7.408   5.511  1.00  0.00     0.024 C 
HETATM   12  C   UNL     1      64.847   6.628   6.715  1.00  0.00     0.037 C 
HETATM   13  C   UNL     1      65.927   6.627   7.802  1.00  0.00     0.233 C 
HETATM   14  N   UNL     1      67.198   6.070   7.330  1.00  0.00    -0.075 N 
HETATM   15  C   UNL     1      67.688   6.719   6.114  1.00  0.00     0.233 C 
HETATM   16  H   UNL     1      67.896   6.183   8.064  1.00  0.00     0.277 HD
HETATM   17  H   UNL     1      67.036   5.087   7.107  1.00  0.00     0.277 HD
HETATM   18  C   UNL     1      66.643   6.716   5.004  1.00  0.00     0.037 C 
ENDBRANCH   1  11
TORSDOF 1
ENDMDL
MODEL 2
REMARK VINA RESULT:      -5.5      1.467      2.723
REMARK  1 active torsions:
REMARK  status: ('A' for Active; 'I' for Inactive)
REMARK    1  A    between atoms: C_1  and  C_7 
ROOT
HETATM    1  C   UNL     1      63.575   8.722   4.650  1.00  0.00    -0.026 A 
HETATM    2  C   UNL     1      63.124   9.924   5.159  1.00  0.00     0.096 A 
HETATM    3  N   UNL     1      62.319  10.515   4.216  1.00  0.00    -0.365 N 
HETATM    4  C   UNL     1      63.022   8.603   3.331  1.00  0.00    -0.001 A 
HETATM    5  C   UNL     1      62.223   9.718   3.100  1.00  0.00     0.042 A 
HETATM    6  C   UNL     1      63.119   7.618   2.327  1.00  0.00     0.014 A 
HETATM    7  C   UNL     1      61.507   9.895   1.907  1.00  0.00     0.030 A 
HETATM    8  C   UNL     1      62.408   7.774   1.134  1.00  0.00     0.001 A 
HETATM    9  C   UNL     1      61.609   8.895   0.934  1.00  0.00     0.002 A 
HETATM   10  H   UNL     1      61.874  11.387   4.324  1.00  0.00     0.165 HD
ENDROOT
BRANCH   1  11
HETATM   11  C   UNL     1      64.456   7.678   5.269  1.00  0.00     0.024 C 
HETATM   12  C   UNL     1      65.788   8.155   5.844  1.00  0.00     0.037 C 
HETATM   13  C   UNL     1      66.609   6.927   6.252  1.00  0.00     0.233 C 
HETATM   14  N   UNL     1      65.902   6.072   7.209  1.00  0.00    -0.075 N 
HETATM   15  C   UNL     1      64.572   5.673   6.744  1.00  0.00     0.233 C 
HETATM   16  H   UNL     1      66.457   5.231   7.368  1.00  0.00     0.277 HD
HETATM   17  H   UNL     1      65.776   6.611   8.066  1.00  0.00     0.277 HD
HETATM   18  C   UNL     1      63.721   6.876   6.352  1.00  0.00     0.037 C 
ENDBRANCH   1  11
TORSDOF 1
ENDMDL
MODEL 3
REMARK VINA RESULT:      -5.4      1.656      2.768
REMARK  1 active torsions:
REMARK  status: ('A' for Active; 'I' for Inactive)
REMARK    1  A    between atoms: C_1  and  C_7 
ROOT
HETATM    1  C   UNL     1      63.127   9.115   4.423  1.00  0.00    -0.026 A 
HETATM    2  C   UNL     1      62.477  10.326   4.551  1.00  0.00     0.096 A 
HETATM    3  N   UNL     1      61.774  10.561   3.394  1.00  0.00    -0.365 N 
HETATM    4  C   UNL     1      62.807   8.614   3.117  1.00  0.00    -0.001 A 
HETATM    5  C   UNL     1      61.942   9.520   2.513  1.00  0.00     0.042 A 
HETATM    6  C   UNL     1      63.165   7.445   2.414  1.00  0.00     0.014 A 
HETATM    7  C   UNL     1      61.409   9.309   1.232  1.00  0.00     0.030 A 
HETATM    8  C   UNL     1      62.640   7.216   1.140  1.00  0.00     0.001 A 
HETATM    9  C   UNL     1      61.769   8.135   0.563  1.00  0.00     0.002 A 
HETATM   10  H   UNL     1      61.228  11.362   3.222  1.00  0.00     0.165 HD
ENDROOT
BRANCH   1  11
HETATM   11  C   UNL     1      64.004   8.379   5.392  1.00  0.00     0.024 C 
HETATM   12  C   UNL     1      63.598   6.948   5.737  1.00  0.00     0.037 C 
HETATM   13  C   UNL     1      64.500   6.445   6.869  1.00  0.00     0.233 C 
HETATM   14  N   UNL     1      65.924   6.517   6.526  1.00  0.00    -0.075 N 
HETATM   15  C   UNL     1      66.338   7.851   6.088  1.00  0.00     0.233 C 
HETATM   16  H   UNL     1      66.470   6.259   7.347  1.00  0.00     0.277 HD
HETATM   17  H   UNL     1      66.083   5.877   5.747  1.00  0.00     0.277 HD
HETATM   18  C   UNL     1      65.472   8.370   4.945  1.00  0.00     0.037 C 
ENDBRANCH   1  11
TORSDOF 1
ENDMDL
MODEL 4
REMARK VINA RESULT:      -5.4      1.564      5.569
REMARK  1 active torsions:
REMARK  status: ('A' for Active; 'I' for Inactive)
REMARK    1  A    between atoms: C_1  and  C_7 
ROOT
HETATM    1  C   UNL     1      63.747   8.071   5.035  1.00  0.00    -0.026 A 
HETATM    2  C   UNL     1      63.088   7.499   6.105  1.00  0.00     0.096 A 
HETATM    3  N   UNL     1      64.017   6.865   6.893  1.00  0.00    -0.365 N 
HETATM    4  C   UNL     1      65.136   7.745   5.188  1.00  0.00    -0.001 A 
HETATM    5  C   UNL     1      65.277   7.021   6.367  1.00  0.00     0.042 A 
HETATM    6  C   UNL     1      66.287   8.036   4.428  1.00  0.00     0.014 A 
HETATM    7  C   UNL     1      66.524   6.574   6.829  1.00  0.00     0.030 A 
HETATM    8  C   UNL     1      67.538   7.604   4.876  1.00  0.00     0.001 A 
HETATM    9  C   UNL     1      67.651   6.889   6.063  1.00  0.00     0.002 A 
HETATM   10  H   UNL     1      63.809   6.371   7.719  1.00  0.00     0.165 HD
ENDROOT
BRANCH   1  11
HETATM   11  C   UNL     1      63.216   8.891   3.896  1.00  0.00     0.024 C 
HETATM   12  C   UNL     1      62.541   8.130   2.757  1.00  0.00     0.037 C 
HETATM   13  C   UNL     1      62.243   9.116   1.623  1.00  0.00     0.233 C 
HETATM   14  N   UNL     1      61.415  10.244   2.063  1.00  0.00    -0.075 N 
HETATM   15  C   UNL     1      61.972  10.942   3.222  1.00  0.00     0.233 C 
HETATM   16  H   UNL     1      61.332  10.906   1.292  1.00  0.00     0.277 HD
HETATM   17  H   UNL     1      60.508   9.867   2.340  1.00  0.00     0.277 HD
HETATM   18  C   UNL     1      62.259   9.989   4.378  1.00  0.00     0.037 C 
ENDBRANCH   1  11
TORSDOF 1
ENDMDL
MODEL 5
REMARK VINA RESULT:      -5.3      2.015      5.719
REMARK  1 active torsions:
REMARK  status: ('A' for Active; 'I' for Inactive)
REMARK    1  A    between atoms: C_1  and  C_7 
ROOT
HETATM    1  C   UNL     1      63.328   8.388   4.039  1.00  0.00    -0.026 A 
HETATM    2  C   UNL     1      63.444   9.372   4.999  1.00  0.00     0.096 A 
HETATM    3  N   UNL     1      64.650   9.210   5.637  1.00  0.00    -0.365 N 
HETATM    4  C   UNL     1      64.519   7.592   4.121  1.00  0.00    -0.001 A 
HETATM    5  C   UNL     1      65.334   8.144   5.103  1.00  0.00     0.042 A 
HETATM    6  C   UNL     1      64.977   6.460   3.417  1.00  0.00     0.014 A 
HETATM    7  C   UNL     1      66.597   7.619   5.414  1.00  0.00     0.030 A 
HETATM    8  C   UNL     1      66.235   5.927   3.708  1.00  0.00     0.001 A 
HETATM    9  C   UNL     1      67.034   6.505   4.689  1.00  0.00     0.002 A 
HETATM   10  H   UNL     1      64.977   9.779   6.372  1.00  0.00     0.165 HD
ENDROOT
BRANCH   1  11
HETATM   11  C   UNL     1      62.229   8.122   3.052  1.00  0.00     0.024 C 
HETATM   12  C   UNL     1      60.826   7.929   3.621  1.00  0.00     0.037 C 
HETATM   13  C   UNL     1      59.896   7.487   2.486  1.00  0.00     0.233 C 
HETATM   14  N   UNL     1      59.882   8.438   1.371  1.00  0.00    -0.075 N 
HETATM   15  C   UNL     1      61.220   8.735   0.858  1.00  0.00     0.233 C 
HETATM   16  H   UNL     1      59.323   8.045   0.614  1.00  0.00     0.277 HD
HETATM   17  H   UNL     1      59.488   9.313   1.719  1.00  0.00     0.277 HD
HETATM   18  C   UNL     1      62.164   9.200   1.962  1.00  0.00     0.037 C 
ENDBRANCH   1  11
TORSDOF 1
ENDMDL
MODEL 6
REMARK VINA RESULT:      -5.0      2.611      3.450
REMARK  1 active torsions:
REMARK  status: ('A' for Active; 'I' for Inactive)
REMARK    1  A    between atoms: C_1  and  C_7 
ROOT
HETATM    1  C   UNL     1      63.162   7.780   4.364  1.00  0.00    -0.026 A 
HETATM    2  C   UNL     1      63.285   8.289   5.641  1.00  0.00     0.096 A 
HETATM    3  N   UNL     1      62.912   9.611   5.614  1.00  0.00    -0.365 N 
HETATM    4  C   UNL     1      62.708   8.859   3.534  1.00  0.00    -0.001 A 
HETATM    5  C   UNL     1      62.534   9.976   4.344  1.00  0.00     0.042 A 
HETATM    6  C   UNL     1      62.406   8.962   2.161  1.00  0.00     0.014 A 
HETATM    7  C   UNL     1      62.064  11.199   3.845  1.00  0.00     0.030 A 
HETATM    8  C   UNL     1      61.931  10.171   1.647  1.00  0.00     0.001 A 
HETATM    9  C   UNL     1      61.757  11.270   2.481  1.00  0.00     0.002 A 
HETATM   10  H   UNL     1      62.915  10.212   6.395  1.00  0.00     0.165 HD
ENDROOT
BRANCH   1  11
HETATM   11  C   UNL     1      63.415   6.395   3.845  1.00  0.00     0.024 C 
HETATM   12  C   UNL     1      64.671   6.197   3.000  1.00  0.00     0.037 C 
HETATM   13  C   UNL     1      64.647   4.779   2.418  1.00  0.00     0.233 C 
HETATM   14  N   UNL     1      64.547   3.749   3.456  1.00  0.00    -0.075 N 
HETATM   15  C   UNL     1      63.414   3.956   4.358  1.00  0.00     0.233 C 
HETATM   16  H   UNL     1      64.442   2.840   3.004  1.00  0.00     0.277 HD
HETATM   17  H   UNL     1      65.397   3.797   4.018  1.00  0.00     0.277 HD
HETATM   18  C   UNL     1      63.421   5.353   4.972  1.00  0.00     0.037 C 
ENDBRANCH   1  11
TORSDOF 1
ENDMDL
MODEL 7
REMARK VINA RESULT:      -4.9      2.151      4.281
REMARK  1 active torsions:
REMARK  status: ('A' for Active; 'I' for Inactive)
REMARK    1  A    between atoms: C_1  and  C_7 
ROOT
HETATM    1  C   UNL     1      63.619   7.510   3.718  1.00  0.00    -0.026 A 
HETATM    2  C   UNL     1      64.265   7.319   4.922  1.00  0.00     0.096 A 
HETATM    3  N   UNL     1      64.115   8.457   5.677  1.00  0.00    -0.365 N 
HETATM    4  C   UNL     1      63.071   8.836   3.753  1.00  0.00    -0.001 A 
HETATM    5  C   UNL     1      63.370   9.388   4.994  1.00  0.00     0.042 A 
HETATM    6  C   UNL     1      62.319   9.597   2.835  1.00  0.00     0.014 A 
HETATM    7  C   UNL     1      62.947  10.673   5.366  1.00  0.00     0.030 A 
HETATM    8  C   UNL     1      61.884  10.876   3.190  1.00  0.00     0.001 A 
HETATM    9  C   UNL     1      62.190  11.400   4.442  1.00  0.00     0.002 A 
HETATM   10  H   UNL     1      64.488   8.585   6.579  1.00  0.00     0.165 HD
ENDROOT
BRANCH   1  11
HETATM   11  C   UNL     1      63.455   6.585   2.548  1.00  0.00     0.024 C 
HETATM   12  C   UNL     1      64.516   5.500   2.376  1.00  0.00     0.037 C 
HETATM   13  C   UNL     1      64.275   4.792   1.038  1.00  0.00     0.233 C 
HETATM   14  N   UNL     1      62.927   4.226   0.938  1.00  0.00    -0.075 N 
HETATM   15  C   UNL     1      61.874   5.209   1.199  1.00  0.00     0.233 C 
HETATM   16  H   UNL     1      62.799   3.855  -0.003  1.00  0.00     0.277 HD
HETATM   17  H   UNL     1      62.847   3.498   1.648  1.00  0.00     0.277 HD
HETATM   18  C   UNL     1      62.073   5.916   2.536  1.00  0.00     0.037 C 
ENDBRANCH   1  11
TORSDOF 1
ENDMDL
MODEL 8
REMARK VINA RESULT:      -4.6      3.610      5.211
REMARK  1 active torsions:
REMARK  status: ('A' for Active; 'I' for Inactive)
REMARK    1  A    between atoms: C_1  and  C_7 
ROOT
HETATM    1  C   UNL     1      60.583   8.191   2.576  1.00  0.00    -0.026 A 
HETATM    2  C   UNL     1      60.873   8.181   1.226  1.00  0.00     0.096 A 
HETATM    3  N   UNL     1      59.777   7.697   0.554  1.00  0.00    -0.365 N 
HETATM    4  C   UNL     1      59.253   7.670   2.713  1.00  0.00    -0.001 A 
HETATM    5  C   UNL     1      58.767   7.399   1.438  1.00  0.00     0.042 A 
HETATM    6  C   UNL     1      58.415   7.435   3.822  1.00  0.00     0.014 A 
HETATM    7  C   UNL     1      57.473   6.905   1.216  1.00  0.00     0.030 A 
HETATM    8  C   UNL     1      57.121   6.949   3.620  1.00  0.00     0.001 A 
HETATM    9  C   UNL     1      56.658   6.695   2.334  1.00  0.00     0.002 A 
HETATM   10  H   UNL     1      59.724   7.580  -0.422  1.00  0.00     0.165 HD
ENDROOT
BRANCH   1  11
HETATM   11  C   UNL     1      61.412   8.642   3.742  1.00  0.00     0.024 C 
HETATM   12  C   UNL     1      62.537   7.710   4.187  1.00  0.00     0.037 C 
HETATM   13  C   UNL     1      63.133   8.253   5.489  1.00  0.00     0.233 C 
HETATM   14  N   UNL     1      63.618   9.630   5.352  1.00  0.00    -0.075 N 
HETATM   15  C   UNL     1      62.601  10.543   4.828  1.00  0.00     0.233 C 
HETATM   16  H   UNL     1      63.914   9.964   6.269  1.00  0.00     0.277 HD
HETATM   17  H   UNL     1      64.390   9.618   4.685  1.00  0.00     0.277 HD
HETATM   18  C   UNL     1      62.004  10.040   3.518  1.00  0.00     0.037 C 
ENDBRANCH   1  11
TORSDOF 1
ENDMDL
MODEL 9
REMARK VINA RESULT:      -4.5      2.889      3.743
REMARK  1 active torsions:
REMARK  status: ('A' for Active; 'I' for Inactive)
REMARK    1  A    between atoms: C_1  and  C_7 
ROOT
HETATM    1  C   UNL     1      62.344   7.977   2.199  1.00  0.00    -0.026 A 
HETATM    2  C   UNL     1      61.715   8.614   1.149  1.00  0.00     0.096 A 
HETATM    3  N   UNL     1      61.468   9.914   1.521  1.00  0.00    -0.365 N 
HETATM    4  C   UNL     1      62.462   8.943   3.254  1.00  0.00    -0.001 A 
HETATM    5  C   UNL     1      61.936  10.145   2.792  1.00  0.00     0.042 A 
HETATM    6  C   UNL     1      63.002   8.894   4.555  1.00  0.00     0.014 A 
HETATM    7  C   UNL     1      61.928  11.310   3.573  1.00  0.00     0.030 A 
HETATM    8  C   UNL     1      63.007  10.045   5.345  1.00  0.00     0.001 A 
HETATM    9  C   UNL     1      62.483  11.237   4.855  1.00  0.00     0.002 A 
HETATM   10  H   UNL     1      61.021  10.585   0.955  1.00  0.00     0.165 HD
ENDROOT
BRANCH   1  11
HETATM   11  C   UNL     1      62.850   6.569   2.315  1.00  0.00     0.024 C 
HETATM   12  C   UNL     1      64.297   6.395   2.771  1.00  0.00     0.037 C 
HETATM   13  C   UNL     1      64.672   4.914   2.644  1.00  0.00     0.233 C 
HETATM   14  N   UNL     1      63.774   4.041   3.405  1.00  0.00    -0.075 N 
HETATM   15  C   UNL     1      62.363   4.247   3.075  1.00  0.00     0.233 C 
HETATM   16  H   UNL     1      64.017   3.071   3.205  1.00  0.00     0.277 HD
HETATM   17  H   UNL     1      63.892   4.266   4.393  1.00  0.00     0.277 HD
HETATM   18  C   UNL     1      61.952   5.709   3.214  1.00  0.00     0.037 C 
ENDBRANCH   1  11
TORSDOF 1
ENDMDL
