MODEL 1
REMARK VINA RESULT:      -5.7      0.000      0.000
REMARK  1 active torsions:
REMARK  status: ('A' for Active; 'I' for Inactive)
REMARK    1  A    between atoms: C_1  and  N_5 
ROOT
HETATM    1  C   UNL     1      64.248   7.590   4.338  1.00  0.00     0.044 A 
HETATM    2  C   UNL     1      63.479   8.782   4.172  1.00  0.00     0.017 A 
HETATM    3  N   UNL     1      62.661   7.970   2.035  1.00  0.00    -0.359 N 
ATOM      4  HN  UNL     1      62.088   8.102   1.202  1.00  0.00     0.166 HD
HETATM    5  C   UNL     1      62.697   8.903   2.994  1.00  0.00     0.044 A 
HETATM    6  C   UNL     1      64.195   6.638   3.305  1.00  0.00     0.054 A 
HETATM    7  C   UNL     1      63.394   6.854   2.194  1.00  0.00     0.007 A 
HETATM    8  C   UNL     1      63.395   9.835   5.121  1.00  0.00     0.016 A 
HETATM    9  C   UNL     1      61.901  10.023   2.808  1.00  0.00     0.030 A 
HETATM   10  C   UNL     1      63.279   5.819   1.116  1.00  0.00     0.068 C 
HETATM   11  C   UNL     1      62.609  10.968   4.898  1.00  0.00     0.001 A 
HETATM   12  C   UNL     1      61.853  11.059   3.739  1.00  0.00     0.002 A 
ENDROOT
BRANCH   1  13
HETATM   13  N   UNL     1      64.967   7.320   5.524  1.00  0.00    -0.377 N 
HETATM   14  C   UNL     1      64.910   5.935   6.048  1.00  0.00     0.150 C 
HETATM   15  C   UNL     1      65.430   5.882   7.499  1.00  0.00     0.252 C 
HETATM   16  N   UNL     1      66.797   6.426   7.650  1.00  0.00    -0.072 N 
HETATM   17  C   UNL     1      66.827   7.795   7.085  1.00  0.00     0.252 C 
HETATM   18  H   UNL     1      67.047   6.456   8.637  1.00  0.00     0.277 HD
HETATM   19  H   UNL     1      67.464   5.831   7.157  1.00  0.00     0.277 HD
HETATM   20  C   UNL     1      66.332   7.884   5.615  1.00  0.00     0.150 C 
ENDBRANCH   1  13
TORSDOF 1
ENDMDL
MODEL 2
REMARK VINA RESULT:      -5.6      1.147      3.403
REMARK  1 active torsions:
REMARK  status: ('A' for Active; 'I' for Inactive)
REMARK    1  A    between atoms: C_1  and  N_5 
ROOT
HETATM    1  C   UNL     1      63.597   8.296   4.428  1.00  0.00     0.044 A 
HETATM    2  C   UNL     1      63.220   7.885   3.113  1.00  0.00     0.017 A 
HETATM    3  N   UNL     1      62.070   9.995   2.771  1.00  0.00    -0.359 N 
ATOM      4  HN  UNL     1      61.519  10.614   2.177  1.00  0.00     0.166 HD
HETATM    5  C   UNL     1      62.460   8.793   2.331  1.00  0.00     0.044 A 
HETATM    6  C   UNL     1      63.159   9.559   4.861  1.00  0.00     0.054 A 
HETATM    7  C   UNL     1      62.420  10.371   4.014  1.00  0.00     0.007 A 
HETATM    8  C   UNL     1      63.593   6.657   2.505  1.00  0.00     0.016 A 
HETATM    9  C   UNL     1      62.107   8.457   1.034  1.00  0.00     0.030 A 
HETATM   10  C   UNL     1      62.002  11.746   4.440  1.00  0.00     0.068 C 
HETATM   11  C   UNL     1      63.200   6.327   1.205  1.00  0.00     0.001 A 
HETATM   12  C   UNL     1      62.459   7.234   0.464  1.00  0.00     0.002 A 
ENDROOT
BRANCH   1  13
HETATM   13  N   UNL     1      64.450   7.516   5.241  1.00  0.00    -0.377 N 
HETATM   14  C   UNL     1      65.686   8.165   5.739  1.00  0.00     0.150 C 
HETATM   15  C   UNL     1      66.664   7.111   6.297  1.00  0.00     0.252 C 
HETATM   16  N   UNL     1      66.072   6.266   7.356  1.00  0.00    -0.072 N 
HETATM   17  C   UNL     1      64.822   5.663   6.838  1.00  0.00     0.252 C 
HETATM   18  H   UNL     1      66.727   5.529   7.614  1.00  0.00     0.277 HD
HETATM   19  H   UNL     1      65.869   6.833   8.180  1.00  0.00     0.277 HD
HETATM   20  C   UNL     1      63.801   6.697   6.289  1.00  0.00     0.150 C 
ENDBRANCH   1  13
TORSDOF 1
ENDMDL
MODEL 3
REMARK VINA RESULT:      -5.1      1.995      5.337
REMARK  1 active torsions:
REMARK  status: ('A' for Active; 'I' for Inactive)
REMARK    1  A    between atoms: C_1  and  N_5 
ROOT
HETATM    1  C   UNL     1      62.682   7.802   4.731  1.00  0.00     0.044 A 
HETATM    2  C   UNL     1      63.948   7.611   5.363  1.00  0.00     0.017 A 
HETATM    3  N   UNL     1      63.078   5.676   6.543  1.00  0.00    -0.359 N 
ATOM      4  HN  UNL     1      63.217   4.905   7.197  1.00  0.00     0.166 HD
HETATM    5  C   UNL     1      64.079   6.516   6.257  1.00  0.00     0.044 A 
HETATM    6  C   UNL     1      61.650   6.908   5.066  1.00  0.00     0.054 A 
HETATM    7  C   UNL     1      61.886   5.868   5.952  1.00  0.00     0.007 A 
HETATM    8  C   UNL     1      65.104   8.401   5.127  1.00  0.00     0.016 A 
HETATM    9  C   UNL     1      65.301   6.265   6.862  1.00  0.00     0.030 A 
HETATM   10  C   UNL     1      60.814   4.869   6.267  1.00  0.00     0.068 C 
HETATM   11  C   UNL     1      66.317   8.146   5.771  1.00  0.00     0.001 A 
HETATM   12  C   UNL     1      66.417   7.069   6.638  1.00  0.00     0.002 A 
ENDROOT
BRANCH   1  13
HETATM   13  N   UNL     1      62.480   8.789   3.739  1.00  0.00    -0.377 N 
HETATM   14  C   UNL     1      62.010   8.326   2.412  1.00  0.00     0.150 C 
HETATM   15  C   UNL     1      62.178   9.440   1.359  1.00  0.00     0.252 C 
HETATM   16  N   UNL     1      61.497  10.700   1.727  1.00  0.00    -0.072 N 
HETATM   17  C   UNL     1      61.962  11.114   3.071  1.00  0.00     0.252 C 
HETATM   18  H   UNL     1      61.724  11.424   1.046  1.00  0.00     0.277 HD
HETATM   19  H   UNL     1      60.486  10.559   1.736  1.00  0.00     0.277 HD
HETATM   20  C   UNL     1      61.787  10.025   4.165  1.00  0.00     0.150 C 
ENDBRANCH   1  13
TORSDOF 1
ENDMDL
MODEL 4
REMARK VINA RESULT:      -5.0      1.490      4.653
REMARK  1 active torsions:
REMARK  status: ('A' for Active; 'I' for Inactive)
REMARK    1  A    between atoms: C_1  and  N_5 
ROOT
HETATM    1  C   UNL     1      63.333   7.216   3.614  1.00  0.00     0.044 A 
HETATM    2  C   UNL     1      62.935   8.569   3.839  1.00  0.00     0.017 A 
HETATM    3  N   UNL     1      64.091   8.565   5.974  1.00  0.00    -0.359 N 
ATOM      4  HN  UNL     1      64.368   9.048   6.828  1.00  0.00     0.166 HD
HETATM    5  C   UNL     1      63.359   9.189   5.043  1.00  0.00     0.044 A 
HETATM    6  C   UNL     1      64.089   6.589   4.618  1.00  0.00     0.054 A 
HETATM    7  C   UNL     1      64.453   7.288   5.759  1.00  0.00     0.007 A 
HETATM    8  C   UNL     1      62.192   9.362   2.925  1.00  0.00     0.016 A 
HETATM    9  C   UNL     1      63.034  10.514   5.287  1.00  0.00     0.030 A 
HETATM   10  C   UNL     1      65.315   6.652   6.808  1.00  0.00     0.068 C 
HETATM   11  C   UNL     1      61.850  10.688   3.206  1.00  0.00     0.001 A 
HETATM   12  C   UNL     1      62.279  11.268   4.389  1.00  0.00     0.002 A 
ENDROOT
BRANCH   1  13
HETATM   13  N   UNL     1      63.062   6.548   2.398  1.00  0.00    -0.377 N 
HETATM   14  C   UNL     1      64.081   5.585   1.916  1.00  0.00     0.150 C 
HETATM   15  C   UNL     1      63.822   5.215   0.442  1.00  0.00     0.252 C 
HETATM   16  N   UNL     1      62.465   4.679   0.203  1.00  0.00    -0.072 N 
HETATM   17  C   UNL     1      61.474   5.647   0.728  1.00  0.00     0.252 C 
HETATM   18  H   UNL     1      62.319   4.547  -0.797  1.00  0.00     0.277 HD
HETATM   19  H   UNL     1      62.358   3.781   0.676  1.00  0.00     0.277 HD
HETATM   20  C   UNL     1      61.689   6.026   2.220  1.00  0.00     0.150 C 
ENDBRANCH   1  13
TORSDOF 1
ENDMDL
MODEL 5
REMARK VINA RESULT:      -5.0      1.890      3.690
REMARK  1 active torsions:
REMARK  status: ('A' for Active; 'I' for Inactive)
REMARK    1  A    between atoms: C_1  and  N_5 
ROOT
HETATM    1  C   UNL     1      63.023   7.699   4.306  1.00  0.00     0.044 A 
HETATM    2  C   UNL     1      62.692   7.930   2.936  1.00  0.00     0.017 A 
HETATM    3  N   UNL     1      62.358  10.289   3.403  1.00  0.00    -0.359 N 
ATOM      4  HN  UNL     1      62.119  11.227   3.081  1.00  0.00     0.166 HD
HETATM    5  C   UNL     1      62.376   9.259   2.549  1.00  0.00     0.044 A 
HETATM    6  C   UNL     1      62.981   8.802   5.175  1.00  0.00     0.054 A 
HETATM    7  C   UNL     1      62.662  10.063   4.693  1.00  0.00     0.007 A 
HETATM    8  C   UNL     1      62.705   6.941   1.917  1.00  0.00     0.016 A 
HETATM    9  C   UNL     1      62.089   9.540   1.222  1.00  0.00     0.030 A 
HETATM   10  C   UNL     1      62.677  11.258   5.597  1.00  0.00     0.068 C 
HETATM   11  C   UNL     1      62.383   7.243   0.591  1.00  0.00     0.001 A 
HETATM   12  C   UNL     1      62.080   8.549   0.241  1.00  0.00     0.002 A 
ENDROOT
BRANCH   1  13
HETATM   13  N   UNL     1      63.465   6.439   4.768  1.00  0.00    -0.377 N 
HETATM   14  C   UNL     1      64.917   6.283   5.021  1.00  0.00     0.150 C 
HETATM   15  C   UNL     1      65.284   4.793   5.170  1.00  0.00     0.252 C 
HETATM   16  N   UNL     1      64.509   4.102   6.223  1.00  0.00    -0.072 N 
HETATM   17  C   UNL     1      63.066   4.308   5.960  1.00  0.00     0.252 C 
HETATM   18  H   UNL     1      64.722   3.106   6.208  1.00  0.00     0.277 HD
HETATM   19  H   UNL     1      64.753   4.480   7.139  1.00  0.00     0.277 HD
HETATM   20  C   UNL     1      62.653   5.800   5.827  1.00  0.00     0.150 C 
ENDBRANCH   1  13
TORSDOF 1
ENDMDL
MODEL 6
REMARK VINA RESULT:      -4.9      2.434      3.338
REMARK  1 active torsions:
REMARK  status: ('A' for Active; 'I' for Inactive)
REMARK    1  A    between atoms: C_1  and  N_5 
ROOT
HETATM    1  C   UNL     1      62.969   7.981   4.267  1.00  0.00     0.044 A 
HETATM    2  C   UNL     1      61.714   7.317   4.429  1.00  0.00     0.017 A 
HETATM    3  N   UNL     1      60.635   8.994   3.046  1.00  0.00    -0.359 N 
ATOM      4  HN  UNL     1      59.795   9.364   2.602  1.00  0.00     0.166 HD
HETATM    5  C   UNL     1      60.583   7.877   3.781  1.00  0.00     0.044 A 
HETATM    6  C   UNL     1      62.981   9.158   3.501  1.00  0.00     0.054 A 
HETATM    7  C   UNL     1      61.817   9.619   2.906  1.00  0.00     0.007 A 
HETATM    8  C   UNL     1      61.520   6.107   5.148  1.00  0.00     0.016 A 
HETATM    9  C   UNL     1      59.353   7.244   3.874  1.00  0.00     0.030 A 
HETATM   10  C   UNL     1      61.830  10.838   2.033  1.00  0.00     0.068 C 
HETATM   11  C   UNL     1      60.264   5.504   5.253  1.00  0.00     0.001 A 
HETATM   12  C   UNL     1      59.177   6.072   4.607  1.00  0.00     0.002 A 
ENDROOT
BRANCH   1  13
HETATM   13  N   UNL     1      64.173   7.442   4.774  1.00  0.00    -0.377 N 
HETATM   14  C   UNL     1      64.907   6.493   3.904  1.00  0.00     0.150 C 
HETATM   15  C   UNL     1      65.980   5.736   4.712  1.00  0.00     0.252 C 
HETATM   16  N   UNL     1      66.932   6.631   5.402  1.00  0.00    -0.072 N 
HETATM   17  C   UNL     1      66.165   7.588   6.233  1.00  0.00     0.252 C 
HETATM   18  H   UNL     1      67.552   6.081   5.995  1.00  0.00     0.277 HD
HETATM   19  H   UNL     1      67.493   7.138   4.716  1.00  0.00     0.277 HD
HETATM   20  C   UNL     1      65.090   8.388   5.448  1.00  0.00     0.150 C 
ENDBRANCH   1  13
TORSDOF 1
ENDMDL
MODEL 7
REMARK VINA RESULT:      -4.4      1.825      5.327
REMARK  1 active torsions:
REMARK  status: ('A' for Active; 'I' for Inactive)
REMARK    1  A    between atoms: C_1  and  N_5 
ROOT
HETATM    1  C   UNL     1      64.097   7.868   4.554  1.00  0.00     0.044 A 
HETATM    2  C   UNL     1      63.467   6.735   5.153  1.00  0.00     0.017 A 
HETATM    3  N   UNL     1      65.609   5.984   6.013  1.00  0.00    -0.359 N 
ATOM      4  HN  UNL     1      66.160   5.306   6.540  1.00  0.00     0.166 HD
HETATM    5  C   UNL     1      64.286   5.833   5.879  1.00  0.00     0.044 A 
HETATM    6  C   UNL     1      65.490   7.987   4.704  1.00  0.00     0.054 A 
HETATM    7  C   UNL     1      66.197   7.048   5.439  1.00  0.00     0.007 A 
HETATM    8  C   UNL     1      62.073   6.469   5.123  1.00  0.00     0.016 A 
HETATM    9  C   UNL     1      63.713   4.741   6.514  1.00  0.00     0.030 A 
HETATM   10  C   UNL     1      67.672   7.198   5.660  1.00  0.00     0.068 C 
HETATM   11  C   UNL     1      61.522   5.346   5.745  1.00  0.00     0.001 A 
HETATM   12  C   UNL     1      62.345   4.482   6.449  1.00  0.00     0.002 A 
ENDROOT
BRANCH   1  13
HETATM   13  N   UNL     1      63.357   8.885   3.910  1.00  0.00    -0.377 N 
HETATM   14  C   UNL     1      62.589   8.499   2.703  1.00  0.00     0.150 C 
HETATM   15  C   UNL     1      62.135   9.752   1.926  1.00  0.00     0.252 C 
HETATM   16  N   UNL     1      61.349  10.697   2.747  1.00  0.00    -0.072 N 
HETATM   17  C   UNL     1      62.129  11.032   3.961  1.00  0.00     0.252 C 
HETATM   18  H   UNL     1      61.163  11.544   2.213  1.00  0.00     0.277 HD
HETATM   19  H   UNL     1      60.460  10.271   3.012  1.00  0.00     0.277 HD
HETATM   20  C   UNL     1      62.583   9.795   4.784  1.00  0.00     0.150 C 
ENDBRANCH   1  13
TORSDOF 1
ENDMDL
MODEL 8
REMARK VINA RESULT:      -4.3      2.324      6.153
REMARK  1 active torsions:
REMARK  status: ('A' for Active; 'I' for Inactive)
REMARK    1  A    between atoms: C_1  and  N_5 
ROOT
HETATM    1  C   UNL     1      64.838   5.175   6.432  1.00  0.00     0.044 A 
HETATM    2  C   UNL     1      65.886   5.404   7.374  1.00  0.00     0.017 A 
HETATM    3  N   UNL     1      66.151   3.010   7.679  1.00  0.00    -0.359 N 
ATOM      4  HN  UNL     1      66.623   2.225   8.126  1.00  0.00     0.166 HD
HETATM    5  C   UNL     1      66.509   4.270   7.957  1.00  0.00     0.044 A 
HETATM    6  C   UNL     1      64.481   3.840   6.175  1.00  0.00     0.054 A 
HETATM    7  C   UNL     1      65.157   2.802   6.798  1.00  0.00     0.007 A 
HETATM    8  C   UNL     1      66.392   6.681   7.735  1.00  0.00     0.016 A 
HETATM    9  C   UNL     1      67.559   4.441   8.845  1.00  0.00     0.030 A 
HETATM   10  C   UNL     1      64.829   1.374   6.483  1.00  0.00     0.068 C 
HETATM   11  C   UNL     1      67.432   6.830   8.656  1.00  0.00     0.001 A 
HETATM   12  C   UNL     1      68.023   5.704   9.208  1.00  0.00     0.002 A 
ENDROOT
BRANCH   1  13
HETATM   13  N   UNL     1      64.235   6.230   5.710  1.00  0.00    -0.377 N 
HETATM   14  C   UNL     1      64.166   6.087   4.236  1.00  0.00     0.150 C 
HETATM   15  C   UNL     1      63.818   7.437   3.576  1.00  0.00     0.252 C 
HETATM   16  N   UNL     1      62.565   8.032   4.088  1.00  0.00    -0.072 N 
HETATM   17  C   UNL     1      62.653   8.127   5.563  1.00  0.00     0.252 C 
HETATM   18  H   UNL     1      62.440   8.962   3.690  1.00  0.00     0.277 HD
HETATM   19  H   UNL     1      61.770   7.448   3.823  1.00  0.00     0.277 HD
HETATM   20  C   UNL     1      62.979   6.780   6.266  1.00  0.00     0.150 C 
ENDBRANCH   1  13
TORSDOF 1
ENDMDL
MODEL 9
REMARK VINA RESULT:      -4.3      4.334      5.006
REMARK  1 active torsions:
REMARK  status: ('A' for Active; 'I' for Inactive)
REMARK    1  A    between atoms: C_1  and  N_5 
ROOT
HETATM    1  C   UNL     1      60.011   6.369   5.054  1.00  0.00     0.044 A 
HETATM    2  C   UNL     1      61.128   7.182   4.690  1.00  0.00     0.017 A 
HETATM    3  N   UNL     1      59.928   7.973   2.733  1.00  0.00    -0.359 N 
ATOM      4  HN  UNL     1      59.893   8.552   1.894  1.00  0.00     0.166 HD
HETATM    5  C   UNL     1      61.014   7.970   3.515  1.00  0.00     0.044 A 
HETATM    6  C   UNL     1      58.894   6.388   4.202  1.00  0.00     0.054 A 
HETATM    7  C   UNL     1      58.885   7.198   3.076  1.00  0.00     0.007 A 
HETATM    8  C   UNL     1      62.326   7.304   5.442  1.00  0.00     0.016 A 
HETATM    9  C   UNL     1      62.055   8.807   3.144  1.00  0.00     0.030 A 
HETATM   10  C   UNL     1      57.674   7.276   2.196  1.00  0.00     0.068 C 
HETATM   11  C   UNL     1      63.374   8.132   5.033  1.00  0.00     0.001 A 
HETATM   12  C   UNL     1      63.235   8.892   3.882  1.00  0.00     0.002 A 
ENDROOT
BRANCH   1  13
HETATM   13  N   UNL     1      59.978   5.639   6.263  1.00  0.00    -0.377 N 
HETATM   14  C   UNL     1      58.834   5.890   7.172  1.00  0.00     0.150 C 
HETATM   15  C   UNL     1      59.115   5.306   8.571  1.00  0.00     0.252 C 
HETATM   16  N   UNL     1      59.438   3.863   8.548  1.00  0.00    -0.072 N 
HETATM   17  C   UNL     1      60.559   3.644   7.605  1.00  0.00     0.252 C 
HETATM   18  H   UNL     1      59.709   3.557   9.482  1.00  0.00     0.277 HD
HETATM   19  H   UNL     1      58.621   3.329   8.248  1.00  0.00     0.277 HD
HETATM   20  C   UNL     1      60.302   4.198   6.177  1.00  0.00     0.150 C 
ENDBRANCH   1  13
TORSDOF 1
ENDMDL
