MODEL 1
REMARK VINA RESULT:      -4.8      0.000      0.000
REMARK  1 active torsions:
REMARK  status: ('A' for Active; 'I' for Inactive)
REMARK    1  A    between atoms: C_1  and  C_3 
ROOT
HETATM    1  C   UNL     1      62.126   9.461   3.279  1.00  0.00     0.052 C 
HETATM    2  C   UNL     1      62.607   8.775   1.961  1.00  0.00     0.027 C 
HETATM    3  C   UNL     1      61.581   8.975   0.856  1.00  0.00    -0.024 C 
HETATM    4  C   UNL     1      60.502   8.239   1.169  1.00  0.00    -0.026 C 
HETATM    5  C   UNL     1      60.807   8.664   3.574  1.00  0.00     0.029 C 
HETATM    6  C   UNL     1      60.804   7.564   2.483  1.00  0.00     0.010 C 
HETATM    7  C   UNL     1      62.295   7.302   2.259  1.00  0.00     0.018 C 
HETATM    8  C   UNL     1      63.139   9.284   4.422  1.00  0.00     0.027 C 
ENDROOT
BRANCH   1   9
HETATM    9  C   UNL     1      61.937  10.953   3.093  1.00  0.00     0.182 C 
HETATM   10  O   UNL     1      62.051  11.573   2.048  1.00  0.00    -0.647 OA
HETATM   11  O   UNL     1      61.768  11.619   4.253  1.00  0.00    -0.647 OA
ENDBRANCH   1   9
TORSDOF 1
ENDMDL
MODEL 2
REMARK VINA RESULT:      -4.8      5.890      7.653
REMARK  1 active torsions:
REMARK  status: ('A' for Active; 'I' for Inactive)
REMARK    1  A    between atoms: C_1  and  C_3 
ROOT
HETATM    1  C   UNL     1      66.384   6.575   6.347  1.00  0.00     0.052 C 
HETATM    2  C   UNL     1      65.945   6.320   7.824  1.00  0.00     0.027 C 
HETATM    3  C   UNL     1      67.041   6.759   8.785  1.00  0.00    -0.024 C 
HETATM    4  C   UNL     1      68.063   5.899   8.650  1.00  0.00    -0.026 C 
HETATM    5  C   UNL     1      67.644   5.648   6.238  1.00  0.00     0.029 C 
HETATM    6  C   UNL     1      67.656   4.901   7.596  1.00  0.00     0.010 C 
HETATM    7  C   UNL     1      66.169   4.806   7.945  1.00  0.00     0.018 C 
HETATM    8  C   UNL     1      65.301   6.147   5.343  1.00  0.00     0.027 C 
ENDROOT
BRANCH   1   9
HETATM    9  C   UNL     1      66.654   8.045   6.094  1.00  0.00     0.182 C 
HETATM   10  O   UNL     1      65.887   8.970   6.306  1.00  0.00    -0.647 OA
HETATM   11  O   UNL     1      67.813   8.271   5.443  1.00  0.00    -0.647 OA
ENDBRANCH   1   9
TORSDOF 1
ENDMDL
MODEL 3
REMARK VINA RESULT:      -4.5      2.885      3.778
REMARK  1 active torsions:
REMARK  status: ('A' for Active; 'I' for Inactive)
REMARK    1  A    between atoms: C_1  and  C_3 
ROOT
HETATM    1  C   UNL     1      62.808   7.119   4.767  1.00  0.00     0.052 C 
HETATM    2  C   UNL     1      63.535   8.311   4.067  1.00  0.00     0.027 C 
HETATM    3  C   UNL     1      62.906   9.633   4.484  1.00  0.00    -0.024 C 
HETATM    4  C   UNL     1      61.686   9.691   3.928  1.00  0.00    -0.026 C 
HETATM    5  C   UNL     1      61.356   7.267   4.193  1.00  0.00     0.029 C 
HETATM    6  C   UNL     1      61.497   8.410   3.156  1.00  0.00     0.010 C 
HETATM    7  C   UNL     1      62.934   8.241   2.656  1.00  0.00     0.018 C 
HETATM    8  C   UNL     1      63.417   5.763   4.373  1.00  0.00     0.027 C 
ENDROOT
BRANCH   1   9
HETATM    9  C   UNL     1      62.906   7.217   6.276  1.00  0.00     0.182 C 
HETATM   10  O   UNL     1      63.929   7.348   6.929  1.00  0.00    -0.647 OA
HETATM   11  O   UNL     1      61.734   6.991   6.904  1.00  0.00    -0.647 OA
ENDBRANCH   1   9
TORSDOF 1
ENDMDL
MODEL 4
REMARK VINA RESULT:      -4.5      6.215      7.180
REMARK  1 active torsions:
REMARK  status: ('A' for Active; 'I' for Inactive)
REMARK    1  A    between atoms: C_1  and  C_3 
ROOT
HETATM    1  C   UNL     1      66.604   6.426   7.321  1.00  0.00     0.052 C 
HETATM    2  C   UNL     1      67.846   6.002   6.474  1.00  0.00     0.027 C 
HETATM    3  C   UNL     1      67.422   5.650   5.055  1.00  0.00    -0.024 C 
HETATM    4  C   UNL     1      66.726   4.504   5.115  1.00  0.00    -0.026 C 
HETATM    5  C   UNL     1      65.750   5.111   7.290  1.00  0.00     0.029 C 
HETATM    6  C   UNL     1      66.676   4.101   6.566  1.00  0.00     0.010 C 
HETATM    7  C   UNL     1      68.075   4.569   6.974  1.00  0.00     0.018 C 
HETATM    8  C   UNL     1      66.992   6.792   8.764  1.00  0.00     0.027 C 
ENDROOT
BRANCH   1   9
HETATM    9  C   UNL     1      65.918   7.642   6.733  1.00  0.00     0.182 C 
HETATM   10  O   UNL     1      66.423   8.736   6.540  1.00  0.00    -0.647 OA
HETATM   11  O   UNL     1      64.592   7.475   6.559  1.00  0.00    -0.647 OA
ENDBRANCH   1   9
TORSDOF 1
ENDMDL
MODEL 5
REMARK VINA RESULT:      -4.4      1.383      3.168
REMARK  1 active torsions:
REMARK  status: ('A' for Active; 'I' for Inactive)
REMARK    1  A    between atoms: C_1  and  C_3 
ROOT
HETATM    1  C   UNL     1      62.034   8.757   3.625  1.00  0.00     0.052 C 
HETATM    2  C   UNL     1      62.591   8.539   5.068  1.00  0.00     0.027 C 
HETATM    3  C   UNL     1      64.001   9.101   5.180  1.00  0.00    -0.024 C 
HETATM    4  C   UNL     1      64.808   8.313   4.452  1.00  0.00    -0.026 C 
HETATM    5  C   UNL     1      63.051   7.921   2.774  1.00  0.00     0.029 C 
HETATM    6  C   UNL     1      63.939   7.240   3.847  1.00  0.00     0.010 C 
HETATM    7  C   UNL     1      62.972   7.053   5.019  1.00  0.00     0.018 C 
HETATM    8  C   UNL     1      60.606   8.205   3.471  1.00  0.00     0.027 C 
ENDROOT
BRANCH   1   9
HETATM    9  C   UNL     1      61.970  10.229   3.271  1.00  0.00     0.182 C 
HETATM   10  O   UNL     1      61.720  11.148   4.034  1.00  0.00    -0.647 OA
HETATM   11  O   UNL     1      62.070  10.465   1.947  1.00  0.00    -0.647 OA
ENDBRANCH   1   9
TORSDOF 1
ENDMDL
MODEL 6
REMARK VINA RESULT:      -4.4      4.423      6.080
REMARK  1 active torsions:
REMARK  status: ('A' for Active; 'I' for Inactive)
REMARK    1  A    between atoms: C_1  and  C_3 
ROOT
HETATM    1  C   UNL     1      65.406   7.165   4.909  1.00  0.00     0.052 C 
HETATM    2  C   UNL     1      65.430   5.945   5.885  1.00  0.00     0.027 C 
HETATM    3  C   UNL     1      66.203   6.295   7.148  1.00  0.00    -0.024 C 
HETATM    4  C   UNL     1      67.498   6.403   6.812  1.00  0.00    -0.026 C 
HETATM    5  C   UNL     1      66.934   7.349   4.611  1.00  0.00     0.029 C 
HETATM    6  C   UNL     1      67.586   6.140   5.330  1.00  0.00     0.010 C 
HETATM    7  C   UNL     1      66.503   5.062   5.233  1.00  0.00     0.018 C 
HETATM    8  C   UNL     1      64.630   6.852   3.618  1.00  0.00     0.027 C 
ENDROOT
BRANCH   1   9
HETATM    9  C   UNL     1      64.733   8.368   5.539  1.00  0.00     0.182 C 
HETATM   10  O   UNL     1      65.252   9.447   5.776  1.00  0.00    -0.647 OA
HETATM   11  O   UNL     1      63.487   8.111   5.984  1.00  0.00    -0.647 OA
ENDBRANCH   1   9
TORSDOF 1
ENDMDL
MODEL 7
REMARK VINA RESULT:      -4.4      2.671      3.571
REMARK  1 active torsions:
REMARK  status: ('A' for Active; 'I' for Inactive)
REMARK    1  A    between atoms: C_1  and  C_3 
ROOT
HETATM    1  C   UNL     1      63.227   8.045   4.623  1.00  0.00     0.052 C 
HETATM    2  C   UNL     1      61.997   8.827   4.063  1.00  0.00     0.027 C 
HETATM    3  C   UNL     1      60.881   7.861   3.690  1.00  0.00    -0.024 C 
HETATM    4  C   UNL     1      61.286   7.176   2.609  1.00  0.00    -0.026 C 
HETATM    5  C   UNL     1      63.622   7.168   3.384  1.00  0.00     0.029 C 
HETATM    6  C   UNL     1      62.669   7.674   2.271  1.00  0.00     0.010 C 
HETATM    7  C   UNL     1      62.469   9.146   2.638  1.00  0.00     0.018 C 
HETATM    8  C   UNL     1      64.377   8.988   5.015  1.00  0.00     0.027 C 
ENDROOT
BRANCH   1   9
HETATM    9  C   UNL     1      62.867   7.259   5.867  1.00  0.00     0.182 C 
HETATM   10  O   UNL     1      62.623   7.720   6.971  1.00  0.00    -0.647 OA
HETATM   11  O   UNL     1      62.980   5.925   5.708  1.00  0.00    -0.647 OA
ENDBRANCH   1   9
TORSDOF 1
ENDMDL
MODEL 8
REMARK VINA RESULT:      -4.3      3.957      4.906
REMARK  1 active torsions:
REMARK  status: ('A' for Active; 'I' for Inactive)
REMARK    1  A    between atoms: C_1  and  C_3 
ROOT
HETATM    1  C   UNL     1      65.493   7.008   5.334  1.00  0.00     0.052 C 
HETATM    2  C   UNL     1      64.521   7.328   4.154  1.00  0.00     0.027 C 
HETATM    3  C   UNL     1      63.792   8.639   4.410  1.00  0.00    -0.024 C 
HETATM    4  C   UNL     1      62.935   8.432   5.422  1.00  0.00    -0.026 C 
HETATM    5  C   UNL     1      64.488   6.878   6.531  1.00  0.00     0.029 C 
HETATM    6  C   UNL     1      63.102   6.996   5.848  1.00  0.00     0.010 C 
HETATM    7  C   UNL     1      63.351   6.385   4.466  1.00  0.00     0.018 C 
HETATM    8  C   UNL     1      66.253   5.690   5.111  1.00  0.00     0.027 C 
ENDROOT
BRANCH   1   9
HETATM    9  C   UNL     1      66.541   8.091   5.500  1.00  0.00     0.182 C 
HETATM   10  O   UNL     1      67.514   8.273   4.786  1.00  0.00    -0.647 OA
HETATM   11  O   UNL     1      66.404   8.795   6.641  1.00  0.00    -0.647 OA
ENDBRANCH   1   9
TORSDOF 1
ENDMDL
MODEL 9
REMARK VINA RESULT:      -4.3     13.059     14.243
REMARK  1 active torsions:
REMARK  status: ('A' for Active; 'I' for Inactive)
REMARK    1  A    between atoms: C_1  and  C_3 
ROOT
HETATM    1  C   UNL     1      56.700   1.037  13.078  1.00  0.00     0.052 C 
HETATM    2  C   UNL     1      57.661   0.700  14.262  1.00  0.00     0.027 C 
HETATM    3  C   UNL     1      58.769   1.739  14.356  1.00  0.00    -0.024 C 
HETATM    4  C   UNL     1      59.572   1.569  13.294  1.00  0.00    -0.026 C 
HETATM    5  C   UNL     1      57.677   0.942  11.855  1.00  0.00     0.029 C 
HETATM    6  C   UNL     1      58.996   0.432  12.490  1.00  0.00     0.010 C 
HETATM    7  C   UNL     1      58.501  -0.432  13.653  1.00  0.00     0.018 C 
HETATM    8  C   UNL     1      55.563   0.009  12.950  1.00  0.00     0.027 C 
ENDROOT
BRANCH   1   9
HETATM    9  C   UNL     1      56.044   2.390  13.262  1.00  0.00     0.182 C 
HETATM   10  O   UNL     1      55.248   2.696  14.135  1.00  0.00    -0.647 OA
HETATM   11  O   UNL     1      56.297   3.248  12.253  1.00  0.00    -0.647 OA
ENDBRANCH   1   9
TORSDOF 1
ENDMDL
