MODEL 1
REMARK VINA RESULT:      -4.8      0.000      0.000
REMARK  1 active torsions:
REMARK  status: ('A' for Active; 'I' for Inactive)
REMARK    1  A    between atoms: C_1  and  N_8 
ROOT
HETATM    1  C   UNL     1      62.972  10.684   5.386  1.00  0.00     0.143 A 
HETATM    2  N   UNL     1      62.318  11.157   4.357  1.00  0.00    -0.336 N 
ATOM      3  HN  UNL     1      61.895  12.084   4.308  1.00  0.00     0.168 HD
HETATM    4  S   UNL     1      63.540   9.074   5.232  1.00  0.00    -0.052 SA
HETATM    5  C   UNL     1      62.907   9.001   3.634  1.00  0.00     0.038 A 
HETATM    6  C   UNL     1      62.282  10.216   3.342  1.00  0.00     0.051 A 
HETATM    7  C   UNL     1      62.961   7.950   2.704  1.00  0.00     0.063 A 
HETATM    8  C   UNL     1      61.686  10.390   2.074  1.00  0.00     0.034 A 
HETATM    9  C   UNL     1      62.369   8.158   1.460  1.00  0.00     0.117 A 
HETATM   10  C   UNL     1      61.738   9.352   1.138  1.00  0.00     0.044 A 
HETATM   11  F   UNL     1      62.413   7.177   0.548  1.00  0.00    -0.206 F 
ENDROOT
BRANCH   1  12
HETATM   12  N   UNL     1      63.185  11.394   6.505  1.00  0.00    -0.380 N 
HETATM   13  H   UNL     1      62.578  12.131   6.743  1.00  0.00     0.158 HD
HETATM   14  H   UNL     1      63.949  11.177   7.087  1.00  0.00     0.158 HD
ENDBRANCH   1  12
TORSDOF 1
ENDMDL
MODEL 2
REMARK VINA RESULT:      -4.6      2.593      3.258
REMARK  1 active torsions:
REMARK  status: ('A' for Active; 'I' for Inactive)
REMARK    1  A    between atoms: C_1  and  N_8 
ROOT
HETATM    1  C   UNL     1      63.516   7.590   5.343  1.00  0.00     0.143 A 
HETATM    2  N   UNL     1      63.334   8.778   5.861  1.00  0.00    -0.336 N 
ATOM      3  HN  UNL     1      63.535   9.031   6.829  1.00  0.00     0.168 HD
HETATM    4  S   UNL     1      63.049   7.414   3.703  1.00  0.00    -0.052 SA
HETATM    5  C   UNL     1      62.607   9.075   3.647  1.00  0.00     0.038 A 
HETATM    6  C   UNL     1      62.829   9.642   4.905  1.00  0.00     0.051 A 
HETATM    7  C   UNL     1      62.104   9.826   2.572  1.00  0.00     0.063 A 
HETATM    8  C   UNL     1      62.537  11.010   5.099  1.00  0.00     0.034 A 
HETATM    9  C   UNL     1      61.834  11.175   2.797  1.00  0.00     0.117 A 
HETATM   10  C   UNL     1      62.041  11.769   4.034  1.00  0.00     0.044 A 
HETATM   11  F   UNL     1      61.363  11.919   1.787  1.00  0.00    -0.206 F 
ENDROOT
BRANCH   1  12
HETATM   12  N   UNL     1      64.023   6.561   6.038  1.00  0.00    -0.380 N 
HETATM   13  H   UNL     1      63.546   6.216   6.827  1.00  0.00     0.158 HD
HETATM   14  H   UNL     1      64.873   6.149   5.758  1.00  0.00     0.158 HD
ENDBRANCH   1  12
TORSDOF 1
ENDMDL
MODEL 3
REMARK VINA RESULT:      -4.3      3.159      3.962
REMARK  1 active torsions:
REMARK  status: ('A' for Active; 'I' for Inactive)
REMARK    1  A    between atoms: C_1  and  N_8 
ROOT
HETATM    1  C   UNL     1      63.068   6.823   2.554  1.00  0.00     0.143 A 
HETATM    2  N   UNL     1      62.642   7.696   1.678  1.00  0.00    -0.336 N 
ATOM      3  HN  UNL     1      62.488   7.504   0.688  1.00  0.00     0.168 HD
HETATM    4  S   UNL     1      63.293   7.414   4.147  1.00  0.00    -0.052 SA
HETATM    5  C   UNL     1      62.732   8.964   3.654  1.00  0.00     0.038 A 
HETATM    6  C   UNL     1      62.432   8.920   2.290  1.00  0.00     0.051 A 
HETATM    7  C   UNL     1      62.564  10.132   4.414  1.00  0.00     0.063 A 
HETATM    8  C   UNL     1      61.948  10.087   1.660  1.00  0.00     0.034 A 
HETATM    9  C   UNL     1      62.077  11.264   3.762  1.00  0.00     0.117 A 
HETATM   10  C   UNL     1      61.771  11.255   2.409  1.00  0.00     0.044 A 
HETATM   11  F   UNL     1      61.896  12.391   4.464  1.00  0.00    -0.206 F 
ENDROOT
BRANCH   1  12
HETATM   12  N   UNL     1      63.327   5.544   2.243  1.00  0.00    -0.380 N 
HETATM   13  H   UNL     1      62.668   5.017   1.736  1.00  0.00     0.158 HD
HETATM   14  H   UNL     1      64.177   5.132   2.521  1.00  0.00     0.158 HD
ENDBRANCH   1  12
TORSDOF 1
ENDMDL
MODEL 4
REMARK VINA RESULT:      -4.0      3.002      3.486
REMARK  1 active torsions:
REMARK  status: ('A' for Active; 'I' for Inactive)
REMARK    1  A    between atoms: C_1  and  N_8 
ROOT
HETATM    1  C   UNL     1      66.360   7.645   6.277  1.00  0.00     0.143 A 
HETATM    2  N   UNL     1      65.446   8.576   6.185  1.00  0.00    -0.336 N 
ATOM      3  HN  UNL     1      65.343   9.360   6.830  1.00  0.00     0.168 HD
HETATM    4  S   UNL     1      66.283   6.407   5.093  1.00  0.00    -0.052 SA
HETATM    5  C   UNL     1      64.944   7.194   4.353  1.00  0.00     0.038 A 
HETATM    6  C   UNL     1      64.637   8.343   5.086  1.00  0.00     0.051 A 
HETATM    7  C   UNL     1      64.218   6.827   3.208  1.00  0.00     0.063 A 
HETATM    8  C   UNL     1      63.565   9.158   4.662  1.00  0.00     0.034 A 
HETATM    9  C   UNL     1      63.171   7.657   2.814  1.00  0.00     0.117 A 
HETATM   10  C   UNL     1      62.838   8.805   3.519  1.00  0.00     0.044 A 
HETATM   11  F   UNL     1      62.467   7.338   1.719  1.00  0.00    -0.206 F 
ENDROOT
BRANCH   1  12
HETATM   12  N   UNL     1      67.299   7.636   7.235  1.00  0.00    -0.380 N 
HETATM   13  H   UNL     1      67.868   8.427   7.374  1.00  0.00     0.158 HD
HETATM   14  H   UNL     1      67.418   6.838   7.799  1.00  0.00     0.158 HD
ENDBRANCH   1  12
TORSDOF 1
ENDMDL
MODEL 5
REMARK VINA RESULT:      -3.9      6.920      7.725
REMARK  1 active torsions:
REMARK  status: ('A' for Active; 'I' for Inactive)
REMARK    1  A    between atoms: C_1  and  N_8 
ROOT
HETATM    1  C   UNL     1      67.309   3.631   8.350  1.00  0.00     0.143 A 
HETATM    2  N   UNL     1      66.782   4.768   8.727  1.00  0.00    -0.336 N 
ATOM      3  HN  UNL     1      66.348   4.939   9.634  1.00  0.00     0.168 HD
HETATM    4  S   UNL     1      67.929   3.591   6.753  1.00  0.00    -0.052 SA
HETATM    5  C   UNL     1      67.509   5.246   6.544  1.00  0.00     0.038 A 
HETATM    6  C   UNL     1      66.899   5.705   7.715  1.00  0.00     0.051 A 
HETATM    7  C   UNL     1      67.706   6.081   5.433  1.00  0.00     0.063 A 
HETATM    8  C   UNL     1      66.467   7.048   7.778  1.00  0.00     0.034 A 
HETATM    9  C   UNL     1      67.274   7.402   5.532  1.00  0.00     0.117 A 
HETATM   10  C   UNL     1      66.663   7.890   6.678  1.00  0.00     0.044 A 
HETATM   11  F   UNL     1      67.458   8.225   4.490  1.00  0.00    -0.206 F 
ENDROOT
BRANCH   1  12
HETATM   12  N   UNL     1      67.360   2.552   9.145  1.00  0.00    -0.380 N 
HETATM   13  H   UNL     1      67.219   1.654   8.766  1.00  0.00     0.158 HD
HETATM   14  H   UNL     1      67.541   2.657  10.107  1.00  0.00     0.158 HD
ENDBRANCH   1  12
TORSDOF 1
ENDMDL
MODEL 6
REMARK VINA RESULT:      -3.9      2.288      3.306
REMARK  1 active torsions:
REMARK  status: ('A' for Active; 'I' for Inactive)
REMARK    1  A    between atoms: C_1  and  N_8 
ROOT
HETATM    1  C   UNL     1      61.888  11.011   2.387  1.00  0.00     0.143 A 
HETATM    2  N   UNL     1      62.188  10.909   3.656  1.00  0.00    -0.336 N 
ATOM      3  HN  UNL     1      62.159  11.677   4.327  1.00  0.00     0.168 HD
HETATM    4  S   UNL     1      62.068   9.580   1.461  1.00  0.00    -0.052 SA
HETATM    5  C   UNL     1      62.544   8.722   2.875  1.00  0.00     0.038 A 
HETATM    6  C   UNL     1      62.552   9.607   3.956  1.00  0.00     0.051 A 
HETATM    7  C   UNL     1      62.882   7.367   3.021  1.00  0.00     0.063 A 
HETATM    8  C   UNL     1      62.912   9.123   5.232  1.00  0.00     0.034 A 
HETATM    9  C   UNL     1      63.226   6.921   4.296  1.00  0.00     0.117 A 
HETATM   10  C   UNL     1      63.246   7.774   5.391  1.00  0.00     0.044 A 
HETATM   11  F   UNL     1      63.544   5.631   4.468  1.00  0.00    -0.206 F 
ENDROOT
BRANCH   1  12
HETATM   12  N   UNL     1      61.473  12.157   1.825  1.00  0.00    -0.380 N 
HETATM   13  H   UNL     1      62.018  12.972   1.910  1.00  0.00     0.158 HD
HETATM   14  H   UNL     1      60.625  12.181   1.325  1.00  0.00     0.158 HD
ENDBRANCH   1  12
TORSDOF 1
ENDMDL
MODEL 7
REMARK VINA RESULT:      -3.9      3.113      4.182
REMARK  1 active torsions:
REMARK  status: ('A' for Active; 'I' for Inactive)
REMARK    1  A    between atoms: C_1  and  N_8 
ROOT
HETATM    1  C   UNL     1      60.827   8.206   1.245  1.00  0.00     0.143 A 
HETATM    2  N   UNL     1      60.751   9.253   2.026  1.00  0.00    -0.336 N 
ATOM      3  HN  UNL     1      60.046   9.986   1.953  1.00  0.00     0.168 HD
HETATM    4  S   UNL     1      62.141   7.146   1.546  1.00  0.00    -0.052 SA
HETATM    5  C   UNL     1      62.638   8.132   2.865  1.00  0.00     0.038 A 
HETATM    6  C   UNL     1      61.768   9.221   2.965  1.00  0.00     0.051 A 
HETATM    7  C   UNL     1      63.713   7.957   3.751  1.00  0.00     0.063 A 
HETATM    8  C   UNL     1      61.980  10.173   3.986  1.00  0.00     0.034 A 
HETATM    9  C   UNL     1      63.889   8.911   4.751  1.00  0.00     0.117 A 
HETATM   10  C   UNL     1      63.045  10.006   4.877  1.00  0.00     0.044 A 
HETATM   11  F   UNL     1      64.901   8.765   5.617  1.00  0.00    -0.206 F 
ENDROOT
BRANCH   1  12
HETATM   12  N   UNL     1      59.949   7.965   0.260  1.00  0.00    -0.380 N 
HETATM   13  H   UNL     1      59.835   7.050  -0.085  1.00  0.00     0.158 HD
HETATM   14  H   UNL     1      59.418   8.703  -0.117  1.00  0.00     0.158 HD
ENDBRANCH   1  12
TORSDOF 1
ENDMDL
MODEL 8
REMARK VINA RESULT:      -3.8      4.130      4.861
REMARK  1 active torsions:
REMARK  status: ('A' for Active; 'I' for Inactive)
REMARK    1  A    between atoms: C_1  and  N_8 
ROOT
HETATM    1  C   UNL     1      66.638   6.926   7.571  1.00  0.00     0.143 A 
HETATM    2  N   UNL     1      65.455   6.368   7.582  1.00  0.00    -0.336 N 
ATOM      3  HN  UNL     1      65.155   5.646   8.238  1.00  0.00     0.168 HD
HETATM    4  S   UNL     1      66.906   8.079   6.331  1.00  0.00    -0.052 SA
HETATM    5  C   UNL     1      65.291   7.863   5.777  1.00  0.00     0.038 A 
HETATM    6  C   UNL     1      64.668   6.899   6.575  1.00  0.00     0.051 A 
HETATM    7  C   UNL     1      64.621   8.498   4.720  1.00  0.00     0.063 A 
HETATM    8  C   UNL     1      63.325   6.556   6.307  1.00  0.00     0.034 A 
HETATM    9  C   UNL     1      63.294   8.140   4.488  1.00  0.00     0.117 A 
HETATM   10  C   UNL     1      62.646   7.186   5.259  1.00  0.00     0.044 A 
HETATM   11  F   UNL     1      62.626   8.738   3.492  1.00  0.00    -0.206 F 
ENDROOT
BRANCH   1  12
HETATM   12  N   UNL     1      67.597   6.621   8.458  1.00  0.00    -0.380 N 
HETATM   13  H   UNL     1      68.522   6.474   8.152  1.00  0.00     0.158 HD
HETATM   14  H   UNL     1      67.377   6.545   9.414  1.00  0.00     0.158 HD
ENDBRANCH   1  12
TORSDOF 1
ENDMDL
MODEL 9
REMARK VINA RESULT:      -3.7      5.714      6.428
REMARK  1 active torsions:
REMARK  status: ('A' for Active; 'I' for Inactive)
REMARK    1  A    between atoms: C_1  and  N_8 
ROOT
HETATM    1  C   UNL     1      66.748   4.559   8.123  1.00  0.00     0.143 A 
HETATM    2  N   UNL     1      65.494   4.538   7.749  1.00  0.00    -0.336 N 
ATOM      3  HN  UNL     1      64.825   3.807   7.987  1.00  0.00     0.168 HD
HETATM    4  S   UNL     1      67.677   5.878   7.545  1.00  0.00    -0.052 SA
HETATM    5  C   UNL     1      66.285   6.518   6.761  1.00  0.00     0.038 A 
HETATM    6  C   UNL     1      65.208   5.655   6.982  1.00  0.00     0.051 A 
HETATM    7  C   UNL     1      66.151   7.696   6.009  1.00  0.00     0.063 A 
HETATM    8  C   UNL     1      63.950   5.979   6.431  1.00  0.00     0.034 A 
HETATM    9  C   UNL     1      64.893   7.988   5.485  1.00  0.00     0.117 A 
HETATM   10  C   UNL     1      63.803   7.153   5.684  1.00  0.00     0.044 A 
HETATM   11  F   UNL     1      64.732   9.111   4.772  1.00  0.00    -0.206 F 
ENDROOT
BRANCH   1  12
HETATM   12  N   UNL     1      67.293   3.611   8.901  1.00  0.00    -0.380 N 
HETATM   13  H   UNL     1      67.576   3.829   9.818  1.00  0.00     0.158 HD
HETATM   14  H   UNL     1      67.408   2.696   8.554  1.00  0.00     0.158 HD
ENDBRANCH   1  12
TORSDOF 1
ENDMDL
