MODEL 1
REMARK VINA RESULT:      -4.5      0.000      0.000
REMARK  2 active torsions:
REMARK  status: ('A' for Active; 'I' for Inactive)
REMARK    1  A    between atoms: CA_3  and  C_7 
REMARK    2  A    between atoms: O_5  and  C_7 
ROOT
HETATM    1  N   UNL     1      64.261   9.179   5.380  1.00  0.00    -0.361 N 
ATOM      2  HN  UNL     1      64.892   9.362   6.161  1.00  0.00     0.165 HD
HETATM    3  CA  UNL     1      63.242  10.033   5.082  1.00  0.00     0.033 A 
HETATM    4  C   UNL     1      64.408   8.076   4.604  1.00  0.00     0.005 A 
HETATM    5  C   UNL     1      62.529   8.679   3.246  1.00  0.00     0.004 A 
HETATM    6  C   UNL     1      63.564   7.796   3.533  1.00  0.00     0.024 A 
HETATM    7  C   UNL     1      62.361   9.814   4.029  1.00  0.00     0.027 A 
HETATM    8  C   UNL     1      65.544   7.158   4.943  1.00  0.00     0.068 C 
ENDROOT
BRANCH   3   9
HETATM    9  C   UNL     1      63.099  11.269   5.944  1.00  0.00     0.220 C 
BRANCH   9  10
HETATM   10  O   UNL     1      64.345  11.654   6.521  1.00  0.00    -0.395 OA
HETATM   11  H   UNL     1      65.072  11.250   6.020  1.00  0.00     0.209 HD
ENDBRANCH   9  10
ENDBRANCH   3   9
TORSDOF 2
ENDMDL
MODEL 2
REMARK VINA RESULT:      -4.4      1.339      2.554
REMARK  2 active torsions:
REMARK  status: ('A' for Active; 'I' for Inactive)
REMARK    1  A    between atoms: CA_3  and  C_7 
REMARK    2  A    between atoms: O_5  and  C_7 
ROOT
HETATM    1  N   UNL     1      62.261  10.267   3.669  1.00  0.00    -0.361 N 
ATOM      2  HN  UNL     1      61.700  11.106   3.516  1.00  0.00     0.165 HD
HETATM    3  CA  UNL     1      63.021  10.124   4.791  1.00  0.00     0.033 A 
HETATM    4  C   UNL     1      62.275   9.258   2.764  1.00  0.00     0.005 A 
HETATM    5  C   UNL     1      63.801   7.975   4.092  1.00  0.00     0.004 A 
HETATM    6  C   UNL     1      63.030   8.102   2.942  1.00  0.00     0.024 A 
HETATM    7  C   UNL     1      63.800   8.998   5.032  1.00  0.00     0.027 A 
HETATM    8  C   UNL     1      61.420   9.432   1.545  1.00  0.00     0.068 C 
ENDROOT
BRANCH   3   9
HETATM    9  C   UNL     1      62.985  11.249   5.802  1.00  0.00     0.220 C 
BRANCH   9  10
HETATM   10  O   UNL     1      64.271  11.485   6.372  1.00  0.00    -0.395 OA
HETATM   11  H   UNL     1      64.800  12.025   5.764  1.00  0.00     0.209 HD
ENDBRANCH   9  10
ENDBRANCH   3   9
TORSDOF 2
ENDMDL
MODEL 3
REMARK VINA RESULT:      -4.2      1.752      3.192
REMARK  2 active torsions:
REMARK  status: ('A' for Active; 'I' for Inactive)
REMARK    1  A    between atoms: CA_3  and  C_7 
REMARK    2  A    between atoms: O_5  and  C_7 
ROOT
HETATM    1  N   UNL     1      63.038   8.825   3.319  1.00  0.00    -0.361 N 
ATOM      2  HN  UNL     1      63.354   7.931   2.941  1.00  0.00     0.165 HD
HETATM    3  CA  UNL     1      63.373   9.214   4.581  1.00  0.00     0.033 A 
HETATM    4  C   UNL     1      62.269   9.665   2.582  1.00  0.00     0.005 A 
HETATM    5  C   UNL     1      62.170  11.268   4.359  1.00  0.00     0.004 A 
HETATM    6  C   UNL     1      61.819  10.889   3.068  1.00  0.00     0.024 A 
HETATM    7  C   UNL     1      62.957  10.422   5.130  1.00  0.00     0.027 A 
HETATM    8  C   UNL     1      61.925   9.220   1.192  1.00  0.00     0.068 C 
ENDROOT
BRANCH   3   9
HETATM    9  C   UNL     1      64.245   8.278   5.388  1.00  0.00     0.220 C 
BRANCH   9  10
HETATM   10  O   UNL     1      65.408   8.940   5.883  1.00  0.00    -0.395 OA
HETATM   11  H   UNL     1      66.134   8.301   5.966  1.00  0.00     0.209 HD
ENDBRANCH   9  10
ENDBRANCH   3   9
TORSDOF 2
ENDMDL
MODEL 4
REMARK VINA RESULT:      -4.0      1.511      3.097
REMARK  2 active torsions:
REMARK  status: ('A' for Active; 'I' for Inactive)
REMARK    1  A    between atoms: CA_3  and  C_7 
REMARK    2  A    between atoms: O_5  and  C_7 
ROOT
HETATM    1  N   UNL     1      64.535   9.301   5.660  1.00  0.00    -0.361 N 
ATOM      2  HN  UNL     1      64.856   9.906   6.416  1.00  0.00     0.165 HD
HETATM    3  CA  UNL     1      65.184   8.139   5.364  1.00  0.00     0.033 A 
HETATM    4  C   UNL     1      63.450   9.625   4.914  1.00  0.00     0.005 A 
HETATM    5  C   UNL     1      63.663   7.642   3.588  1.00  0.00     0.004 A 
HETATM    6  C   UNL     1      62.987   8.822   3.875  1.00  0.00     0.024 A 
HETATM    7  C   UNL     1      64.778   7.291   4.339  1.00  0.00     0.027 A 
HETATM    8  C   UNL     1      62.745  10.900   5.267  1.00  0.00     0.068 C 
ENDROOT
BRANCH   3   9
HETATM    9  C   UNL     1      66.383   7.778   6.214  1.00  0.00     0.220 C 
BRANCH   9  10
HETATM   10  O   UNL     1      66.843   8.896   6.972  1.00  0.00    -0.395 OA
HETATM   11  H   UNL     1      66.082   9.404   7.294  1.00  0.00     0.209 HD
ENDBRANCH   9  10
ENDBRANCH   3   9
TORSDOF 2
ENDMDL
MODEL 5
REMARK VINA RESULT:      -3.9      2.411      4.134
REMARK  2 active torsions:
REMARK  status: ('A' for Active; 'I' for Inactive)
REMARK    1  A    between atoms: CA_3  and  C_7 
REMARK    2  A    between atoms: O_5  and  C_7 
ROOT
HETATM    1  N   UNL     1      65.690   7.569   6.959  1.00  0.00    -0.361 N 
ATOM      2  HN  UNL     1      64.960   7.948   7.562  1.00  0.00     0.165 HD
HETATM    3  CA  UNL     1      65.705   7.832   5.621  1.00  0.00     0.033 A 
HETATM    4  C   UNL     1      66.676   6.784   7.459  1.00  0.00     0.005 A 
HETATM    5  C   UNL     1      67.683   6.528   5.301  1.00  0.00     0.004 A 
HETATM    6  C   UNL     1      67.685   6.250   6.663  1.00  0.00     0.024 A 
HETATM    7  C   UNL     1      66.682   7.330   4.768  1.00  0.00     0.027 A 
HETATM    8  C   UNL     1      66.646   6.520   8.934  1.00  0.00     0.068 C 
ENDROOT
BRANCH   3   9
HETATM    9  C   UNL     1      64.610   8.722   5.077  1.00  0.00     0.220 C 
BRANCH   9  10
HETATM   10  O   UNL     1      64.525   9.951   5.798  1.00  0.00    -0.395 OA
HETATM   11  H   UNL     1      65.358  10.107   6.270  1.00  0.00     0.209 HD
ENDBRANCH   9  10
ENDBRANCH   3   9
TORSDOF 2
ENDMDL
MODEL 6
REMARK VINA RESULT:      -3.9      2.183      3.507
REMARK  2 active torsions:
REMARK  status: ('A' for Active; 'I' for Inactive)
REMARK    1  A    between atoms: CA_3  and  C_7 
REMARK    2  A    between atoms: O_5  and  C_7 
ROOT
HETATM    1  N   UNL     1      62.286   9.973   3.521  1.00  0.00    -0.361 N 
ATOM      2  HN  UNL     1      62.269  10.646   4.287  1.00  0.00     0.165 HD
HETATM    3  CA  UNL     1      62.569   8.658   3.746  1.00  0.00     0.033 A 
HETATM    4  C   UNL     1      62.027  10.354   2.246  1.00  0.00     0.005 A 
HETATM    5  C   UNL     1      62.337   8.124   1.427  1.00  0.00     0.004 A 
HETATM    6  C   UNL     1      62.043   9.460   1.179  1.00  0.00     0.024 A 
HETATM    7  C   UNL     1      62.605   7.712   2.727  1.00  0.00     0.027 A 
HETATM    8  C   UNL     1      61.704  11.801   2.026  1.00  0.00     0.068 C 
ENDROOT
BRANCH   3   9
HETATM    9  C   UNL     1      62.839   8.241   5.175  1.00  0.00     0.220 C 
BRANCH   9  10
HETATM   10  O   UNL     1      63.092   9.369   6.012  1.00  0.00    -0.395 OA
HETATM   11  H   UNL     1      64.035   9.597   5.971  1.00  0.00     0.209 HD
ENDBRANCH   9  10
ENDBRANCH   3   9
TORSDOF 2
ENDMDL
MODEL 7
REMARK VINA RESULT:      -3.7      2.699      3.488
REMARK  2 active torsions:
REMARK  status: ('A' for Active; 'I' for Inactive)
REMARK    1  A    between atoms: CA_3  and  C_7 
REMARK    2  A    between atoms: O_5  and  C_7 
ROOT
HETATM    1  N   UNL     1      63.094   8.743   3.388  1.00  0.00    -0.361 N 
ATOM      2  HN  UNL     1      63.354   7.875   2.920  1.00  0.00     0.165 HD
HETATM    3  CA  UNL     1      62.274   9.649   2.783  1.00  0.00     0.033 A 
HETATM    4  C   UNL     1      63.551   9.036   4.630  1.00  0.00     0.005 A 
HETATM    5  C   UNL     1      62.380  11.126   4.661  1.00  0.00     0.004 A 
HETATM    6  C   UNL     1      63.216  10.212   5.294  1.00  0.00     0.024 A 
HETATM    7  C   UNL     1      61.901  10.845   3.387  1.00  0.00     0.027 A 
HETATM    8  C   UNL     1      64.439   8.018   5.280  1.00  0.00     0.068 C 
ENDROOT
BRANCH   3   9
HETATM    9  C   UNL     1      61.756   9.305   1.404  1.00  0.00     0.220 C 
BRANCH   9  10
HETATM   10  O   UNL     1      60.360   9.010   1.427  1.00  0.00    -0.395 OA
HETATM   11  H   UNL     1      60.070   8.753   0.537  1.00  0.00     0.209 HD
ENDBRANCH   9  10
ENDBRANCH   3   9
TORSDOF 2
ENDMDL
MODEL 8
REMARK VINA RESULT:      -3.7      3.354      5.062
REMARK  2 active torsions:
REMARK  status: ('A' for Active; 'I' for Inactive)
REMARK    1  A    between atoms: CA_3  and  C_7 
REMARK    2  A    between atoms: O_5  and  C_7 
ROOT
HETATM    1  N   UNL     1      65.494   7.522   6.870  1.00  0.00    -0.361 N 
ATOM      2  HN  UNL     1      64.670   7.742   7.430  1.00  0.00     0.165 HD
HETATM    3  CA  UNL     1      66.513   6.774   7.380  1.00  0.00     0.033 A 
HETATM    4  C   UNL     1      65.614   7.966   5.594  1.00  0.00     0.005 A 
HETATM    5  C   UNL     1      67.755   6.921   5.342  1.00  0.00     0.004 A 
HETATM    6  C   UNL     1      66.725   7.685   4.804  1.00  0.00     0.024 A 
HETATM    7  C   UNL     1      67.652   6.457   6.648  1.00  0.00     0.027 A 
HETATM    8  C   UNL     1      64.475   8.775   5.051  1.00  0.00     0.068 C 
ENDROOT
BRANCH   3   9
HETATM    9  C   UNL     1      66.361   6.270   8.798  1.00  0.00     0.220 C 
BRANCH   9  10
HETATM   10  O   UNL     1      66.190   4.854   8.837  1.00  0.00    -0.395 OA
HETATM   11  H   UNL     1      65.429   4.605   8.288  1.00  0.00     0.209 HD
ENDBRANCH   9  10
ENDBRANCH   3   9
TORSDOF 2
ENDMDL
MODEL 9
REMARK VINA RESULT:      -3.6      2.226      2.382
REMARK  2 active torsions:
REMARK  status: ('A' for Active; 'I' for Inactive)
REMARK    1  A    between atoms: CA_3  and  C_7 
REMARK    2  A    between atoms: O_5  and  C_7 
ROOT
HETATM    1  N   UNL     1      62.408   9.496   4.198  1.00  0.00    -0.361 N 
ATOM      2  HN  UNL     1      62.366  10.067   5.042  1.00  0.00     0.165 HD
HETATM    3  CA  UNL     1      62.138  10.028   2.973  1.00  0.00     0.033 A 
HETATM    4  C   UNL     1      62.733   8.180   4.257  1.00  0.00     0.005 A 
HETATM    5  C   UNL     1      62.517   7.934   1.884  1.00  0.00     0.004 A 
HETATM    6  C   UNL     1      62.798   7.373   3.125  1.00  0.00     0.024 A 
HETATM    7  C   UNL     1      62.182   9.280   1.802  1.00  0.00     0.027 A 
HETATM    8  C   UNL     1      63.040   7.620   5.613  1.00  0.00     0.068 C 
ENDROOT
BRANCH   3   9
HETATM    9  C   UNL     1      61.793  11.500   2.918  1.00  0.00     0.220 C 
BRANCH   9  10
HETATM   10  O   UNL     1      62.061  12.149   4.160  1.00  0.00    -0.395 OA
HETATM   11  H   UNL     1      61.790  13.079   4.104  1.00  0.00     0.209 HD
ENDBRANCH   9  10
ENDBRANCH   3   9
TORSDOF 2
ENDMDL
