MODEL 1
REMARK VINA RESULT:      -4.6      0.000      0.000
REMARK  1 active torsions:
REMARK  status: ('A' for Active; 'I' for Inactive)
REMARK    1  A    between atoms: C_3  and  N_7 
ROOT
HETATM    1  C   UNL     1      62.268  11.296   4.296  1.00  0.00     0.145 A 
HETATM    2  C   UNL     1      61.877  10.634   3.138  1.00  0.00     0.086 A 
HETATM    3  C   UNL     1      63.037  10.662   5.287  1.00  0.00     0.065 A 
HETATM    4  C   UNL     1      63.490   9.364   5.043  1.00  0.00     0.035 A 
HETATM    5  C   UNL     1      62.293   9.326   2.948  1.00  0.00     0.119 A 
HETATM    6  F   UNL     1      61.878  12.568   4.477  1.00  0.00    -0.204 F 
HETATM    7  C   UNL     1      63.099   8.685   3.884  1.00  0.00     0.044 A 
HETATM    8  F   UNL     1      61.925   8.671   1.840  1.00  0.00    -0.206 F 
ENDROOT
BRANCH   3   9
HETATM    9  N   UNL     1      63.530  11.384   6.386  1.00  0.00    -0.397 N 
HETATM   10  H   UNL     1      63.458  11.009   7.294  1.00  0.00     0.156 HD
HETATM   11  H   UNL     1      63.950  12.264   6.249  1.00  0.00     0.156 HD
ENDBRANCH   3   9
TORSDOF 1
ENDMDL
MODEL 2
REMARK VINA RESULT:      -4.4      2.215      2.735
REMARK  1 active torsions:
REMARK  status: ('A' for Active; 'I' for Inactive)
REMARK    1  A    between atoms: C_3  and  N_7 
ROOT
HETATM    1  C   UNL     1      62.391  10.220   4.368  1.00  0.00     0.145 A 
HETATM    2  C   UNL     1      62.028  11.374   3.683  1.00  0.00     0.086 A 
HETATM    3  C   UNL     1      62.503   8.979   3.720  1.00  0.00     0.065 A 
HETATM    4  C   UNL     1      62.334   8.939   2.333  1.00  0.00     0.035 A 
HETATM    5  C   UNL     1      61.809  11.294   2.317  1.00  0.00     0.119 A 
HETATM    6  F   UNL     1      62.616  10.297   5.690  1.00  0.00    -0.204 F 
HETATM    7  C   UNL     1      61.964  10.092   1.633  1.00  0.00     0.044 A 
HETATM    8  F   UNL     1      61.457  12.394   1.640  1.00  0.00    -0.206 F 
ENDROOT
BRANCH   3   9
HETATM    9  N   UNL     1      62.996   7.853   4.400  1.00  0.00    -0.397 N 
HETATM   10  H   UNL     1      63.076   7.867   5.381  1.00  0.00     0.156 HD
HETATM   11  H   UNL     1      63.260   7.050   3.895  1.00  0.00     0.156 HD
ENDBRANCH   3   9
TORSDOF 1
ENDMDL
MODEL 3
REMARK VINA RESULT:      -4.3      1.899      3.239
REMARK  1 active torsions:
REMARK  status: ('A' for Active; 'I' for Inactive)
REMARK    1  A    between atoms: C_3  and  N_7 
ROOT
HETATM    1  C   UNL     1      62.351   9.036   2.336  1.00  0.00     0.145 A 
HETATM    2  C   UNL     1      62.001  10.164   1.604  1.00  0.00     0.086 A 
HETATM    3  C   UNL     1      62.546   9.086   3.726  1.00  0.00     0.065 A 
HETATM    4  C   UNL     1      62.285  10.289   4.388  1.00  0.00     0.035 A 
HETATM    5  C   UNL     1      61.806  11.359   2.279  1.00  0.00     0.119 A 
HETATM    6  F   UNL     1      62.528   7.873   1.687  1.00  0.00    -0.204 F 
HETATM    7  C   UNL     1      61.938  11.433   3.662  1.00  0.00     0.044 A 
HETATM    8  F   UNL     1      61.471  12.458   1.591  1.00  0.00    -0.206 F 
ENDROOT
BRANCH   3   9
HETATM    9  N   UNL     1      62.771   7.913   4.465  1.00  0.00    -0.397 N 
HETATM   10  H   UNL     1      62.166   7.143   4.362  1.00  0.00     0.156 HD
HETATM   11  H   UNL     1      63.534   7.861   5.086  1.00  0.00     0.156 HD
ENDBRANCH   3   9
TORSDOF 1
ENDMDL
MODEL 4
REMARK VINA RESULT:      -4.3      1.597      2.261
REMARK  1 active torsions:
REMARK  status: ('A' for Active; 'I' for Inactive)
REMARK    1  A    between atoms: C_3  and  N_7 
ROOT
HETATM    1  C   UNL     1      63.144   9.359   4.717  1.00  0.00     0.145 A 
HETATM    2  C   UNL     1      62.845   8.864   3.454  1.00  0.00     0.086 A 
HETATM    3  C   UNL     1      62.825  10.675   5.091  1.00  0.00     0.065 A 
HETATM    4  C   UNL     1      62.103  11.462   4.190  1.00  0.00     0.035 A 
HETATM    5  C   UNL     1      62.180   9.687   2.558  1.00  0.00     0.119 A 
HETATM    6  F   UNL     1      63.777   8.560   5.592  1.00  0.00    -0.204 F 
HETATM    7  C   UNL     1      61.801  10.978   2.914  1.00  0.00     0.044 A 
HETATM    8  F   UNL     1      61.884   9.229   1.335  1.00  0.00    -0.206 F 
ENDROOT
BRANCH   3   9
HETATM    9  N   UNL     1      63.017  11.116   6.411  1.00  0.00    -0.397 N 
HETATM   10  H   UNL     1      62.921  12.071   6.630  1.00  0.00     0.156 HD
HETATM   11  H   UNL     1      63.248  10.469   7.117  1.00  0.00     0.156 HD
ENDBRANCH   3   9
TORSDOF 1
ENDMDL
MODEL 5
REMARK VINA RESULT:      -4.3      2.488      3.255
REMARK  1 active torsions:
REMARK  status: ('A' for Active; 'I' for Inactive)
REMARK    1  A    between atoms: C_3  and  N_7 
ROOT
HETATM    1  C   UNL     1      61.837  11.090   2.656  1.00  0.00     0.145 A 
HETATM    2  C   UNL     1      62.043  11.548   3.952  1.00  0.00     0.086 A 
HETATM    3  C   UNL     1      62.186   9.786   2.267  1.00  0.00     0.065 A 
HETATM    4  C   UNL     1      62.664   8.910   3.245  1.00  0.00     0.035 A 
HETATM    5  C   UNL     1      62.573  10.675   4.888  1.00  0.00     0.119 A 
HETATM    6  F   UNL     1      61.311  11.931   1.749  1.00  0.00    -0.204 F 
HETATM    7  C   UNL     1      62.880   9.360   4.552  1.00  0.00     0.044 A 
HETATM    8  F   UNL     1      62.780  11.098   6.142  1.00  0.00    -0.206 F 
ENDROOT
BRANCH   3   9
HETATM    9  N   UNL     1      61.853   9.301   0.992  1.00  0.00    -0.397 N 
HETATM   10  H   UNL     1      60.946   9.442   0.633  1.00  0.00     0.156 HD
HETATM   11  H   UNL     1      62.525   8.821   0.457  1.00  0.00     0.156 HD
ENDBRANCH   3   9
TORSDOF 1
ENDMDL
MODEL 6
REMARK VINA RESULT:      -4.2      2.196      2.716
REMARK  1 active torsions:
REMARK  status: ('A' for Active; 'I' for Inactive)
REMARK    1  A    between atoms: C_3  and  N_7 
ROOT
HETATM    1  C   UNL     1      62.336  11.031   4.353  1.00  0.00     0.145 A 
HETATM    2  C   UNL     1      62.913  10.189   5.296  1.00  0.00     0.086 A 
HETATM    3  C   UNL     1      62.057  10.597   3.046  1.00  0.00     0.065 A 
HETATM    4  C   UNL     1      62.285   9.255   2.732  1.00  0.00     0.035 A 
HETATM    5  C   UNL     1      63.183   8.877   4.939  1.00  0.00     0.119 A 
HETATM    6  F   UNL     1      62.062  12.299   4.700  1.00  0.00    -0.204 F 
HETATM    7  C   UNL     1      62.870   8.399   3.670  1.00  0.00     0.044 A 
HETATM    8  F   UNL     1      63.740   8.051   5.834  1.00  0.00    -0.206 F 
ENDROOT
BRANCH   3   9
HETATM    9  N   UNL     1      61.357  11.420   2.148  1.00  0.00    -0.397 N 
HETATM   10  H   UNL     1      60.412  11.640   2.317  1.00  0.00     0.156 HD
HETATM   11  H   UNL     1      61.812  11.776   1.351  1.00  0.00     0.156 HD
ENDBRANCH   3   9
TORSDOF 1
ENDMDL
MODEL 7
REMARK VINA RESULT:      -4.1      2.423      4.023
REMARK  1 active torsions:
REMARK  status: ('A' for Active; 'I' for Inactive)
REMARK    1  A    between atoms: C_3  and  N_7 
ROOT
HETATM    1  C   UNL     1      62.528   8.915   3.020  1.00  0.00     0.145 A 
HETATM    2  C   UNL     1      62.612   9.622   4.213  1.00  0.00     0.086 A 
HETATM    3  C   UNL     1      62.078   9.516   1.832  1.00  0.00     0.065 A 
HETATM    4  C   UNL     1      61.803  10.886   1.848  1.00  0.00     0.035 A 
HETATM    5  C   UNL     1      62.276  10.967   4.213  1.00  0.00     0.119 A 
HETATM    6  F   UNL     1      62.865   7.615   3.014  1.00  0.00    -0.204 F 
HETATM    7  C   UNL     1      61.878  11.608   3.043  1.00  0.00     0.044 A 
HETATM    8  F   UNL     1      62.349  11.666   5.353  1.00  0.00    -0.206 F 
ENDROOT
BRANCH   3   9
HETATM    9  N   UNL     1      62.123   8.823   0.612  1.00  0.00    -0.397 N 
HETATM   10  H   UNL     1      61.787   9.249  -0.210  1.00  0.00     0.156 HD
HETATM   11  H   UNL     1      62.491   7.910   0.578  1.00  0.00     0.156 HD
ENDBRANCH   3   9
TORSDOF 1
ENDMDL
MODEL 8
REMARK VINA RESULT:      -3.4      5.854      6.587
REMARK  1 active torsions:
REMARK  status: ('A' for Active; 'I' for Inactive)
REMARK    1  A    between atoms: C_3  and  N_7 
ROOT
HETATM    1  C   UNL     1      67.472   6.335   6.759  1.00  0.00     0.145 A 
HETATM    2  C   UNL     1      67.596   5.228   5.929  1.00  0.00     0.086 A 
HETATM    3  C   UNL     1      67.118   7.600   6.259  1.00  0.00     0.065 A 
HETATM    4  C   UNL     1      66.795   7.709   4.904  1.00  0.00     0.035 A 
HETATM    5  C   UNL     1      67.326   5.378   4.577  1.00  0.00     0.119 A 
HETATM    6  F   UNL     1      67.721   6.191   8.071  1.00  0.00    -0.204 F 
HETATM    7  C   UNL     1      66.921   6.603   4.057  1.00  0.00     0.044 A 
HETATM    8  F   UNL     1      67.442   4.323   3.761  1.00  0.00    -0.206 F 
ENDROOT
BRANCH   3   9
HETATM    9  N   UNL     1      66.872   8.675   7.129  1.00  0.00    -0.397 N 
HETATM   10  H   UNL     1      66.728   9.579   6.766  1.00  0.00     0.156 HD
HETATM   11  H   UNL     1      66.841   8.524   8.101  1.00  0.00     0.156 HD
ENDBRANCH   3   9
TORSDOF 1
ENDMDL
MODEL 9
REMARK VINA RESULT:      -3.3      7.037      7.882
REMARK  1 active torsions:
REMARK  status: ('A' for Active; 'I' for Inactive)
REMARK    1  A    between atoms: C_3  and  N_7 
ROOT
HETATM    1  C   UNL     1      67.171   6.243   8.566  1.00  0.00     0.145 A 
HETATM    2  C   UNL     1      67.472   4.894   8.715  1.00  0.00     0.086 A 
HETATM    3  C   UNL     1      67.210   6.875   7.312  1.00  0.00     0.065 A 
HETATM    4  C   UNL     1      67.467   6.092   6.184  1.00  0.00     0.035 A 
HETATM    5  C   UNL     1      67.780   4.153   7.585  1.00  0.00     0.119 A 
HETATM    6  F   UNL     1      66.859   6.961   9.657  1.00  0.00    -0.204 F 
HETATM    7  C   UNL     1      67.776   4.735   6.322  1.00  0.00     0.044 A 
HETATM    8  F   UNL     1      68.074   2.852   7.710  1.00  0.00    -0.206 F 
ENDROOT
BRANCH   3   9
HETATM    9  N   UNL     1      66.779   8.204   7.161  1.00  0.00    -0.397 N 
HETATM   10  H   UNL     1      66.717   8.793   7.948  1.00  0.00     0.156 HD
HETATM   11  H   UNL     1      66.540   8.545   6.269  1.00  0.00     0.156 HD
ENDBRANCH   3   9
TORSDOF 1
ENDMDL
