MODEL 1
REMARK VINA RESULT:      -4.6      0.000      0.000
REMARK  1 active torsions:
REMARK  status: ('A' for Active; 'I' for Inactive)
REMARK    1  A    between atoms: C_8  and  N_9 
ROOT
HETATM    1  C   UNL     1      62.287  10.512   3.801  1.00  0.00     0.107 A 
HETATM    2  C   UNL     1      62.611   9.985   5.036  1.00  0.00     0.068 A 
HETATM    3  C   UNL     1      62.278   9.741   2.664  1.00  0.00     0.105 A 
HETATM    4  O   UNL     1      61.963  11.809   3.551  1.00  0.00    -0.323 OA
HETATM    5  O   UNL     1      61.942  10.453   1.557  1.00  0.00    -0.323 OA
HETATM    6  C   UNL     1      61.687  11.749   2.136  1.00  0.00     0.352 A 
HETATM    7  C   UNL     1      62.600   8.404   2.698  1.00  0.00     0.042 A 
HETATM    8  C   UNL     1      62.881   8.614   5.121  1.00  0.00     0.028 A 
HETATM    9  C   UNL     1      62.921   7.845   3.940  1.00  0.00     0.032 A 
ENDROOT
BRANCH   8  10
HETATM   10  N   UNL     1      63.327   8.060   6.328  1.00  0.00    -0.399 N 
HETATM   11  H   UNL     1      63.323   8.602   7.150  1.00  0.00     0.156 HD
HETATM   12  H   UNL     1      63.646   7.128   6.354  1.00  0.00     0.156 HD
ENDBRANCH   8  10
TORSDOF 1
ENDMDL
MODEL 2
REMARK VINA RESULT:      -4.5      2.074      3.036
REMARK  1 active torsions:
REMARK  status: ('A' for Active; 'I' for Inactive)
REMARK    1  A    between atoms: C_8  and  N_9 
ROOT
HETATM    1  C   UNL     1      62.818   9.638   4.229  1.00  0.00     0.107 A 
HETATM    2  C   UNL     1      62.993   8.474   3.505  1.00  0.00     0.068 A 
HETATM    3  C   UNL     1      62.209  10.743   3.687  1.00  0.00     0.105 A 
HETATM    4  O   UNL     1      63.219   9.844   5.513  1.00  0.00    -0.323 OA
HETATM    5  O   UNL     1      62.145  11.782   4.561  1.00  0.00    -0.323 OA
HETATM    6  C   UNL     1      62.734  11.184   5.734  1.00  0.00     0.352 A 
HETATM    7  C   UNL     1      61.750  10.750   2.390  1.00  0.00     0.042 A 
HETATM    8  C   UNL     1      62.481   8.421   2.204  1.00  0.00     0.028 A 
HETATM    9  C   UNL     1      61.907   9.578   1.640  1.00  0.00     0.032 A 
ENDROOT
BRANCH   8  10
HETATM   10  N   UNL     1      62.738   7.306   1.394  1.00  0.00    -0.399 N 
HETATM   11  H   UNL     1      62.120   6.539   1.400  1.00  0.00     0.156 HD
HETATM   12  H   UNL     1      63.538   7.289   0.819  1.00  0.00     0.156 HD
ENDBRANCH   8  10
TORSDOF 1
ENDMDL
MODEL 3
REMARK VINA RESULT:      -4.5      2.289      3.115
REMARK  1 active torsions:
REMARK  status: ('A' for Active; 'I' for Inactive)
REMARK    1  A    between atoms: C_8  and  N_9 
ROOT
HETATM    1  C   UNL     1      62.293  10.453   3.765  1.00  0.00     0.107 A 
HETATM    2  C   UNL     1      61.858  10.243   2.471  1.00  0.00     0.068 A 
HETATM    3  C   UNL     1      62.979   9.491   4.464  1.00  0.00     0.105 A 
HETATM    4  O   UNL     1      62.098  11.584   4.496  1.00  0.00    -0.323 OA
HETATM    5  O   UNL     1      63.308   9.895   5.719  1.00  0.00    -0.323 OA
HETATM    6  C   UNL     1      62.797  11.244   5.711  1.00  0.00     0.352 A 
HETATM    7  C   UNL     1      63.261   8.262   3.911  1.00  0.00     0.042 A 
HETATM    8  C   UNL     1      62.182   9.030   1.852  1.00  0.00     0.028 A 
HETATM    9  C   UNL     1      62.839   8.030   2.597  1.00  0.00     0.032 A 
ENDROOT
BRANCH   8  10
HETATM   10  N   UNL     1      61.661   8.727   0.586  1.00  0.00    -0.399 N 
HETATM   11  H   UNL     1      60.782   8.292   0.507  1.00  0.00     0.156 HD
HETATM   12  H   UNL     1      62.177   8.948  -0.223  1.00  0.00     0.156 HD
ENDBRANCH   8  10
TORSDOF 1
ENDMDL
MODEL 4
REMARK VINA RESULT:      -4.4      1.528      2.144
REMARK  1 active torsions:
REMARK  status: ('A' for Active; 'I' for Inactive)
REMARK    1  A    between atoms: C_8  and  N_9 
ROOT
HETATM    1  C   UNL     1      62.141   9.962   2.910  1.00  0.00     0.107 A 
HETATM    2  C   UNL     1      62.246  10.841   3.971  1.00  0.00     0.068 A 
HETATM    3  C   UNL     1      62.749   8.731   2.926  1.00  0.00     0.105 A 
HETATM    4  O   UNL     1      61.463  10.191   1.753  1.00  0.00    -0.323 OA
HETATM    5  O   UNL     1      62.528   8.028   1.784  1.00  0.00    -0.323 OA
HETATM    6  C   UNL     1      61.664   8.936   1.071  1.00  0.00     0.352 A 
HETATM    7  C   UNL     1      63.504   8.314   3.998  1.00  0.00     0.042 A 
HETATM    8  C   UNL     1      62.951  10.426   5.106  1.00  0.00     0.028 A 
HETATM    9  C   UNL     1      63.616   9.183   5.089  1.00  0.00     0.032 A 
ENDROOT
BRANCH   8  10
HETATM   10  N   UNL     1      63.184  11.326   6.156  1.00  0.00    -0.399 N 
HETATM   11  H   UNL     1      62.853  11.123   7.061  1.00  0.00     0.156 HD
HETATM   12  H   UNL     1      63.676  12.162   5.987  1.00  0.00     0.156 HD
ENDBRANCH   8  10
TORSDOF 1
ENDMDL
MODEL 5
REMARK VINA RESULT:      -4.3      1.643      2.685
REMARK  1 active torsions:
REMARK  status: ('A' for Active; 'I' for Inactive)
REMARK    1  A    between atoms: C_8  and  N_9 
ROOT
HETATM    1  C   UNL     1      62.666   9.028   3.153  1.00  0.00     0.107 A 
HETATM    2  C   UNL     1      63.005   9.311   4.461  1.00  0.00     0.068 A 
HETATM    3  C   UNL     1      62.051   9.955   2.347  1.00  0.00     0.105 A 
HETATM    4  O   UNL     1      62.870   7.843   2.516  1.00  0.00    -0.323 OA
HETATM    5  O   UNL     1      61.796   9.474   1.102  1.00  0.00    -0.323 OA
HETATM    6  C   UNL     1      62.371   8.155   1.199  1.00  0.00     0.352 A 
HETATM    7  C   UNL     1      61.734  11.213   2.808  1.00  0.00     0.042 A 
HETATM    8  C   UNL     1      62.758  10.600   4.945  1.00  0.00     0.028 A 
HETATM    9  C   UNL     1      62.078  11.526   4.128  1.00  0.00     0.032 A 
ENDROOT
BRANCH   8  10
HETATM   10  N   UNL     1      62.977  10.897   6.298  1.00  0.00    -0.399 N 
HETATM   11  H   UNL     1      63.842  10.679   6.716  1.00  0.00     0.156 HD
HETATM   12  H   UNL     1      62.266  11.321   6.830  1.00  0.00     0.156 HD
ENDBRANCH   8  10
TORSDOF 1
ENDMDL
MODEL 6
REMARK VINA RESULT:      -4.3      2.862      4.061
REMARK  1 active torsions:
REMARK  status: ('A' for Active; 'I' for Inactive)
REMARK    1  A    between atoms: C_8  and  N_9 
ROOT
HETATM    1  C   UNL     1      63.850   8.425   4.117  1.00  0.00     0.107 A 
HETATM    2  C   UNL     1      62.885   8.352   3.132  1.00  0.00     0.068 A 
HETATM    3  C   UNL     1      63.876   9.450   5.031  1.00  0.00     0.105 A 
HETATM    4  O   UNL     1      64.868   7.541   4.301  1.00  0.00    -0.323 OA
HETATM    5  O   UNL     1      64.909   9.338   5.907  1.00  0.00    -0.323 OA
HETATM    6  C   UNL     1      65.498   8.095   5.474  1.00  0.00     0.352 A 
HETATM    7  C   UNL     1      62.945  10.462   5.005  1.00  0.00     0.042 A 
HETATM    8  C   UNL     1      61.882   9.328   3.113  1.00  0.00     0.028 A 
HETATM    9  C   UNL     1      61.950  10.404   4.022  1.00  0.00     0.032 A 
ENDROOT
BRANCH   8  10
HETATM   10  N   UNL     1      60.954   9.361   2.064  1.00  0.00    -0.399 N 
HETATM   11  H   UNL     1      60.874  10.166   1.502  1.00  0.00     0.156 HD
HETATM   12  H   UNL     1      60.381   8.580   1.889  1.00  0.00     0.156 HD
ENDBRANCH   8  10
TORSDOF 1
ENDMDL
MODEL 7
REMARK VINA RESULT:      -4.2      2.722      3.578
REMARK  1 active torsions:
REMARK  status: ('A' for Active; 'I' for Inactive)
REMARK    1  A    between atoms: C_8  and  N_9 
ROOT
HETATM    1  C   UNL     1      62.630   9.375   4.520  1.00  0.00     0.107 A 
HETATM    2  C   UNL     1      62.214  10.588   4.009  1.00  0.00     0.068 A 
HETATM    3  C   UNL     1      62.766   8.263   3.726  1.00  0.00     0.105 A 
HETATM    4  O   UNL     1      62.935   9.122   5.822  1.00  0.00    -0.323 OA
HETATM    5  O   UNL     1      63.177   7.172   4.425  1.00  0.00    -0.323 OA
HETATM    6  C   UNL     1      63.339   7.740   5.741  1.00  0.00     0.352 A 
HETATM    7  C   UNL     1      62.484   8.300   2.379  1.00  0.00     0.042 A 
HETATM    8  C   UNL     1      61.981  10.682   2.632  1.00  0.00     0.028 A 
HETATM    9  C   UNL     1      62.071   9.522   1.837  1.00  0.00     0.032 A 
ENDROOT
BRANCH   8  10
HETATM   10  N   UNL     1      61.445  11.859   2.089  1.00  0.00    -0.399 N 
HETATM   11  H   UNL     1      61.960  12.374   1.427  1.00  0.00     0.156 HD
HETATM   12  H   UNL     1      60.555  12.170   2.372  1.00  0.00     0.156 HD
ENDBRANCH   8  10
TORSDOF 1
ENDMDL
MODEL 8
REMARK VINA RESULT:      -4.1      3.170      3.952
REMARK  1 active torsions:
REMARK  status: ('A' for Active; 'I' for Inactive)
REMARK    1  A    between atoms: C_8  and  N_9 
ROOT
HETATM    1  C   UNL     1      64.435   8.814   5.078  1.00  0.00     0.107 A 
HETATM    2  C   UNL     1      63.310   9.571   4.814  1.00  0.00     0.068 A 
HETATM    3  C   UNL     1      64.714   7.664   4.382  1.00  0.00     0.105 A 
HETATM    4  O   UNL     1      65.369   9.083   6.030  1.00  0.00    -0.323 OA
HETATM    5  O   UNL     1      65.860   7.067   4.803  1.00  0.00    -0.323 OA
HETATM    6  C   UNL     1      66.300   8.004   5.807  1.00  0.00     0.352 A 
HETATM    7  C   UNL     1      63.880   7.202   3.389  1.00  0.00     0.042 A 
HETATM    8  C   UNL     1      62.473   9.169   3.768  1.00  0.00     0.028 A 
HETATM    9  C   UNL     1      62.740   7.959   3.096  1.00  0.00     0.032 A 
ENDROOT
BRANCH   8  10
HETATM   10  N   UNL     1      61.262   9.838   3.541  1.00  0.00    -0.399 N 
HETATM   11  H   UNL     1      60.424   9.327   3.462  1.00  0.00     0.156 HD
HETATM   12  H   UNL     1      61.249  10.820   3.461  1.00  0.00     0.156 HD
ENDBRANCH   8  10
TORSDOF 1
ENDMDL
MODEL 9
REMARK VINA RESULT:      -4.0      2.275      3.241
REMARK  1 active torsions:
REMARK  status: ('A' for Active; 'I' for Inactive)
REMARK    1  A    between atoms: C_8  and  N_9 
ROOT
HETATM    1  C   UNL     1      63.760   8.299   4.126  1.00  0.00     0.107 A 
HETATM    2  C   UNL     1      63.989   9.226   5.123  1.00  0.00     0.068 A 
HETATM    3  C   UNL     1      62.773   8.475   3.186  1.00  0.00     0.105 A 
HETATM    4  O   UNL     1      64.437   7.132   3.953  1.00  0.00    -0.323 OA
HETATM    5  O   UNL     1      62.708   7.445   2.302  1.00  0.00    -0.323 OA
HETATM    6  C   UNL     1      63.804   6.627   2.759  1.00  0.00     0.352 A 
HETATM    7  C   UNL     1      61.956   9.583   3.198  1.00  0.00     0.042 A 
HETATM    8  C   UNL     1      63.222  10.396   5.129  1.00  0.00     0.028 A 
HETATM    9  C   UNL     1      62.177  10.541   4.194  1.00  0.00     0.032 A 
ENDROOT
BRANCH   8  10
HETATM   10  N   UNL     1      63.340  11.308   6.188  1.00  0.00    -0.399 N 
HETATM   11  H   UNL     1      62.535  11.739   6.558  1.00  0.00     0.156 HD
HETATM   12  H   UNL     1      64.226  11.517   6.561  1.00  0.00     0.156 HD
ENDBRANCH   8  10
TORSDOF 1
ENDMDL
