MODEL 1
REMARK VINA RESULT:      -3.9      0.000      0.000
REMARK  1 active torsions:
REMARK  status: ('A' for Active; 'I' for Inactive)
REMARK    1  A    between atoms: C_1  and  C_4 
ROOT
HETATM    1  N   UNL     1      60.224   7.655   2.133  1.00  0.00    -0.075 N 
HETATM    2  C   UNL     1      62.459   9.484   2.623  1.00  0.00     0.090 C 
HETATM    3  C   UNL     1      60.569   8.653   1.122  1.00  0.00     0.233 C 
HETATM    4  C   UNL     1      60.489   8.146   3.483  1.00  0.00     0.233 C 
HETATM    5  C   UNL     1      62.044   9.048   1.211  1.00  0.00     0.043 C 
HETATM    6  C   UNL     1      61.971   8.471   3.661  1.00  0.00     0.043 C 
HETATM    7  H   UNL     1      59.232   7.429   2.052  1.00  0.00     0.277 HD
HETATM    8  H   UNL     1      60.798   6.826   1.975  1.00  0.00     0.277 HD
ENDROOT
BRANCH   2   9
HETATM    9  C   UNL     1      61.972  10.877   2.958  1.00  0.00     0.177 C 
HETATM   10  O   UNL     1      61.564  11.278   4.036  1.00  0.00    -0.648 OA
HETATM   11  O   UNL     1      61.982  11.700   1.889  1.00  0.00    -0.648 OA
ENDBRANCH   2   9
TORSDOF 1
ENDMDL
MODEL 2
REMARK VINA RESULT:      -3.6      2.038      2.564
REMARK  1 active torsions:
REMARK  status: ('A' for Active; 'I' for Inactive)
REMARK    1  A    between atoms: C_1  and  C_4 
ROOT
HETATM    1  N   UNL     1      61.679   6.980   4.730  1.00  0.00    -0.075 N 
HETATM    2  C   UNL     1      63.335   9.358   4.305  1.00  0.00     0.090 C 
HETATM    3  C   UNL     1      61.194   8.043   3.852  1.00  0.00     0.233 C 
HETATM    4  C   UNL     1      62.491   7.514   5.820  1.00  0.00     0.233 C 
HETATM    5  C   UNL     1      62.354   8.836   3.247  1.00  0.00     0.043 C 
HETATM    6  C   UNL     1      63.720   8.240   5.277  1.00  0.00     0.043 C 
HETATM    7  H   UNL     1      60.879   6.485   5.125  1.00  0.00     0.277 HD
HETATM    8  H   UNL     1      62.259   6.347   4.178  1.00  0.00     0.277 HD
ENDROOT
BRANCH   2   9
HETATM    9  C   UNL     1      62.786  10.556   5.052  1.00  0.00     0.177 C 
HETATM   10  O   UNL     1      63.013  10.873   6.208  1.00  0.00    -0.648 OA
HETATM   11  O   UNL     1      61.929  11.283   4.306  1.00  0.00    -0.648 OA
ENDBRANCH   2   9
TORSDOF 1
ENDMDL
MODEL 3
REMARK VINA RESULT:      -3.5      3.178      4.053
REMARK  1 active torsions:
REMARK  status: ('A' for Active; 'I' for Inactive)
REMARK    1  A    between atoms: C_1  and  C_4 
ROOT
HETATM    1  N   UNL     1      62.084  10.512   3.538  1.00  0.00    -0.075 N 
HETATM    2  C   UNL     1      63.379   8.131   4.649  1.00  0.00     0.090 C 
HETATM    3  C   UNL     1      62.609  10.552   4.902  1.00  0.00     0.233 C 
HETATM    4  C   UNL     1      61.595   9.180   3.191  1.00  0.00     0.233 C 
HETATM    5  C   UNL     1      63.753   9.554   5.086  1.00  0.00     0.043 C 
HETATM    6  C   UNL     1      62.721   8.151   3.267  1.00  0.00     0.043 C 
HETATM    7  H   UNL     1      61.315  11.178   3.459  1.00  0.00     0.277 HD
HETATM    8  H   UNL     1      62.839  10.754   2.896  1.00  0.00     0.277 HD
ENDROOT
BRANCH   2   9
HETATM    9  C   UNL     1      62.490   7.437   5.659  1.00  0.00     0.177 C 
HETATM   10  O   UNL     1      61.558   6.683   5.429  1.00  0.00    -0.648 OA
HETATM   11  O   UNL     1      62.795   7.768   6.931  1.00  0.00    -0.648 OA
ENDBRANCH   2   9
TORSDOF 1
ENDMDL
MODEL 4
REMARK VINA RESULT:      -3.4      6.622      7.502
REMARK  1 active torsions:
REMARK  status: ('A' for Active; 'I' for Inactive)
REMARK    1  A    between atoms: C_1  and  C_4 
ROOT
HETATM    1  N   UNL     1      66.234   4.380   8.391  1.00  0.00    -0.075 N 
HETATM    2  C   UNL     1      66.795   6.410   6.355  1.00  0.00     0.090 C 
HETATM    3  C   UNL     1      65.326   4.527   7.255  1.00  0.00     0.233 C 
HETATM    4  C   UNL     1      66.825   5.660   8.773  1.00  0.00     0.233 C 
HETATM    5  C   UNL     1      66.046   5.108   6.038  1.00  0.00     0.043 C 
HETATM    6  C   UNL     1      67.639   6.248   7.622  1.00  0.00     0.043 C 
HETATM    7  H   UNL     1      65.715   4.005   9.185  1.00  0.00     0.277 HD
HETATM    8  H   UNL     1      66.987   3.747   8.120  1.00  0.00     0.277 HD
ENDROOT
BRANCH   2   9
HETATM    9  C   UNL     1      65.858   7.593   6.479  1.00  0.00     0.177 C 
HETATM   10  O   UNL     1      64.643   7.589   6.355  1.00  0.00    -0.648 OA
HETATM   11  O   UNL     1      66.511   8.750   6.712  1.00  0.00    -0.648 OA
ENDBRANCH   2   9
TORSDOF 1
ENDMDL
MODEL 5
REMARK VINA RESULT:      -3.3      2.834      3.609
REMARK  1 active torsions:
REMARK  status: ('A' for Active; 'I' for Inactive)
REMARK    1  A    between atoms: C_1  and  C_4 
ROOT
HETATM    1  N   UNL     1      61.143   9.810   3.388  1.00  0.00    -0.075 N 
HETATM    2  C   UNL     1      62.996   8.502   5.242  1.00  0.00     0.090 C 
HETATM    3  C   UNL     1      61.394   8.376   3.258  1.00  0.00     0.233 C 
HETATM    4  C   UNL     1      62.327  10.520   3.867  1.00  0.00     0.233 C 
HETATM    5  C   UNL     1      61.818   7.762   4.593  1.00  0.00     0.043 C 
HETATM    6  C   UNL     1      62.744  10.012   5.246  1.00  0.00     0.043 C 
HETATM    7  H   UNL     1      60.878  10.185   2.477  1.00  0.00     0.277 HD
HETATM    8  H   UNL     1      60.392   9.944   4.066  1.00  0.00     0.277 HD
ENDROOT
BRANCH   2   9
HETATM    9  C   UNL     1      64.314   8.177   4.571  1.00  0.00     0.177 C 
HETATM   10  O   UNL     1      64.514   7.346   3.699  1.00  0.00    -0.648 OA
HETATM   11  O   UNL     1      65.341   8.895   5.070  1.00  0.00    -0.648 OA
ENDBRANCH   2   9
TORSDOF 1
ENDMDL
MODEL 6
REMARK VINA RESULT:      -3.3      7.165      8.061
REMARK  1 active torsions:
REMARK  status: ('A' for Active; 'I' for Inactive)
REMARK    1  A    between atoms: C_1  and  C_4 
ROOT
HETATM    1  N   UNL     1      67.462   4.972   4.672  1.00  0.00    -0.075 N 
HETATM    2  C   UNL     1      67.479   6.290   7.288  1.00  0.00     0.090 C 
HETATM    3  C   UNL     1      66.804   6.269   4.827  1.00  0.00     0.233 C 
HETATM    4  C   UNL     1      67.375   4.179   5.895  1.00  0.00     0.233 C 
HETATM    5  C   UNL     1      67.423   7.074   5.970  1.00  0.00     0.043 C 
HETATM    6  C   UNL     1      68.062   4.893   7.057  1.00  0.00     0.043 C 
HETATM    7  H   UNL     1      67.012   4.461   3.912  1.00  0.00     0.277 HD
HETATM    8  H   UNL     1      68.447   5.136   4.465  1.00  0.00     0.277 HD
ENDROOT
BRANCH   2   9
HETATM    9  C   UNL     1      66.125   6.205   7.960  1.00  0.00     0.177 C 
HETATM   10  O   UNL     1      65.154   6.917   7.759  1.00  0.00    -0.648 OA
HETATM   11  O   UNL     1      66.073   5.240   8.901  1.00  0.00    -0.648 OA
ENDBRANCH   2   9
TORSDOF 1
ENDMDL
MODEL 7
REMARK VINA RESULT:      -3.3     12.145     13.373
REMARK  1 active torsions:
REMARK  status: ('A' for Active; 'I' for Inactive)
REMARK    1  A    between atoms: C_1  and  C_4 
ROOT
HETATM    1  N   UNL     1      57.851   0.649  14.664  1.00  0.00    -0.075 N 
HETATM    2  C   UNL     1      58.297   1.525  11.904  1.00  0.00     0.090 C 
HETATM    3  C   UNL     1      56.763   0.542  13.693  1.00  0.00     0.233 C 
HETATM    4  C   UNL     1      58.704   1.802  14.387  1.00  0.00     0.233 C 
HETATM    5  C   UNL     1      57.301   0.414  12.267  1.00  0.00     0.043 C 
HETATM    6  C   UNL     1      59.347   1.684  13.006  1.00  0.00     0.043 C 
HETATM    7  H   UNL     1      57.454   0.748  15.598  1.00  0.00     0.277 HD
HETATM    8  H   UNL     1      58.421  -0.194  14.600  1.00  0.00     0.277 HD
ENDROOT
BRANCH   2   9
HETATM    9  C   UNL     1      57.606   2.842  11.622  1.00  0.00     0.177 C 
HETATM   10  O   UNL     1      56.535   3.224  12.066  1.00  0.00    -0.648 OA
HETATM   11  O   UNL     1      58.288   3.607  10.745  1.00  0.00    -0.648 OA
ENDBRANCH   2   9
TORSDOF 1
ENDMDL
MODEL 8
REMARK VINA RESULT:      -3.2      6.037      6.715
REMARK  1 active torsions:
REMARK  status: ('A' for Active; 'I' for Inactive)
REMARK    1  A    between atoms: C_1  and  C_4 
ROOT
HETATM    1  N   UNL     1      66.323   4.836   4.149  1.00  0.00    -0.075 N 
HETATM    2  C   UNL     1      67.405   6.976   5.832  1.00  0.00     0.090 C 
HETATM    3  C   UNL     1      66.054   6.230   3.799  1.00  0.00     0.233 C 
HETATM    4  C   UNL     1      66.419   4.657   5.595  1.00  0.00     0.233 C 
HETATM    5  C   UNL     1      67.147   7.158   4.330  1.00  0.00     0.043 C 
HETATM    6  C   UNL     1      67.560   5.492   6.172  1.00  0.00     0.043 C 
HETATM    7  H   UNL     1      65.567   4.252   3.792  1.00  0.00     0.277 HD
HETATM    8  H   UNL     1      67.215   4.568   3.733  1.00  0.00     0.277 HD
ENDROOT
BRANCH   2   9
HETATM    9  C   UNL     1      66.325   7.615   6.679  1.00  0.00     0.177 C 
HETATM   10  O   UNL     1      65.659   7.081   7.552  1.00  0.00    -0.648 OA
HETATM   11  O   UNL     1      66.103   8.904   6.350  1.00  0.00    -0.648 OA
ENDBRANCH   2   9
TORSDOF 1
ENDMDL
MODEL 9
REMARK VINA RESULT:      -3.2      2.439      3.394
REMARK  1 active torsions:
REMARK  status: ('A' for Active; 'I' for Inactive)
REMARK    1  A    between atoms: C_1  and  C_4 
ROOT
HETATM    1  N   UNL     1      63.021   7.487   2.252  1.00  0.00    -0.075 N 
HETATM    2  C   UNL     1      62.744   8.380   5.028  1.00  0.00     0.090 C 
HETATM    3  C   UNL     1      63.977   7.019   3.255  1.00  0.00     0.233 C 
HETATM    4  C   UNL     1      62.557   8.841   2.546  1.00  0.00     0.233 C 
HETATM    5  C   UNL     1      63.361   7.025   4.655  1.00  0.00     0.043 C 
HETATM    6  C   UNL     1      61.847   8.890   3.897  1.00  0.00     0.043 C 
HETATM    7  H   UNL     1      63.472   7.483   1.336  1.00  0.00     0.277 HD
HETATM    8  H   UNL     1      62.215   6.862   2.260  1.00  0.00     0.277 HD
ENDROOT
BRANCH   2   9
HETATM    9  C   UNL     1      63.795   9.408   5.388  1.00  0.00     0.177 C 
HETATM   10  O   UNL     1      64.997   9.225   5.505  1.00  0.00    -0.648 OA
HETATM   11  O   UNL     1      63.269  10.625   5.629  1.00  0.00    -0.648 OA
ENDBRANCH   2   9
TORSDOF 1
ENDMDL
