MODEL 1
REMARK VINA RESULT:      -4.2      0.000      0.000
REMARK  1 active torsions:
REMARK  status: ('A' for Active; 'I' for Inactive)
REMARK    1  A    between atoms: C_1  and  N_7 
ROOT
HETATM    1  C   UNL     1      62.816  10.757   5.345  1.00  0.00     0.029 A 
HETATM    2  C   UNL     1      62.922   8.837   3.867  1.00  0.00     0.037 A 
HETATM    3  C   UNL     1      62.025  10.906   3.058  1.00  0.00     0.037 A 
HETATM    4  C   UNL     1      62.277  11.504   4.294  1.00  0.00     0.052 A 
HETATM    5  C   UNL     1      63.178   9.429   5.107  1.00  0.00     0.052 A 
HETATM    6  C   UNL     1      62.341   9.569   2.838  1.00  0.00     0.048 A 
HETATM    7 CL   UNL     1      61.336  11.838   1.786  1.00  0.00    -0.084 Cl
HETATM    8 CL   UNL     1      63.350   7.190   3.606  1.00  0.00    -0.084 Cl
ENDROOT
BRANCH   1   9
HETATM    9  N   UNL     1      63.205  11.391   6.532  1.00  0.00    -0.399 N 
HETATM   10  H   UNL     1      62.811  12.259   6.777  1.00  0.00     0.156 HD
HETATM   11  H   UNL     1      63.871  10.968   7.120  1.00  0.00     0.156 HD
ENDBRANCH   1   9
TORSDOF 1
ENDMDL
MODEL 2
REMARK VINA RESULT:      -4.0      1.238      1.409
REMARK  1 active torsions:
REMARK  status: ('A' for Active; 'I' for Inactive)
REMARK    1  A    between atoms: C_1  and  N_7 
ROOT
HETATM    1  C   UNL     1      63.073  10.241   5.095  1.00  0.00     0.029 A 
HETATM    2  C   UNL     1      63.922   8.141   4.227  1.00  0.00     0.037 A 
HETATM    3  C   UNL     1      62.300   9.375   2.966  1.00  0.00     0.037 A 
HETATM    4  C   UNL     1      62.294  10.373   3.942  1.00  0.00     0.052 A 
HETATM    5  C   UNL     1      63.922   9.137   5.207  1.00  0.00     0.052 A 
HETATM    6  C   UNL     1      63.109   8.251   3.104  1.00  0.00     0.048 A 
HETATM    7 CL   UNL     1      61.312   9.545   1.567  1.00  0.00    -0.084 Cl
HETATM    8 CL   UNL     1      64.954   6.775   4.401  1.00  0.00    -0.084 Cl
ENDROOT
BRANCH   1   9
HETATM    9  N   UNL     1      63.180  11.306   5.998  1.00  0.00    -0.399 N 
HETATM   10  H   UNL     1      62.415  11.910   6.138  1.00  0.00     0.156 HD
HETATM   11  H   UNL     1      64.018  11.450   6.492  1.00  0.00     0.156 HD
ENDBRANCH   1   9
TORSDOF 1
ENDMDL
MODEL 3
REMARK VINA RESULT:      -3.9      1.501      3.296
REMARK  1 active torsions:
REMARK  status: ('A' for Active; 'I' for Inactive)
REMARK    1  A    between atoms: C_1  and  N_7 
ROOT
HETATM    1  C   UNL     1      62.777   9.120   4.405  1.00  0.00     0.029 A 
HETATM    2  C   UNL     1      62.056  10.522   2.561  1.00  0.00     0.037 A 
HETATM    3  C   UNL     1      62.535   8.206   2.172  1.00  0.00     0.037 A 
HETATM    4  C   UNL     1      62.827   8.034   3.526  1.00  0.00     0.052 A 
HETATM    5  C   UNL     1      62.345  10.357   3.918  1.00  0.00     0.052 A 
HETATM    6  C   UNL     1      62.153   9.450   1.679  1.00  0.00     0.048 A 
HETATM    7 CL   UNL     1      62.629   6.860   1.103  1.00  0.00    -0.084 Cl
HETATM    8 CL   UNL     1      61.554  12.061   1.979  1.00  0.00    -0.084 Cl
ENDROOT
BRANCH   1   9
HETATM    9  N   UNL     1      62.924   8.918   5.782  1.00  0.00    -0.399 N 
HETATM   10  H   UNL     1      62.181   8.541   6.306  1.00  0.00     0.156 HD
HETATM   11  H   UNL     1      63.770   9.152   6.226  1.00  0.00     0.156 HD
ENDBRANCH   1   9
TORSDOF 1
ENDMDL
MODEL 4
REMARK VINA RESULT:      -3.9      2.642      3.183
REMARK  1 active torsions:
REMARK  status: ('A' for Active; 'I' for Inactive)
REMARK    1  A    between atoms: C_1  and  N_7 
ROOT
HETATM    1  C   UNL     1      61.859  10.515   2.369  1.00  0.00     0.029 A 
HETATM    2  C   UNL     1      62.670   8.821   3.904  1.00  0.00     0.037 A 
HETATM    3  C   UNL     1      62.447   8.300   1.576  1.00  0.00     0.037 A 
HETATM    4  C   UNL     1      62.012   9.602   1.322  1.00  0.00     0.052 A 
HETATM    5  C   UNL     1      62.236  10.126   3.657  1.00  0.00     0.052 A 
HETATM    6  C   UNL     1      62.775   7.900   2.868  1.00  0.00     0.048 A 
HETATM    7 CL   UNL     1      62.602   7.184   0.275  1.00  0.00    -0.084 Cl
HETATM    8 CL   UNL     1      63.100   8.356   5.505  1.00  0.00    -0.084 Cl
ENDROOT
BRANCH   1   9
HETATM    9  N   UNL     1      61.566  11.856   2.095  1.00  0.00    -0.399 N 
HETATM   10  H   UNL     1      60.648  12.193   2.211  1.00  0.00     0.156 HD
HETATM   11  H   UNL     1      62.278  12.463   1.788  1.00  0.00     0.156 HD
ENDBRANCH   1   9
TORSDOF 1
ENDMDL
MODEL 5
REMARK VINA RESULT:      -3.9      1.288      3.162
REMARK  1 active torsions:
REMARK  status: ('A' for Active; 'I' for Inactive)
REMARK    1  A    between atoms: C_1  and  N_7 
ROOT
HETATM    1  C   UNL     1      63.170  10.266   4.954  1.00  0.00     0.029 A 
HETATM    2  C   UNL     1      62.293   9.280   2.917  1.00  0.00     0.037 A 
HETATM    3  C   UNL     1      63.914   8.080   4.212  1.00  0.00     0.037 A 
HETATM    4  C   UNL     1      63.938   9.115   5.149  1.00  0.00     0.052 A 
HETATM    5  C   UNL     1      62.312  10.319   3.852  1.00  0.00     0.052 A 
HETATM    6  C   UNL     1      63.096   8.157   3.089  1.00  0.00     0.048 A 
HETATM    7 CL   UNL     1      64.890   6.684   4.459  1.00  0.00    -0.084 Cl
HETATM    8 CL   UNL     1      61.251   9.382   1.552  1.00  0.00    -0.084 Cl
ENDROOT
BRANCH   1   9
HETATM    9  N   UNL     1      63.082  11.233   5.962  1.00  0.00    -0.399 N 
HETATM   10  H   UNL     1      62.736  10.987   6.850  1.00  0.00     0.156 HD
HETATM   11  H   UNL     1      63.366  12.157   5.783  1.00  0.00     0.156 HD
ENDBRANCH   1   9
TORSDOF 1
ENDMDL
MODEL 6
REMARK VINA RESULT:      -3.8      2.769      4.429
REMARK  1 active torsions:
REMARK  status: ('A' for Active; 'I' for Inactive)
REMARK    1  A    between atoms: C_1  and  N_7 
ROOT
HETATM    1  C   UNL     1      62.372   8.124   1.616  1.00  0.00     0.029 A 
HETATM    2  C   UNL     1      61.993  10.418   2.307  1.00  0.00     0.037 A 
HETATM    3  C   UNL     1      62.550   8.764   3.948  1.00  0.00     0.037 A 
HETATM    4  C   UNL     1      62.646   7.796   2.947  1.00  0.00     0.052 A 
HETATM    5  C   UNL     1      62.088   9.455   1.299  1.00  0.00     0.052 A 
HETATM    6  C   UNL     1      62.220  10.078   3.636  1.00  0.00     0.048 A 
HETATM    7 CL   UNL     1      62.867   8.331   5.584  1.00  0.00    -0.084 Cl
HETATM    8 CL   UNL     1      61.614  12.046   1.895  1.00  0.00    -0.084 Cl
ENDROOT
BRANCH   1   9
HETATM    9  N   UNL     1      62.611   7.193   0.598  1.00  0.00    -0.399 N 
HETATM   10  H   UNL     1      63.456   7.222   0.094  1.00  0.00     0.156 HD
HETATM   11  H   UNL     1      61.935   6.510   0.387  1.00  0.00     0.156 HD
ENDBRANCH   1   9
TORSDOF 1
ENDMDL
MODEL 7
REMARK VINA RESULT:      -3.7      2.609      3.101
REMARK  1 active torsions:
REMARK  status: ('A' for Active; 'I' for Inactive)
REMARK    1  A    between atoms: C_1  and  N_7 
ROOT
HETATM    1  C   UNL     1      61.933   9.326   2.622  1.00  0.00     0.029 A 
HETATM    2  C   UNL     1      63.679   8.071   3.745  1.00  0.00     0.037 A 
HETATM    3  C   UNL     1      62.875  10.110   4.715  1.00  0.00     0.037 A 
HETATM    4  C   UNL     1      61.964  10.254   3.667  1.00  0.00     0.052 A 
HETATM    5  C   UNL     1      62.769   8.208   2.694  1.00  0.00     0.052 A 
HETATM    6  C   UNL     1      63.741   9.022   4.759  1.00  0.00     0.048 A 
HETATM    7 CL   UNL     1      62.914  11.279   5.977  1.00  0.00    -0.084 Cl
HETATM    8 CL   UNL     1      64.719   6.701   3.797  1.00  0.00    -0.084 Cl
ENDROOT
BRANCH   1   9
HETATM    9  N   UNL     1      60.924   9.390   1.654  1.00  0.00    -0.399 N 
HETATM   10  H   UNL     1      60.016   9.670   1.908  1.00  0.00     0.156 HD
HETATM   11  H   UNL     1      61.124   9.155   0.719  1.00  0.00     0.156 HD
ENDBRANCH   1   9
TORSDOF 1
ENDMDL
MODEL 8
REMARK VINA RESULT:      -3.6      2.665      3.324
REMARK  1 active torsions:
REMARK  status: ('A' for Active; 'I' for Inactive)
REMARK    1  A    between atoms: C_1  and  N_7 
ROOT
HETATM    1  C   UNL     1      63.837   7.793   3.846  1.00  0.00     0.029 A 
HETATM    2  C   UNL     1      62.151   8.923   2.517  1.00  0.00     0.037 A 
HETATM    3  C   UNL     1      62.911   9.917   4.561  1.00  0.00     0.037 A 
HETATM    4  C   UNL     1      63.798   8.856   4.752  1.00  0.00     0.052 A 
HETATM    5  C   UNL     1      63.037   7.858   2.702  1.00  0.00     0.052 A 
HETATM    6  C   UNL     1      62.080   9.956   3.446  1.00  0.00     0.048 A 
HETATM    7 CL   UNL     1      62.862  11.202   5.704  1.00  0.00    -0.084 Cl
HETATM    8 CL   UNL     1      61.154   8.967   1.115  1.00  0.00    -0.084 Cl
ENDROOT
BRANCH   1   9
HETATM    9  N   UNL     1      64.825   6.808   3.958  1.00  0.00    -0.399 N 
HETATM   10  H   UNL     1      64.569   5.860   4.036  1.00  0.00     0.156 HD
HETATM   11  H   UNL     1      65.776   7.062   3.959  1.00  0.00     0.156 HD
ENDBRANCH   1   9
TORSDOF 1
ENDMDL
MODEL 9
REMARK VINA RESULT:      -3.5      1.907      2.305
REMARK  1 active torsions:
REMARK  status: ('A' for Active; 'I' for Inactive)
REMARK    1  A    between atoms: C_1  and  N_7 
ROOT
HETATM    1  C   UNL     1      64.136   8.319   5.146  1.00  0.00     0.029 A 
HETATM    2  C   UNL     1      63.237   7.739   2.969  1.00  0.00     0.037 A 
HETATM    3  C   UNL     1      62.678   9.849   3.958  1.00  0.00     0.037 A 
HETATM    4  C   UNL     1      63.481   9.551   5.060  1.00  0.00     0.052 A 
HETATM    5  C   UNL     1      64.043   7.434   4.069  1.00  0.00     0.052 A 
HETATM    6  C   UNL     1      62.547   8.945   2.908  1.00  0.00     0.048 A 
HETATM    7 CL   UNL     1      61.859  11.361   3.885  1.00  0.00    -0.084 Cl
HETATM    8 CL   UNL     1      63.114   6.619   1.668  1.00  0.00    -0.084 Cl
ENDROOT
BRANCH   1   9
HETATM    9  N   UNL     1      65.055   8.081   6.176  1.00  0.00    -0.399 N 
HETATM   10  H   UNL     1      65.948   8.493   6.143  1.00  0.00     0.156 HD
HETATM   11  H   UNL     1      64.806   7.504   6.933  1.00  0.00     0.156 HD
ENDBRANCH   1   9
TORSDOF 1
ENDMDL
