MODEL 1
REMARK VINA RESULT:      -4.2      0.000      0.000
REMARK  1 active torsions:
REMARK  status: ('A' for Active; 'I' for Inactive)
REMARK    1  A    between atoms: C_1  and  C_6 
ROOT
HETATM    1  C   UNL     1      63.247   9.505   4.480  1.00  0.00     0.209 A 
HETATM    2  N   UNL     1      63.627   8.313   3.943  1.00  0.00    -0.308 N 
HETATM    3  N   UNL     1      63.919   9.827   5.560  1.00  0.00    -0.279 N 
ATOM      4  HN  UNL     1      63.812  10.666   6.130  1.00  0.00     0.188 HD
HETATM    5  C   UNL     1      64.624   7.842   4.769  1.00  0.00     0.194 A 
HETATM    6  N   UNL     1      64.787   8.798   5.754  1.00  0.00    -0.274 N 
HETATM    7  S   UNL     1      65.502   6.441   4.687  1.00  0.00    -0.039 SA
HETATM    8  C   UNL     1      63.161   7.627   2.748  1.00  0.00     0.160 C 
HETATM    9  H   UNL     1      65.439   8.742   6.490  1.00  0.00     0.189 HD
ENDROOT
BRANCH   1  10
HETATM   10  C   UNL     1      62.150  10.411   3.928  1.00  0.00     0.450 C 
HETATM   11  F   UNL     1      62.313  10.778   2.629  1.00  0.00    -0.163 F 
HETATM   12  F   UNL     1      60.924   9.820   3.991  1.00  0.00    -0.163 F 
HETATM   13  F   UNL     1      62.051  11.575   4.631  1.00  0.00    -0.163 F 
ENDBRANCH   1  10
TORSDOF 1
ENDMDL
MODEL 2
REMARK VINA RESULT:      -4.2      2.756      3.377
REMARK  1 active torsions:
REMARK  status: ('A' for Active; 'I' for Inactive)
REMARK    1  A    between atoms: C_1  and  C_6 
ROOT
HETATM    1  C   UNL     1      62.484   9.910   3.820  1.00  0.00     0.209 A 
HETATM    2  N   UNL     1      62.720   8.863   2.984  1.00  0.00    -0.308 N 
HETATM    3  N   UNL     1      61.748  10.852   3.281  1.00  0.00    -0.279 N 
ATOM      4  HN  UNL     1      61.441  11.725   3.711  1.00  0.00     0.188 HD
HETATM    5  C   UNL     1      62.076   9.183   1.808  1.00  0.00     0.194 A 
HETATM    6  N   UNL     1      61.481  10.412   2.021  1.00  0.00    -0.274 N 
HETATM    7  S   UNL     1      61.979   8.343   0.385  1.00  0.00    -0.039 SA
HETATM    8  C   UNL     1      63.450   7.625   3.207  1.00  0.00     0.160 C 
HETATM    9  H   UNL     1      60.941  10.898   1.357  1.00  0.00     0.189 HD
ENDROOT
BRANCH   1  10
HETATM   10  C   UNL     1      63.008  10.034   5.249  1.00  0.00     0.450 C 
HETATM   11  F   UNL     1      64.359   9.944   5.370  1.00  0.00    -0.163 F 
HETATM   12  F   UNL     1      62.666  11.225   5.814  1.00  0.00    -0.163 F 
HETATM   13  F   UNL     1      62.499   9.064   6.061  1.00  0.00    -0.163 F 
ENDBRANCH   1  10
TORSDOF 1
ENDMDL
MODEL 3
REMARK VINA RESULT:      -4.0      1.782      2.072
REMARK  1 active torsions:
REMARK  status: ('A' for Active; 'I' for Inactive)
REMARK    1  A    between atoms: C_1  and  C_6 
ROOT
HETATM    1  C   UNL     1      62.381   9.517   3.091  1.00  0.00     0.209 A 
HETATM    2  N   UNL     1      62.936   8.320   3.423  1.00  0.00    -0.308 N 
HETATM    3  N   UNL     1      62.321  10.360   4.095  1.00  0.00    -0.279 N 
ATOM      4  HN  UNL     1      61.950  11.310   4.087  1.00  0.00     0.188 HD
HETATM    5  C   UNL     1      63.246   8.420   4.762  1.00  0.00     0.194 A 
HETATM    6  N   UNL     1      62.861   9.690   5.148  1.00  0.00    -0.274 N 
HETATM    7  S   UNL     1      63.934   7.312   5.781  1.00  0.00    -0.039 SA
HETATM    8  C   UNL     1      63.210   7.149   2.604  1.00  0.00     0.160 C 
HETATM    9  H   UNL     1      62.964  10.057   6.056  1.00  0.00     0.189 HD
ENDROOT
BRANCH   1  10
HETATM   10  C   UNL     1      61.854   9.892   1.708  1.00  0.00     0.450 C 
HETATM   11  F   UNL     1      62.710   9.636   0.684  1.00  0.00    -0.163 F 
HETATM   12  F   UNL     1      60.707   9.224   1.404  1.00  0.00    -0.163 F 
HETATM   13  F   UNL     1      61.559  11.220   1.620  1.00  0.00    -0.163 F 
ENDBRANCH   1  10
TORSDOF 1
ENDMDL
MODEL 4
REMARK VINA RESULT:      -4.0      5.353      6.067
REMARK  1 active torsions:
REMARK  status: ('A' for Active; 'I' for Inactive)
REMARK    1  A    between atoms: C_1  and  C_6 
ROOT
HETATM    1  C   UNL     1      66.526   6.942   7.421  1.00  0.00     0.209 A 
HETATM    2  N   UNL     1      65.507   6.676   6.559  1.00  0.00    -0.308 N 
HETATM    3  N   UNL     1      66.951   8.182   7.359  1.00  0.00    -0.279 N 
ATOM      4  HN  UNL     1      67.697   8.611   7.905  1.00  0.00     0.188 HD
HETATM    5  C   UNL     1      65.278   7.858   5.889  1.00  0.00     0.194 A 
HETATM    6  N   UNL     1      66.178   8.770   6.406  1.00  0.00    -0.274 N 
HETATM    7  S   UNL     1      64.182   8.213   4.700  1.00  0.00    -0.039 SA
HETATM    8  C   UNL     1      64.748   5.453   6.346  1.00  0.00     0.160 C 
HETATM    9  H   UNL     1      66.249   9.712   6.126  1.00  0.00     0.189 HD
ENDROOT
BRANCH   1  10
HETATM   10  C   UNL     1      67.157   5.934   8.379  1.00  0.00     0.450 C 
HETATM   11  F   UNL     1      66.278   5.302   9.200  1.00  0.00    -0.163 F 
HETATM   12  F   UNL     1      67.815   4.945   7.713  1.00  0.00    -0.163 F 
HETATM   13  F   UNL     1      68.074   6.520   9.199  1.00  0.00    -0.163 F 
ENDBRANCH   1  10
TORSDOF 1
ENDMDL
MODEL 5
REMARK VINA RESULT:      -3.8      3.079      3.871
REMARK  1 active torsions:
REMARK  status: ('A' for Active; 'I' for Inactive)
REMARK    1  A    between atoms: C_1  and  C_6 
ROOT
HETATM    1  C   UNL     1      65.369   7.618   6.178  1.00  0.00     0.209 A 
HETATM    2  N   UNL     1      65.407   6.386   6.755  1.00  0.00    -0.308 N 
HETATM    3  N   UNL     1      66.326   8.415   6.588  1.00  0.00    -0.279 N 
ATOM      4  HN  UNL     1      66.500   9.378   6.297  1.00  0.00     0.188 HD
HETATM    5  C   UNL     1      66.486   6.419   7.613  1.00  0.00     0.194 A 
HETATM    6  N   UNL     1      67.037   7.680   7.485  1.00  0.00    -0.274 N 
HETATM    7  S   UNL     1      67.077   5.250   8.625  1.00  0.00    -0.039 SA
HETATM    8  C   UNL     1      64.559   5.223   6.551  1.00  0.00     0.160 C 
HETATM    9  H   UNL     1      67.831   7.999   7.972  1.00  0.00     0.189 HD
ENDROOT
BRANCH   1  10
HETATM   10  C   UNL     1      64.332   8.081   5.158  1.00  0.00     0.450 C 
HETATM   11  F   UNL     1      63.040   7.884   5.528  1.00  0.00    -0.163 F 
HETATM   12  F   UNL     1      64.440   9.414   4.895  1.00  0.00    -0.163 F 
HETATM   13  F   UNL     1      64.476   7.442   3.962  1.00  0.00    -0.163 F 
ENDBRANCH   1  10
TORSDOF 1
ENDMDL
MODEL 6
REMARK VINA RESULT:      -3.7      2.904      3.597
REMARK  1 active torsions:
REMARK  status: ('A' for Active; 'I' for Inactive)
REMARK    1  A    between atoms: C_1  and  C_6 
ROOT
HETATM    1  C   UNL     1      62.323   8.876   2.538  1.00  0.00     0.209 A 
HETATM    2  N   UNL     1      62.256  10.110   3.105  1.00  0.00    -0.308 N 
HETATM    3  N   UNL     1      62.770   7.950   3.353  1.00  0.00    -0.279 N 
ATOM      4  HN  UNL     1      62.904   6.959   3.154  1.00  0.00     0.188 HD
HETATM    5  C   UNL     1      62.709   9.943   4.396  1.00  0.00     0.194 A 
HETATM    6  N   UNL     1      63.014   8.602   4.522  1.00  0.00    -0.274 N 
HETATM    7  S   UNL     1      62.891  11.051   5.612  1.00  0.00    -0.039 SA
HETATM    8  C   UNL     1      61.791  11.375   2.558  1.00  0.00     0.160 C 
HETATM    9  H   UNL     1      63.358   8.177   5.342  1.00  0.00     0.189 HD
ENDROOT
BRANCH   1  10
HETATM   10  C   UNL     1      61.941   8.546   1.097  1.00  0.00     0.450 C 
HETATM   11  F   UNL     1      62.112   7.244   0.746  1.00  0.00    -0.163 F 
HETATM   12  F   UNL     1      60.632   8.826   0.842  1.00  0.00    -0.163 F 
HETATM   13  F   UNL     1      62.669   9.269   0.200  1.00  0.00    -0.163 F 
ENDBRANCH   1  10
TORSDOF 1
ENDMDL
MODEL 7
REMARK VINA RESULT:      -3.6      3.778      4.278
REMARK  1 active torsions:
REMARK  status: ('A' for Active; 'I' for Inactive)
REMARK    1  A    between atoms: C_1  and  C_6 
ROOT
HETATM    1  C   UNL     1      65.251   8.274   5.350  1.00  0.00     0.209 A 
HETATM    2  N   UNL     1      64.810   7.565   4.276  1.00  0.00    -0.308 N 
HETATM    3  N   UNL     1      64.440   9.244   5.702  1.00  0.00    -0.279 N 
ATOM      4  HN  UNL     1      64.558   9.903   6.472  1.00  0.00     0.188 HD
HETATM    5  C   UNL     1      63.615   8.150   3.918  1.00  0.00     0.194 A 
HETATM    6  N   UNL     1      63.409   9.178   4.817  1.00  0.00    -0.274 N 
HETATM    7  S   UNL     1      62.573   7.776   2.687  1.00  0.00    -0.039 SA
HETATM    8  C   UNL     1      65.390   6.411   3.606  1.00  0.00     0.160 C 
HETATM    9  H   UNL     1      62.627   9.777   4.818  1.00  0.00     0.189 HD
ENDROOT
BRANCH   1  10
HETATM   10  C   UNL     1      66.555   8.018   6.101  1.00  0.00     0.450 C 
HETATM   11  F   UNL     1      66.725   8.770   7.221  1.00  0.00    -0.163 F 
HETATM   12  F   UNL     1      66.660   6.722   6.508  1.00  0.00    -0.163 F 
HETATM   13  F   UNL     1      67.646   8.264   5.321  1.00  0.00    -0.163 F 
ENDBRANCH   1  10
TORSDOF 1
ENDMDL
MODEL 8
REMARK VINA RESULT:      -3.6      1.833      2.899
REMARK  1 active torsions:
REMARK  status: ('A' for Active; 'I' for Inactive)
REMARK    1  A    between atoms: C_1  and  C_6 
ROOT
HETATM    1  C   UNL     1      62.769   8.432   2.479  1.00  0.00     0.209 A 
HETATM    2  N   UNL     1      63.015   8.750   3.779  1.00  0.00    -0.308 N 
HETATM    3  N   UNL     1      63.260   7.268   2.125  1.00  0.00    -0.279 N 
ATOM      4  HN  UNL     1      63.200   6.821   1.210  1.00  0.00     0.188 HD
HETATM    5  C   UNL     1      63.735   7.688   4.284  1.00  0.00     0.194 A 
HETATM    6  N   UNL     1      63.865   6.788   3.244  1.00  0.00    -0.274 N 
HETATM    7  S   UNL     1      64.357   7.448   5.799  1.00  0.00    -0.039 SA
HETATM    8  C   UNL     1      62.620   9.914   4.556  1.00  0.00     0.160 C 
HETATM    9  H   UNL     1      64.330   5.921   3.305  1.00  0.00     0.189 HD
ENDROOT
BRANCH   1  10
HETATM   10  C   UNL     1      62.011   9.309   1.486  1.00  0.00     0.450 C 
HETATM   11  F   UNL     1      62.155  10.647   1.681  1.00  0.00    -0.163 F 
HETATM   12  F   UNL     1      62.407   9.080   0.202  1.00  0.00    -0.163 F 
HETATM   13  F   UNL     1      60.669   9.073   1.521  1.00  0.00    -0.163 F 
ENDBRANCH   1  10
TORSDOF 1
ENDMDL
MODEL 9
REMARK VINA RESULT:      -3.5      4.824      5.486
REMARK  1 active torsions:
REMARK  status: ('A' for Active; 'I' for Inactive)
REMARK    1  A    between atoms: C_1  and  C_6 
ROOT
HETATM    1  C   UNL     1      66.685   6.555   6.986  1.00  0.00     0.209 A 
HETATM    2  N   UNL     1      66.868   5.321   6.441  1.00  0.00    -0.308 N 
HETATM    3  N   UNL     1      66.315   6.520   8.244  1.00  0.00    -0.279 N 
ATOM      4  HN  UNL     1      66.122   7.312   8.857  1.00  0.00     0.188 HD
HETATM    5  C   UNL     1      66.578   4.431   7.452  1.00  0.00     0.194 A 
HETATM    6  N   UNL     1      66.246   5.197   8.552  1.00  0.00    -0.274 N 
HETATM    7  S   UNL     1      66.593   2.775   7.448  1.00  0.00    -0.039 SA
HETATM    8  C   UNL     1      67.302   4.935   5.108  1.00  0.00     0.160 C 
HETATM    9  H   UNL     1      65.996   4.837   9.434  1.00  0.00     0.189 HD
ENDROOT
BRANCH   1  10
HETATM   10  C   UNL     1      66.868   7.880   6.249  1.00  0.00     0.450 C 
HETATM   11  F   UNL     1      65.937   8.133   5.291  1.00  0.00    -0.163 F 
HETATM   12  F   UNL     1      66.819   8.944   7.099  1.00  0.00    -0.163 F 
HETATM   13  F   UNL     1      68.075   7.948   5.619  1.00  0.00    -0.163 F 
ENDBRANCH   1  10
TORSDOF 1
ENDMDL
