MODEL 1
REMARK VINA RESULT:      -5.5      0.000      0.000
REMARK  0 active torsions:
REMARK  status: ('A' for Active; 'I' for Inactive)
ROOT
HETATM    1  O   UNL     1      64.311   9.782   5.712  1.00  0.00    -0.275 OA
HETATM    2  C   UNL     1      63.594  10.954   5.906  1.00  0.00     0.288 A 
HETATM    3  C   UNL     1      63.975   8.888   4.677  1.00  0.00     0.089 A 
HETATM    4  C   UNL     1      62.913   9.151   3.815  1.00  0.00    -0.002 A 
HETATM    5  C   UNL     1      62.152  10.378   3.991  1.00  0.00     0.020 A 
HETATM    6  C   UNL     1      62.484  11.221   4.976  1.00  0.00     0.083 A 
HETATM    7  C   UNL     1      62.617   8.227   2.808  1.00  0.00     0.021 A 
HETATM    8  O   UNL     1      63.861  11.746   6.803  1.00  0.00    -0.260 OA
HETATM    9  C   UNL     1      64.748   7.739   4.555  1.00  0.00     0.039 A 
HETATM   10  C   UNL     1      63.384   7.058   2.668  1.00  0.00    -0.061 A 
HETATM   11  C   UNL     1      64.451   6.823   3.547  1.00  0.00     0.009 A 
HETATM   12  C   UNL     1      63.057   6.071   1.583  1.00  0.00     0.048 C 
ENDROOT
TORSDOF 0
ENDMDL
MODEL 2
REMARK VINA RESULT:      -5.4      1.852      2.673
REMARK  0 active torsions:
REMARK  status: ('A' for Active; 'I' for Inactive)
ROOT
HETATM    1  O   UNL     1      61.850  10.871   2.955  1.00  0.00    -0.275 OA
HETATM    2  C   UNL     1      62.167  11.195   4.266  1.00  0.00     0.288 A 
HETATM    3  C   UNL     1      62.182   9.612   2.418  1.00  0.00     0.089 A 
HETATM    4  C   UNL     1      62.837   8.652   3.185  1.00  0.00    -0.002 A 
HETATM    5  C   UNL     1      63.172   8.963   4.565  1.00  0.00     0.020 A 
HETATM    6  C   UNL     1      62.849  10.162   5.065  1.00  0.00     0.083 A 
HETATM    7  C   UNL     1      63.149   7.420   2.601  1.00  0.00     0.021 A 
HETATM    8  O   UNL     1      61.896  12.286   4.756  1.00  0.00    -0.260 OA
HETATM    9  C   UNL     1      61.824   9.372   1.095  1.00  0.00     0.039 A 
HETATM   10  C   UNL     1      62.800   7.157   1.266  1.00  0.00    -0.061 A 
HETATM   11  C   UNL     1      62.135   8.141   0.520  1.00  0.00     0.009 A 
HETATM   12  C   UNL     1      63.140   5.831   0.648  1.00  0.00     0.048 C 
ENDROOT
TORSDOF 0
ENDMDL
MODEL 3
REMARK VINA RESULT:      -5.2      1.386      3.195
REMARK  0 active torsions:
REMARK  status: ('A' for Active; 'I' for Inactive)
ROOT
HETATM    1  O   UNL     1      64.703   9.184   5.721  1.00  0.00    -0.275 OA
HETATM    2  C   UNL     1      65.704   8.248   5.934  1.00  0.00     0.288 A 
HETATM    3  C   UNL     1      63.802   9.053   4.647  1.00  0.00     0.089 A 
HETATM    4  C   UNL     1      63.887   7.980   3.763  1.00  0.00    -0.002 A 
HETATM    5  C   UNL     1      64.921   6.979   3.970  1.00  0.00     0.020 A 
HETATM    6  C   UNL     1      65.770   7.114   4.997  1.00  0.00     0.083 A 
HETATM    7  C   UNL     1      62.971   7.900   2.709  1.00  0.00     0.021 A 
HETATM    8  O   UNL     1      66.505   8.342   6.857  1.00  0.00    -0.260 OA
HETATM    9  C   UNL     1      62.828  10.037   4.511  1.00  0.00     0.039 A 
HETATM   10  C   UNL     1      61.981   8.884   2.551  1.00  0.00    -0.061 A 
HETATM   11  C   UNL     1      61.917   9.950   3.460  1.00  0.00     0.009 A 
HETATM   12  C   UNL     1      61.003   8.790   1.415  1.00  0.00     0.048 C 
ENDROOT
TORSDOF 0
ENDMDL
MODEL 4
REMARK VINA RESULT:      -5.0      1.658      2.534
REMARK  0 active torsions:
REMARK  status: ('A' for Active; 'I' for Inactive)
ROOT
HETATM    1  O   UNL     1      64.759   9.493   5.705  1.00  0.00    -0.275 OA
HETATM    2  C   UNL     1      63.507   9.976   5.356  1.00  0.00     0.288 A 
HETATM    3  C   UNL     1      65.293   8.343   5.090  1.00  0.00     0.089 A 
HETATM    4  C   UNL     1      64.580   7.654   4.113  1.00  0.00    -0.002 A 
HETATM    5  C   UNL     1      63.269   8.145   3.721  1.00  0.00     0.020 A 
HETATM    6  C   UNL     1      62.775   9.240   4.311  1.00  0.00     0.083 A 
HETATM    7  C   UNL     1      65.153   6.515   3.538  1.00  0.00     0.021 A 
HETATM    8  O   UNL     1      63.017  10.969   5.880  1.00  0.00    -0.260 OA
HETATM    9  C   UNL     1      66.556   7.932   5.501  1.00  0.00     0.039 A 
HETATM   10  C   UNL     1      66.427   6.079   3.940  1.00  0.00    -0.061 A 
HETATM   11  C   UNL     1      67.123   6.797   4.923  1.00  0.00     0.009 A 
HETATM   12  C   UNL     1      67.032   4.854   3.318  1.00  0.00     0.048 C 
ENDROOT
TORSDOF 0
ENDMDL
MODEL 5
REMARK VINA RESULT:      -4.7      2.763      4.262
REMARK  0 active torsions:
REMARK  status: ('A' for Active; 'I' for Inactive)
ROOT
HETATM    1  O   UNL     1      62.703   6.395   3.244  1.00  0.00    -0.275 OA
HETATM    2  C   UNL     1      62.967   5.964   4.536  1.00  0.00     0.288 A 
HETATM    3  C   UNL     1      62.471   7.755   2.964  1.00  0.00     0.089 A 
HETATM    4  C   UNL     1      62.499   8.713   3.975  1.00  0.00    -0.002 A 
HETATM    5  C   UNL     1      62.783   8.289   5.337  1.00  0.00     0.020 A 
HETATM    6  C   UNL     1      63.004   6.993   5.589  1.00  0.00     0.083 A 
HETATM    7  C   UNL     1      62.256  10.050   3.645  1.00  0.00     0.021 A 
HETATM    8  O   UNL     1      63.165   4.786   4.808  1.00  0.00    -0.260 OA
HETATM    9  C   UNL     1      62.217   8.097   1.641  1.00  0.00     0.039 A 
HETATM   10  C   UNL     1      61.994  10.417   2.315  1.00  0.00    -0.061 A 
HETATM   11  C   UNL     1      61.979   9.432   1.317  1.00  0.00     0.009 A 
HETATM   12  C   UNL     1      61.733  11.856   1.970  1.00  0.00     0.048 C 
ENDROOT
TORSDOF 0
ENDMDL
MODEL 6
REMARK VINA RESULT:      -4.7      2.224      3.138
REMARK  0 active torsions:
REMARK  status: ('A' for Active; 'I' for Inactive)
ROOT
HETATM    1  O   UNL     1      62.324  10.693   3.512  1.00  0.00    -0.275 OA
HETATM    2  C   UNL     1      61.949  10.955   2.202  1.00  0.00     0.288 A 
HETATM    3  C   UNL     1      62.715   9.401   3.912  1.00  0.00     0.089 A 
HETATM    4  C   UNL     1      62.738   8.344   3.005  1.00  0.00    -0.002 A 
HETATM    5  C   UNL     1      62.360   8.594   1.624  1.00  0.00     0.020 A 
HETATM    6  C   UNL     1      61.993   9.827   1.256  1.00  0.00     0.083 A 
HETATM    7  C   UNL     1      63.128   7.078   3.455  1.00  0.00     0.021 A 
HETATM    8  O   UNL     1      61.599  12.069   1.830  1.00  0.00    -0.260 OA
HETATM    9  C   UNL     1      63.075   9.230   5.244  1.00  0.00     0.039 A 
HETATM   10  C   UNL     1      63.494   6.882   4.797  1.00  0.00    -0.061 A 
HETATM   11  C   UNL     1      63.466   7.967   5.685  1.00  0.00     0.009 A 
HETATM   12  C   UNL     1      63.910   5.519   5.271  1.00  0.00     0.048 C 
ENDROOT
TORSDOF 0
ENDMDL
MODEL 7
REMARK VINA RESULT:      -4.7      2.376      3.006
REMARK  0 active torsions:
REMARK  status: ('A' for Active; 'I' for Inactive)
ROOT
HETATM    1  O   UNL     1      61.998  10.119   1.661  1.00  0.00    -0.275 OA
HETATM    2  C   UNL     1      61.808  11.306   2.352  1.00  0.00     0.288 A 
HETATM    3  C   UNL     1      62.410   8.948   2.327  1.00  0.00     0.089 A 
HETATM    4  C   UNL     1      62.640   8.945   3.700  1.00  0.00    -0.002 A 
HETATM    5  C   UNL     1      62.439  10.174   4.450  1.00  0.00     0.020 A 
HETATM    6  C   UNL     1      62.044  11.279   3.806  1.00  0.00     0.083 A 
HETATM    7  C   UNL     1      63.054   7.757   4.312  1.00  0.00     0.021 A 
HETATM    8  O   UNL     1      61.456  12.340   1.797  1.00  0.00    -0.260 OA
HETATM    9  C   UNL     1      62.573   7.803   1.555  1.00  0.00     0.039 A 
HETATM   10  C   UNL     1      63.229   6.589   3.551  1.00  0.00    -0.061 A 
HETATM   11  C   UNL     1      62.983   6.621   2.171  1.00  0.00     0.009 A 
HETATM   12  C   UNL     1      63.675   5.318   4.217  1.00  0.00     0.048 C 
ENDROOT
TORSDOF 0
ENDMDL
MODEL 8
REMARK VINA RESULT:      -4.6      2.725      4.693
REMARK  0 active torsions:
REMARK  status: ('A' for Active; 'I' for Inactive)
ROOT
HETATM    1  O   UNL     1      62.867   6.842   2.233  1.00  0.00    -0.275 OA
HETATM    2  C   UNL     1      62.311   6.882   0.963  1.00  0.00     0.288 A 
HETATM    3  C   UNL     1      62.829   7.967   3.080  1.00  0.00     0.089 A 
HETATM    4  C   UNL     1      62.232   9.156   2.670  1.00  0.00    -0.002 A 
HETATM    5  C   UNL     1      61.632   9.222   1.346  1.00  0.00     0.020 A 
HETATM    6  C   UNL     1      61.673   8.145   0.553  1.00  0.00     0.083 A 
HETATM    7  C   UNL     1      62.226  10.245   3.546  1.00  0.00     0.021 A 
HETATM    8  O   UNL     1      62.337   5.920   0.204  1.00  0.00    -0.260 OA
HETATM    9  C   UNL     1      63.409   7.835   4.337  1.00  0.00     0.039 A 
HETATM   10  C   UNL     1      62.809  10.136   4.820  1.00  0.00    -0.061 A 
HETATM   11  C   UNL     1      63.398   8.924   5.208  1.00  0.00     0.009 A 
HETATM   12  C   UNL     1      62.799  11.312   5.754  1.00  0.00     0.048 C 
ENDROOT
TORSDOF 0
ENDMDL
MODEL 9
REMARK VINA RESULT:      -4.4      2.671      4.007
REMARK  0 active torsions:
REMARK  status: ('A' for Active; 'I' for Inactive)
ROOT
HETATM    1  O   UNL     1      64.486   6.418   7.376  1.00  0.00    -0.275 OA
HETATM    2  C   UNL     1      65.807   6.591   7.763  1.00  0.00     0.288 A 
HETATM    3  C   UNL     1      63.960   7.099   6.261  1.00  0.00     0.089 A 
HETATM    4  C   UNL     1      64.749   7.968   5.511  1.00  0.00    -0.002 A 
HETATM    5  C   UNL     1      66.140   8.160   5.890  1.00  0.00     0.020 A 
HETATM    6  C   UNL     1      66.628   7.504   6.950  1.00  0.00     0.083 A 
HETATM    7  C   UNL     1      64.176   8.624   4.417  1.00  0.00     0.021 A 
HETATM    8  O   UNL     1      66.287   6.016   8.733  1.00  0.00    -0.260 OA
HETATM    9  C   UNL     1      62.627   6.863   5.944  1.00  0.00     0.039 A 
HETATM   10  C   UNL     1      62.830   8.404   4.080  1.00  0.00    -0.061 A 
HETATM   11  C   UNL     1      62.063   7.518   4.850  1.00  0.00     0.009 A 
HETATM   12  C   UNL     1      62.224   9.114   2.904  1.00  0.00     0.048 C 
ENDROOT
TORSDOF 0
ENDMDL
