MODEL 1
REMARK VINA RESULT:      -5.0      0.000      0.000
REMARK  0 active torsions:
REMARK  status: ('A' for Active; 'I' for Inactive)
ROOT
HETATM    1  C   UNL     1      62.748   9.667   4.186  1.00  0.00     0.105 A 
HETATM    2  C   UNL     1      62.184  10.812   3.677  1.00  0.00     0.105 A 
HETATM    3  O   UNL     1      63.126   9.807   5.485  1.00  0.00    -0.323 OA
HETATM    4  O   UNL     1      62.136  11.817   4.590  1.00  0.00    -0.323 OA
HETATM    5  C   UNL     1      62.744  11.175   5.730  1.00  0.00     0.352 A 
HETATM    6  C   UNL     1      62.894   8.528   3.424  1.00  0.00     0.046 A 
HETATM    7  C   UNL     1      61.734  10.881   2.376  1.00  0.00     0.040 A 
HETATM    8  C   UNL     1      62.449   8.559   2.094  1.00  0.00    -0.059 A 
HETATM    9  C   UNL     1      61.869   9.739   1.578  1.00  0.00     0.010 A 
HETATM   10  C   UNL     1      62.597   7.335   1.239  1.00  0.00     0.048 C 
ENDROOT
TORSDOF 0
ENDMDL
MODEL 2
REMARK VINA RESULT:      -4.9      0.765      2.020
REMARK  0 active torsions:
REMARK  status: ('A' for Active; 'I' for Inactive)
ROOT
HETATM    1  C   UNL     1      62.334  10.475   3.848  1.00  0.00     0.105 A 
HETATM    2  C   UNL     1      63.063   9.559   4.568  1.00  0.00     0.105 A 
HETATM    3  O   UNL     1      62.112  11.624   4.542  1.00  0.00    -0.323 OA
HETATM    4  O   UNL     1      63.391  10.015   5.806  1.00  0.00    -0.323 OA
HETATM    5  C   UNL     1      62.776  11.320   5.785  1.00  0.00     0.352 A 
HETATM    6  C   UNL     1      61.899  10.212   2.568  1.00  0.00     0.046 A 
HETATM    7  C   UNL     1      63.396   8.328   4.046  1.00  0.00     0.040 A 
HETATM    8  C   UNL     1      62.217   8.969   2.001  1.00  0.00    -0.059 A 
HETATM    9  C   UNL     1      62.967   8.032   2.748  1.00  0.00     0.010 A 
HETATM   10  C   UNL     1      61.754   8.652   0.610  1.00  0.00     0.048 C 
ENDROOT
TORSDOF 0
ENDMDL
MODEL 3
REMARK VINA RESULT:      -4.6      1.364      2.894
REMARK  0 active torsions:
REMARK  status: ('A' for Active; 'I' for Inactive)
ROOT
HETATM    1  C   UNL     1      62.614   9.303   4.566  1.00  0.00     0.105 A 
HETATM    2  C   UNL     1      62.692   8.160   3.807  1.00  0.00     0.105 A 
HETATM    3  O   UNL     1      62.899   9.078   5.877  1.00  0.00    -0.323 OA
HETATM    4  O   UNL     1      63.035   7.071   4.544  1.00  0.00    -0.323 OA
HETATM    5  C   UNL     1      63.154   7.659   5.856  1.00  0.00     0.352 A 
HETATM    6  C   UNL     1      62.280  10.521   4.015  1.00  0.00     0.046 A 
HETATM    7  C   UNL     1      62.440   8.173   2.453  1.00  0.00     0.040 A 
HETATM    8  C   UNL     1      62.015  10.574   2.638  1.00  0.00    -0.059 A 
HETATM    9  C   UNL     1      62.097   9.396   1.865  1.00  0.00     0.010 A 
HETATM   10  C   UNL     1      61.645  11.886   2.009  1.00  0.00     0.048 C 
ENDROOT
TORSDOF 0
ENDMDL
MODEL 4
REMARK VINA RESULT:      -4.5      1.539      2.739
REMARK  0 active torsions:
REMARK  status: ('A' for Active; 'I' for Inactive)
ROOT
HETATM    1  C   UNL     1      62.316   9.782   2.758  1.00  0.00     0.105 A 
HETATM    2  C   UNL     1      62.335  10.627   3.843  1.00  0.00     0.105 A 
HETATM    3  O   UNL     1      61.902  10.404   1.622  1.00  0.00    -0.323 OA
HETATM    4  O   UNL     1      61.935  11.886   3.526  1.00  0.00    -0.323 OA
HETATM    5  C   UNL     1      61.652  11.735   2.119  1.00  0.00     0.352 A 
HETATM    6  C   UNL     1      62.685   8.459   2.861  1.00  0.00     0.046 A 
HETATM    7  C   UNL     1      62.725  10.192   5.091  1.00  0.00     0.040 A 
HETATM    8  C   UNL     1      63.087   7.979   4.116  1.00  0.00    -0.059 A 
HETATM    9  C   UNL     1      63.104   8.852   5.226  1.00  0.00     0.010 A 
HETATM   10  C   UNL     1      63.491   6.540   4.261  1.00  0.00     0.048 C 
ENDROOT
TORSDOF 0
ENDMDL
MODEL 5
REMARK VINA RESULT:      -4.5      1.826      3.151
REMARK  0 active torsions:
REMARK  status: ('A' for Active; 'I' for Inactive)
ROOT
HETATM    1  C   UNL     1      62.739   8.620   3.953  1.00  0.00     0.105 A 
HETATM    2  C   UNL     1      62.978   9.153   5.197  1.00  0.00     0.105 A 
HETATM    3  O   UNL     1      62.985   7.283   3.904  1.00  0.00    -0.323 OA
HETATM    4  O   UNL     1      63.405   8.219   6.088  1.00  0.00    -0.323 OA
HETATM    5  C   UNL     1      63.417   7.039   5.258  1.00  0.00     0.352 A 
HETATM    6  C   UNL     1      62.299   9.396   2.903  1.00  0.00     0.046 A 
HETATM    7  C   UNL     1      62.790  10.492   5.459  1.00  0.00     0.040 A 
HETATM    8  C   UNL     1      62.097  10.765   3.130  1.00  0.00    -0.059 A 
HETATM    9  C   UNL     1      62.345  11.305   4.411  1.00  0.00     0.010 A 
HETATM   10  C   UNL     1      61.621  11.637   2.004  1.00  0.00     0.048 C 
ENDROOT
TORSDOF 0
ENDMDL
MODEL 6
REMARK VINA RESULT:      -4.3      1.696      2.512
REMARK  0 active torsions:
REMARK  status: ('A' for Active; 'I' for Inactive)
ROOT
HETATM    1  C   UNL     1      63.838   8.342   3.983  1.00  0.00     0.105 A 
HETATM    2  C   UNL     1      63.681   9.415   4.827  1.00  0.00     0.105 A 
HETATM    3  O   UNL     1      64.869   7.536   4.352  1.00  0.00    -0.323 OA
HETATM    4  O   UNL     1      64.593   9.420   5.834  1.00  0.00    -0.323 OA
HETATM    5  C   UNL     1      65.349   8.231   5.521  1.00  0.00     0.352 A 
HETATM    6  C   UNL     1      63.016   8.147   2.894  1.00  0.00     0.046 A 
HETATM    7  C   UNL     1      62.692  10.353   4.628  1.00  0.00     0.040 A 
HETATM    8  C   UNL     1      61.997   9.082   2.657  1.00  0.00    -0.059 A 
HETATM    9  C   UNL     1      61.842  10.182   3.530  1.00  0.00     0.010 A 
HETATM   10  C   UNL     1      61.088   8.900   1.477  1.00  0.00     0.048 C 
ENDROOT
TORSDOF 0
ENDMDL
MODEL 7
REMARK VINA RESULT:      -4.2      2.657      3.925
REMARK  0 active torsions:
REMARK  status: ('A' for Active; 'I' for Inactive)
ROOT
HETATM    1  C   UNL     1      64.834   8.682   5.276  1.00  0.00     0.105 A 
HETATM    2  C   UNL     1      65.128   7.512   4.617  1.00  0.00     0.105 A 
HETATM    3  O   UNL     1      65.748   8.981   6.238  1.00  0.00    -0.323 OA
HETATM    4  O   UNL     1      66.263   6.927   5.082  1.00  0.00    -0.323 OA
HETATM    5  C   UNL     1      66.644   7.858   6.115  1.00  0.00     0.352 A 
HETATM    6  C   UNL     1      63.723   9.434   4.961  1.00  0.00     0.046 A 
HETATM    7  C   UNL     1      64.326   7.030   3.606  1.00  0.00     0.040 A 
HETATM    8  C   UNL     1      62.881   8.976   3.936  1.00  0.00    -0.059 A 
HETATM    9  C   UNL     1      63.190   7.772   3.264  1.00  0.00     0.010 A 
HETATM   10  C   UNL     1      61.662   9.772   3.572  1.00  0.00     0.048 C 
ENDROOT
TORSDOF 0
ENDMDL
MODEL 8
REMARK VINA RESULT:      -4.2      1.956      2.653
REMARK  0 active torsions:
REMARK  status: ('A' for Active; 'I' for Inactive)
ROOT
HETATM    1  C   UNL     1      64.124   9.161   5.011  1.00  0.00     0.105 A 
HETATM    2  C   UNL     1      63.014   9.178   4.200  1.00  0.00     0.105 A 
HETATM    3  O   UNL     1      64.164  10.224   5.860  1.00  0.00    -0.323 OA
HETATM    4  O   UNL     1      62.217  10.252   4.436  1.00  0.00    -0.323 OA
HETATM    5  C   UNL     1      62.957  10.916   5.481  1.00  0.00     0.352 A 
HETATM    6  C   UNL     1      65.065   8.158   4.935  1.00  0.00     0.046 A 
HETATM    7  C   UNL     1      62.785   8.190   3.268  1.00  0.00     0.040 A 
HETATM    8  C   UNL     1      64.867   7.134   3.997  1.00  0.00    -0.059 A 
HETATM    9  C   UNL     1      63.724   7.158   3.167  1.00  0.00     0.010 A 
HETATM   10  C   UNL     1      65.877   6.029   3.888  1.00  0.00     0.048 C 
ENDROOT
TORSDOF 0
ENDMDL
MODEL 9
REMARK VINA RESULT:      -4.1      1.400      1.940
REMARK  0 active torsions:
REMARK  status: ('A' for Active; 'I' for Inactive)
ROOT
HETATM    1  C   UNL     1      61.938   9.663   3.285  1.00  0.00     0.105 A 
HETATM    2  C   UNL     1      62.049  10.157   2.007  1.00  0.00     0.105 A 
HETATM    3  O   UNL     1      61.787  10.647   4.212  1.00  0.00    -0.323 OA
HETATM    4  O   UNL     1      61.983  11.514   1.968  1.00  0.00    -0.323 OA
HETATM    5  C   UNL     1      61.827  11.817   3.370  1.00  0.00     0.352 A 
HETATM    6  C   UNL     1      61.981   8.311   3.548  1.00  0.00     0.046 A 
HETATM    7  C   UNL     1      62.209   9.324   0.921  1.00  0.00     0.040 A 
HETATM    8  C   UNL     1      62.144   7.431   2.468  1.00  0.00    -0.059 A 
HETATM    9  C   UNL     1      62.258   7.946   1.158  1.00  0.00     0.010 A 
HETATM   10  C   UNL     1      62.198   5.953   2.723  1.00  0.00     0.048 C 
ENDROOT
TORSDOF 0
ENDMDL
