MODEL 1
REMARK VINA RESULT:      -5.2      0.000      0.000
REMARK  2 active torsions:
REMARK  status: ('A' for Active; 'I' for Inactive)
REMARK    1  A    between atoms: C_1  and  C_3 
REMARK    2  A    between atoms: C_2  and  C_4 
ROOT
HETATM    1  C   UNL     1      62.456   8.993   2.666  1.00  0.00     0.048 A 
HETATM    2  C   UNL     1      63.943   8.269   4.946  1.00  0.00     0.040 A 
HETATM    3  C   UNL     1      63.162   7.780   2.703  1.00  0.00     0.017 A 
HETATM    4  C   UNL     1      62.496   9.835   3.789  1.00  0.00     0.017 A 
HETATM    5  C   UNL     1      63.235   9.477   4.919  1.00  0.00     0.019 A 
HETATM    6  C   UNL     1      63.902   7.419   3.834  1.00  0.00     0.019 A 
ENDROOT
BRANCH   1   7
HETATM    7  C   UNL     1      61.660   9.392   1.446  1.00  0.00     0.417 C 
HETATM    8  F   UNL     1      60.441   8.787   1.383  1.00  0.00    -0.166 F 
HETATM    9  F   UNL     1      62.288   9.088   0.278  1.00  0.00    -0.166 F 
HETATM   10  F   UNL     1      61.414  10.731   1.401  1.00  0.00    -0.166 F 
ENDBRANCH   1   7
BRANCH   2  11
HETATM   11  C   UNL     1      64.718   7.935   6.166  1.00  0.00     0.209 C 
HETATM   12  O   UNL     1      64.378   7.152   7.032  1.00  0.00    -0.644 OA
HETATM   13  O   UNL     1      65.885   8.599   6.241  1.00  0.00    -0.644 OA
ENDBRANCH   2  11
TORSDOF 2
ENDMDL
MODEL 2
REMARK VINA RESULT:      -5.1      0.078      1.344
REMARK  2 active torsions:
REMARK  status: ('A' for Active; 'I' for Inactive)
REMARK    1  A    between atoms: C_1  and  C_3 
REMARK    2  A    between atoms: C_2  and  C_4 
ROOT
HETATM    1  C   UNL     1      62.451   9.056   2.722  1.00  0.00     0.048 A 
HETATM    2  C   UNL     1      63.934   8.363   5.013  1.00  0.00     0.040 A 
HETATM    3  C   UNL     1      62.475   9.904   3.840  1.00  0.00     0.017 A 
HETATM    4  C   UNL     1      63.187   7.861   2.761  1.00  0.00     0.017 A 
HETATM    5  C   UNL     1      63.921   7.516   3.899  1.00  0.00     0.019 A 
HETATM    6  C   UNL     1      63.211   9.561   4.980  1.00  0.00     0.019 A 
ENDROOT
BRANCH   1   7
HETATM    7  C   UNL     1      61.655   9.416   1.490  1.00  0.00     0.417 C 
HETATM    8  F   UNL     1      60.453   8.779   1.426  1.00  0.00    -0.166 F 
HETATM    9  F   UNL     1      62.300   9.111   0.331  1.00  0.00    -0.166 F 
HETATM   10  F   UNL     1      61.376  10.747   1.422  1.00  0.00    -0.166 F 
ENDBRANCH   1   7
BRANCH   2  11
HETATM   11  C   UNL     1      64.724   7.951   6.199  1.00  0.00     0.209 C 
HETATM   12  O   UNL     1      64.378   7.142   7.038  1.00  0.00    -0.644 OA
HETATM   13  O   UNL     1      65.913   8.574   6.277  1.00  0.00    -0.644 OA
ENDBRANCH   2  11
TORSDOF 2
ENDMDL
MODEL 3
REMARK VINA RESULT:      -4.7      2.600      3.376
REMARK  2 active torsions:
REMARK  status: ('A' for Active; 'I' for Inactive)
REMARK    1  A    between atoms: C_1  and  C_3 
REMARK    2  A    between atoms: C_2  and  C_4 
ROOT
HETATM    1  C   UNL     1      62.620   7.644   2.248  1.00  0.00     0.048 A 
HETATM    2  C   UNL     1      62.543   9.889   3.946  1.00  0.00     0.040 A 
HETATM    3  C   UNL     1      63.201   7.594   3.525  1.00  0.00     0.017 A 
HETATM    4  C   UNL     1      61.991   8.829   1.835  1.00  0.00     0.017 A 
HETATM    5  C   UNL     1      61.955   9.944   2.676  1.00  0.00     0.019 A 
HETATM    6  C   UNL     1      63.165   8.708   4.369  1.00  0.00     0.019 A 
ENDROOT
BRANCH   1   7
HETATM    7  C   UNL     1      62.660   6.446   1.328  1.00  0.00     0.417 C 
HETATM    8  F   UNL     1      63.201   5.341   1.913  1.00  0.00    -0.166 F 
HETATM    9  F   UNL     1      63.390   6.665   0.200  1.00  0.00    -0.166 F 
HETATM   10  F   UNL     1      61.420   6.074   0.904  1.00  0.00    -0.166 F 
ENDBRANCH   1   7
BRANCH   2  11
HETATM   11  C   UNL     1      62.484  11.100   4.801  1.00  0.00     0.209 C 
HETATM   12  O   UNL     1      61.870  12.118   4.550  1.00  0.00    -0.644 OA
HETATM   13  O   UNL     1      63.199  10.974   5.933  1.00  0.00    -0.644 OA
ENDBRANCH   2  11
TORSDOF 2
ENDMDL
MODEL 4
REMARK VINA RESULT:      -4.4      1.862      2.574
REMARK  2 active torsions:
REMARK  status: ('A' for Active; 'I' for Inactive)
REMARK    1  A    between atoms: C_1  and  C_3 
REMARK    2  A    between atoms: C_2  and  C_4 
ROOT
HETATM    1  C   UNL     1      61.308   8.389   2.319  1.00  0.00     0.048 A 
HETATM    2  C   UNL     1      62.695   9.701   4.389  1.00  0.00     0.040 A 
HETATM    3  C   UNL     1      61.512   9.778   2.274  1.00  0.00     0.017 A 
HETATM    4  C   UNL     1      61.816   7.664   3.409  1.00  0.00     0.017 A 
HETATM    5  C   UNL     1      62.502   8.315   4.437  1.00  0.00     0.019 A 
HETATM    6  C   UNL     1      62.200  10.431   3.302  1.00  0.00     0.019 A 
ENDROOT
BRANCH   1   7
HETATM    7  C   UNL     1      60.561   7.677   1.216  1.00  0.00     0.417 C 
HETATM    8  F   UNL     1      59.409   7.089   1.645  1.00  0.00    -0.166 F 
HETATM    9  F   UNL     1      61.290   6.687   0.633  1.00  0.00    -0.166 F 
HETATM   10  F   UNL     1      60.198   8.517   0.208  1.00  0.00    -0.166 F 
ENDBRANCH   1   7
BRANCH   2  11
HETATM   11  C   UNL     1      63.425  10.348   5.507  1.00  0.00     0.209 C 
HETATM   12  O   UNL     1      63.033  11.297   6.157  1.00  0.00    -0.644 OA
HETATM   13  O   UNL     1      64.614   9.771   5.757  1.00  0.00    -0.644 OA
ENDBRANCH   2  11
TORSDOF 2
ENDMDL
MODEL 5
REMARK VINA RESULT:      -4.4      4.291      5.309
REMARK  2 active torsions:
REMARK  status: ('A' for Active; 'I' for Inactive)
REMARK    1  A    between atoms: C_1  and  C_3 
REMARK    2  A    between atoms: C_2  and  C_4 
ROOT
HETATM    1  C   UNL     1      65.546   7.275   4.530  1.00  0.00     0.048 A 
HETATM    2  C   UNL     1      63.156   8.686   4.051  1.00  0.00     0.040 A 
HETATM    3  C   UNL     1      65.226   8.415   5.284  1.00  0.00     0.017 A 
HETATM    4  C   UNL     1      64.650   6.844   3.540  1.00  0.00     0.017 A 
HETATM    5  C   UNL     1      63.465   7.545   3.300  1.00  0.00     0.019 A 
HETATM    6  C   UNL     1      64.040   9.118   5.047  1.00  0.00     0.019 A 
ENDROOT
BRANCH   1   7
HETATM    7  C   UNL     1      66.828   6.515   4.776  1.00  0.00     0.417 C 
HETATM    8  F   UNL     1      67.218   5.766   3.706  1.00  0.00    -0.166 F 
HETATM    9  F   UNL     1      66.742   5.651   5.823  1.00  0.00    -0.166 F 
HETATM   10  F   UNL     1      67.876   7.338   5.056  1.00  0.00    -0.166 F 
ENDBRANCH   1   7
BRANCH   2  11
HETATM   11  C   UNL     1      61.890   9.400   3.757  1.00  0.00     0.209 C 
HETATM   12  O   UNL     1      61.633  10.548   4.062  1.00  0.00    -0.644 OA
HETATM   13  O   UNL     1      61.004   8.637   3.092  1.00  0.00    -0.644 OA
ENDBRANCH   2  11
TORSDOF 2
ENDMDL
MODEL 6
REMARK VINA RESULT:      -4.4      1.992      2.356
REMARK  2 active torsions:
REMARK  status: ('A' for Active; 'I' for Inactive)
REMARK    1  A    between atoms: C_1  and  C_3 
REMARK    2  A    between atoms: C_2  and  C_4 
ROOT
HETATM    1  C   UNL     1      63.203   8.767   3.929  1.00  0.00     0.048 A 
HETATM    2  C   UNL     1      65.436   7.184   4.591  1.00  0.00     0.040 A 
HETATM    3  C   UNL     1      63.500   7.607   3.195  1.00  0.00     0.017 A 
HETATM    4  C   UNL     1      64.032   9.118   5.006  1.00  0.00     0.017 A 
HETATM    5  C   UNL     1      65.142   8.334   5.333  1.00  0.00     0.019 A 
HETATM    6  C   UNL     1      64.609   6.820   3.522  1.00  0.00     0.019 A 
ENDROOT
BRANCH   1   7
HETATM    7  C   UNL     1      62.010   9.625   3.579  1.00  0.00     0.417 C 
HETATM    8  F   UNL     1      60.823   8.969   3.712  1.00  0.00    -0.166 F 
HETATM    9  F   UNL     1      62.041  10.082   2.298  1.00  0.00    -0.166 F 
HETATM   10  F   UNL     1      61.916  10.731   4.368  1.00  0.00    -0.166 F 
ENDBRANCH   1   7
BRANCH   2  11
HETATM   11  C   UNL     1      66.627   6.387   4.973  1.00  0.00     0.209 C 
HETATM   12  O   UNL     1      67.245   5.636   4.243  1.00  0.00    -0.644 OA
HETATM   13  O   UNL     1      66.989   6.571   6.255  1.00  0.00    -0.644 OA
ENDBRANCH   2  11
TORSDOF 2
ENDMDL
MODEL 7
REMARK VINA RESULT:      -4.3      1.895      2.792
REMARK  2 active torsions:
REMARK  status: ('A' for Active; 'I' for Inactive)
REMARK    1  A    between atoms: C_1  and  C_3 
REMARK    2  A    between atoms: C_2  and  C_4 
ROOT
HETATM    1  C   UNL     1      63.079   8.605   4.709  1.00  0.00     0.048 A 
HETATM    2  C   UNL     1      64.690   7.023   6.392  1.00  0.00     0.040 A 
HETATM    3  C   UNL     1      64.463   8.825   4.785  1.00  0.00     0.017 A 
HETATM    4  C   UNL     1      62.512   7.576   5.478  1.00  0.00     0.017 A 
HETATM    5  C   UNL     1      63.311   6.793   6.315  1.00  0.00     0.019 A 
HETATM    6  C   UNL     1      65.265   8.041   5.621  1.00  0.00     0.019 A 
ENDROOT
BRANCH   1   7
HETATM    7  C   UNL     1      62.206   9.451   3.812  1.00  0.00     0.417 C 
HETATM    8  F   UNL     1      62.614   9.449   2.513  1.00  0.00    -0.166 F 
HETATM    9  F   UNL     1      62.166  10.758   4.188  1.00  0.00    -0.166 F 
HETATM   10  F   UNL     1      60.911   9.028   3.797  1.00  0.00    -0.166 F 
ENDBRANCH   1   7
BRANCH   2  11
HETATM   11  C   UNL     1      65.496   6.169   7.298  1.00  0.00     0.209 C 
HETATM   12  O   UNL     1      65.933   6.498   8.383  1.00  0.00    -0.644 OA
HETATM   13  O   UNL     1      65.713   4.939   6.800  1.00  0.00    -0.644 OA
ENDBRANCH   2  11
TORSDOF 2
ENDMDL
MODEL 8
REMARK VINA RESULT:      -4.3      3.657      4.403
REMARK  2 active torsions:
REMARK  status: ('A' for Active; 'I' for Inactive)
REMARK    1  A    between atoms: C_1  and  C_3 
REMARK    2  A    between atoms: C_2  and  C_4 
ROOT
HETATM    1  C   UNL     1      61.359   7.106   1.832  1.00  0.00     0.048 A 
HETATM    2  C   UNL     1      61.650   9.787   2.644  1.00  0.00     0.040 A 
HETATM    3  C   UNL     1      61.114   7.480   3.163  1.00  0.00     0.017 A 
HETATM    4  C   UNL     1      61.742   8.093   0.910  1.00  0.00     0.017 A 
HETATM    5  C   UNL     1      61.888   9.423   1.314  1.00  0.00     0.019 A 
HETATM    6  C   UNL     1      61.258   8.811   3.569  1.00  0.00     0.019 A 
ENDROOT
BRANCH   1   7
HETATM    7  C   UNL     1      61.211   5.670   1.388  1.00  0.00     0.417 C 
HETATM    8  F   UNL     1      62.311   5.196   0.740  1.00  0.00    -0.166 F 
HETATM    9  F   UNL     1      60.167   5.481   0.537  1.00  0.00    -0.166 F 
HETATM   10  F   UNL     1      60.999   4.822   2.433  1.00  0.00    -0.166 F 
ENDBRANCH   1   7
BRANCH   2  11
HETATM   11  C   UNL     1      61.823  11.210   3.026  1.00  0.00     0.209 C 
HETATM   12  O   UNL     1      61.783  11.653   4.157  1.00  0.00    -0.644 OA
HETATM   13  O   UNL     1      62.041  12.011   1.967  1.00  0.00    -0.644 OA
ENDBRANCH   2  11
TORSDOF 2
ENDMDL
MODEL 9
REMARK VINA RESULT:      -4.2      4.097      5.050
REMARK  2 active torsions:
REMARK  status: ('A' for Active; 'I' for Inactive)
REMARK    1  A    between atoms: C_1  and  C_3 
REMARK    2  A    between atoms: C_2  and  C_4 
ROOT
HETATM    1  C   UNL     1      63.738   7.430   4.883  1.00  0.00     0.048 A 
HETATM    2  C   UNL     1      62.591   9.749   3.771  1.00  0.00     0.040 A 
HETATM    3  C   UNL     1      63.879   8.672   5.521  1.00  0.00     0.017 A 
HETATM    4  C   UNL     1      63.006   7.360   3.688  1.00  0.00     0.017 A 
HETATM    5  C   UNL     1      62.439   8.512   3.134  1.00  0.00     0.019 A 
HETATM    6  C   UNL     1      63.311   9.826   4.970  1.00  0.00     0.019 A 
ENDROOT
BRANCH   1   7
HETATM    7  C   UNL     1      64.353   6.180   5.470  1.00  0.00     0.417 C 
HETATM    8  F   UNL     1      65.712   6.241   5.546  1.00  0.00    -0.166 F 
HETATM    9  F   UNL     1      64.070   5.060   4.751  1.00  0.00    -0.166 F 
HETATM   10  F   UNL     1      63.919   5.932   6.736  1.00  0.00    -0.166 F 
ENDBRANCH   1   7
BRANCH   2  11
HETATM   11  C   UNL     1      61.976  10.943   3.143  1.00  0.00     0.209 C 
HETATM   12  O   UNL     1      61.642  11.042   1.979  1.00  0.00    -0.644 OA
HETATM   13  O   UNL     1      61.806  11.959   4.008  1.00  0.00    -0.644 OA
ENDBRANCH   2  11
TORSDOF 2
ENDMDL
