MODEL 1
REMARK VINA RESULT:      -3.9      0.000      0.000
REMARK  1 active torsions:
REMARK  status: ('A' for Active; 'I' for Inactive)
REMARK    1  A    between atoms: C_1  and  C_5 
ROOT
HETATM    1  C   UNL     1      61.817   9.849   3.769  1.00  0.00     0.119 A 
HETATM    2  N   UNL     1      60.844   9.049   3.375  1.00  0.00    -0.357 N 
ATOM      3  HN  UNL     1      60.045   9.329   2.806  1.00  0.00     0.166 HD
HETATM    4  S   UNL     1      63.042   9.116   4.723  1.00  0.00    -0.079 SA
HETATM    5  C   UNL     1      61.076   7.773   3.853  1.00  0.00     0.096 A 
HETATM    6  C   UNL     1      62.221   7.617   4.605  1.00  0.00     0.069 A 
ENDROOT
BRANCH   1   7
HETATM    7  C   UNL     1      61.880  11.266   3.437  1.00  0.00     0.179 C 
HETATM    8  O   UNL     1      61.992  12.174   4.266  1.00  0.00    -0.291 OA
HETATM    9  C   UNL     1      61.797  11.603   1.968  1.00  0.00     0.099 C 
ENDBRANCH   1   7
TORSDOF 1
ENDMDL
MODEL 2
REMARK VINA RESULT:      -3.6      1.806      2.259
REMARK  1 active torsions:
REMARK  status: ('A' for Active; 'I' for Inactive)
REMARK    1  A    between atoms: C_1  and  C_5 
ROOT
HETATM    1  C   UNL     1      62.126   9.920   3.085  1.00  0.00     0.119 A 
HETATM    2  N   UNL     1      61.441  10.156   1.981  1.00  0.00    -0.357 N 
ATOM      3  HN  UNL     1      60.932  11.015   1.777  1.00  0.00     0.166 HD
HETATM    4  S   UNL     1      62.889   8.384   3.173  1.00  0.00    -0.079 SA
HETATM    5  C   UNL     1      61.521   9.057   1.147  1.00  0.00     0.096 A 
HETATM    6  C   UNL     1      62.265   7.999   1.625  1.00  0.00     0.069 A 
ENDROOT
BRANCH   1   7
HETATM    7  C   UNL     1      62.247  10.875   4.178  1.00  0.00     0.179 C 
HETATM    8  O   UNL     1      61.785  12.020   4.161  1.00  0.00    -0.291 OA
HETATM    9  C   UNL     1      62.998  10.392   5.396  1.00  0.00     0.099 C 
ENDBRANCH   1   7
TORSDOF 1
ENDMDL
MODEL 3
REMARK VINA RESULT:      -3.5      6.310      6.975
REMARK  1 active torsions:
REMARK  status: ('A' for Active; 'I' for Inactive)
REMARK    1  A    between atoms: C_1  and  C_5 
ROOT
HETATM    1  C   UNL     1      66.850   7.023   7.241  1.00  0.00     0.119 A 
HETATM    2  N   UNL     1      67.325   7.297   8.442  1.00  0.00    -0.357 N 
ATOM      3  HN  UNL     1      67.623   8.219   8.761  1.00  0.00     0.166 HD
HETATM    4  S   UNL     1      66.425   5.382   6.968  1.00  0.00    -0.079 SA
HETATM    5  C   UNL     1      67.357   6.141   9.200  1.00  0.00     0.096 A 
HETATM    6  C   UNL     1      66.906   5.002   8.567  1.00  0.00     0.069 A 
ENDROOT
BRANCH   1   7
HETATM    7  C   UNL     1      66.684   8.020   6.193  1.00  0.00     0.179 C 
HETATM    8  O   UNL     1      65.826   8.907   6.200  1.00  0.00    -0.291 OA
HETATM    9  C   UNL     1      67.650   7.925   5.036  1.00  0.00     0.099 C 
ENDBRANCH   1   7
TORSDOF 1
ENDMDL
MODEL 4
REMARK VINA RESULT:      -3.5      3.071      4.124
REMARK  1 active torsions:
REMARK  status: ('A' for Active; 'I' for Inactive)
REMARK    1  A    between atoms: C_1  and  C_5 
ROOT
HETATM    1  C   UNL     1      63.968   9.315   5.019  1.00  0.00     0.119 A 
HETATM    2  N   UNL     1      63.669  10.441   5.641  1.00  0.00    -0.357 N 
ATOM      3  HN  UNL     1      64.181  10.831   6.432  1.00  0.00     0.166 HD
HETATM    4  S   UNL     1      62.935   8.890   3.716  1.00  0.00    -0.079 SA
HETATM    5  C   UNL     1      62.554  11.009   5.053  1.00  0.00     0.096 A 
HETATM    6  C   UNL     1      62.018  10.310   3.994  1.00  0.00     0.069 A 
ENDROOT
BRANCH   1   7
HETATM    7  C   UNL     1      65.091   8.464   5.389  1.00  0.00     0.179 C 
HETATM    8  O   UNL     1      65.934   8.751   6.243  1.00  0.00    -0.291 OA
HETATM    9  C   UNL     1      65.193   7.151   4.650  1.00  0.00     0.099 C 
ENDBRANCH   1   7
TORSDOF 1
ENDMDL
MODEL 5
REMARK VINA RESULT:      -3.4      2.216      2.502
REMARK  1 active torsions:
REMARK  status: ('A' for Active; 'I' for Inactive)
REMARK    1  A    between atoms: C_1  and  C_5 
ROOT
HETATM    1  C   UNL     1      63.067   8.926   5.289  1.00  0.00     0.119 A 
HETATM    2  N   UNL     1      62.943   8.200   6.384  1.00  0.00    -0.357 N 
ATOM      3  HN  UNL     1      62.711   8.563   7.309  1.00  0.00     0.166 HD
HETATM    4  S   UNL     1      63.468   8.058   3.863  1.00  0.00    -0.079 SA
HETATM    5  C   UNL     1      63.178   6.871   6.084  1.00  0.00     0.096 A 
HETATM    6  C   UNL     1      63.477   6.602   4.765  1.00  0.00     0.069 A 
ENDROOT
BRANCH   1   7
HETATM    7  C   UNL     1      62.884  10.371   5.255  1.00  0.00     0.179 C 
HETATM    8  O   UNL     1      63.294  11.148   6.122  1.00  0.00    -0.291 OA
HETATM    9  C   UNL     1      62.137  10.913   4.060  1.00  0.00     0.099 C 
ENDBRANCH   1   7
TORSDOF 1
ENDMDL
MODEL 6
REMARK VINA RESULT:      -3.3      4.722      5.493
REMARK  1 active torsions:
REMARK  status: ('A' for Active; 'I' for Inactive)
REMARK    1  A    between atoms: C_1  and  C_5 
ROOT
HETATM    1  C   UNL     1      65.834   7.548   6.176  1.00  0.00     0.119 A 
HETATM    2  N   UNL     1      65.514   7.066   7.364  1.00  0.00    -0.357 N 
ATOM      3  HN  UNL     1      64.637   7.243   7.854  1.00  0.00     0.166 HD
HETATM    4  S   UNL     1      67.379   7.092   5.582  1.00  0.00    -0.079 SA
HETATM    5  C   UNL     1      66.551   6.286   7.839  1.00  0.00     0.096 A 
HETATM    6  C   UNL     1      67.647   6.183   7.009  1.00  0.00     0.069 A 
ENDROOT
BRANCH   1   7
HETATM    7  C   UNL     1      64.959   8.412   5.395  1.00  0.00     0.179 C 
HETATM    8  O   UNL     1      64.759   9.606   5.636  1.00  0.00    -0.291 OA
HETATM    9  C   UNL     1      64.271   7.762   4.219  1.00  0.00     0.099 C 
ENDBRANCH   1   7
TORSDOF 1
ENDMDL
MODEL 7
REMARK VINA RESULT:      -3.1      2.509      3.066
REMARK  1 active torsions:
REMARK  status: ('A' for Active; 'I' for Inactive)
REMARK    1  A    between atoms: C_1  and  C_5 
ROOT
HETATM    1  C   UNL     1      62.416   9.481   3.230  1.00  0.00     0.119 A 
HETATM    2  N   UNL     1      61.841  10.666   3.136  1.00  0.00    -0.357 N 
ATOM      3  HN  UNL     1      61.307  10.999   2.333  1.00  0.00     0.166 HD
HETATM    4  S   UNL     1      63.257   9.177   4.695  1.00  0.00    -0.079 SA
HETATM    5  C   UNL     1      62.075  11.383   4.293  1.00  0.00     0.096 A 
HETATM    6  C   UNL     1      62.825  10.738   5.253  1.00  0.00     0.069 A 
ENDROOT
BRANCH   1   7
HETATM    7  C   UNL     1      62.363   8.473   2.179  1.00  0.00     0.179 C 
HETATM    8  O   UNL     1      62.523   7.263   2.362  1.00  0.00    -0.291 OA
HETATM    9  C   UNL     1      62.094   8.989   0.785  1.00  0.00     0.099 C 
ENDBRANCH   1   7
TORSDOF 1
ENDMDL
MODEL 8
REMARK VINA RESULT:      -3.1      2.312      3.407
REMARK  1 active torsions:
REMARK  status: ('A' for Active; 'I' for Inactive)
REMARK    1  A    between atoms: C_1  and  C_5 
ROOT
HETATM    1  C   UNL     1      63.014   9.029   3.863  1.00  0.00     0.119 A 
HETATM    2  N   UNL     1      63.101   8.212   2.829  1.00  0.00    -0.357 N 
ATOM      3  HN  UNL     1      63.629   7.340   2.811  1.00  0.00     0.166 HD
HETATM    4  S   UNL     1      62.057  10.434   3.622  1.00  0.00    -0.079 SA
HETATM    5  C   UNL     1      62.365   8.724   1.776  1.00  0.00     0.096 A 
HETATM    6  C   UNL     1      61.729   9.922   2.020  1.00  0.00     0.069 A 
ENDROOT
BRANCH   1   7
HETATM    7  C   UNL     1      63.674   8.787   5.139  1.00  0.00     0.179 C 
HETATM    8  O   UNL     1      64.598   9.470   5.589  1.00  0.00    -0.291 OA
HETATM    9  C   UNL     1      63.160   7.610   5.933  1.00  0.00     0.099 C 
ENDBRANCH   1   7
TORSDOF 1
ENDMDL
MODEL 9
REMARK VINA RESULT:      -2.9      5.828      6.757
REMARK  1 active torsions:
REMARK  status: ('A' for Active; 'I' for Inactive)
REMARK    1  A    between atoms: C_1  and  C_5 
ROOT
HETATM    1  C   UNL     1      65.866   6.050   7.309  1.00  0.00     0.119 A 
HETATM    2  N   UNL     1      65.998   4.808   6.880  1.00  0.00    -0.357 N 
ATOM      3  HN  UNL     1      65.533   4.416   6.061  1.00  0.00     0.166 HD
HETATM    4  S   UNL     1      66.763   6.448   8.718  1.00  0.00    -0.079 SA
HETATM    5  C   UNL     1      66.862   4.123   7.713  1.00  0.00     0.096 A 
HETATM    6  C   UNL     1      67.377   4.850   8.765  1.00  0.00     0.069 A 
ENDROOT
BRANCH   1   7
HETATM    7  C   UNL     1      65.023   7.043   6.657  1.00  0.00     0.179 C 
HETATM    8  O   UNL     1      63.848   7.268   6.957  1.00  0.00    -0.291 OA
HETATM    9  C   UNL     1      65.672   7.827   5.541  1.00  0.00     0.099 C 
ENDBRANCH   1   7
TORSDOF 1
ENDMDL
