MODEL 1
REMARK VINA RESULT:      -4.6      0.000      0.000
REMARK  0 active torsions:
REMARK  status: ('A' for Active; 'I' for Inactive)
ROOT
HETATM    1  O   UNL     1      61.858  11.760   3.535  1.00  0.00    -0.350 OA
HETATM    2  C   UNL     1      62.371  10.537   3.881  1.00  0.00     0.075 A 
HETATM    3  C   UNL     1      62.364   9.617   2.842  1.00  0.00    -0.023 A 
HETATM    4  C   UNL     1      61.795  11.700   2.091  1.00  0.00     0.180 C 
HETATM    5  C   UNL     1      61.740  10.235   1.652  1.00  0.00     0.068 C 
HETATM    6  C   UNL     1      62.842  10.217   5.136  1.00  0.00     0.037 A 
HETATM    7  C   UNL     1      62.834   8.330   3.030  1.00  0.00     0.010 A 
HETATM    8  C   UNL     1      63.336   8.927   5.338  1.00  0.00     0.003 A 
HETATM    9  C   UNL     1      63.332   7.989   4.291  1.00  0.00     0.001 A 
ENDROOT
TORSDOF 0
ENDMDL
MODEL 2
REMARK VINA RESULT:      -4.5      1.305      3.129
REMARK  0 active torsions:
REMARK  status: ('A' for Active; 'I' for Inactive)
ROOT
HETATM    1  O   UNL     1      63.024   9.469   5.683  1.00  0.00    -0.350 OA
HETATM    2  C   UNL     1      62.618   9.857   4.432  1.00  0.00     0.075 A 
HETATM    3  C   UNL     1      62.716   8.854   3.480  1.00  0.00    -0.023 A 
HETATM    4  C   UNL     1      63.105   8.029   5.576  1.00  0.00     0.180 C 
HETATM    5  C   UNL     1      63.294   7.645   4.107  1.00  0.00     0.068 C 
HETATM    6  C   UNL     1      62.165  11.121   4.118  1.00  0.00     0.037 A 
HETATM    7  C   UNL     1      62.360   9.086   2.163  1.00  0.00     0.010 A 
HETATM    8  C   UNL     1      61.786  11.367   2.797  1.00  0.00     0.003 A 
HETATM    9  C   UNL     1      61.882  10.356   1.826  1.00  0.00     0.001 A 
ENDROOT
TORSDOF 0
ENDMDL
MODEL 3
REMARK VINA RESULT:      -4.5      0.837      2.709
REMARK  0 active torsions:
REMARK  status: ('A' for Active; 'I' for Inactive)
ROOT
HETATM    1  O   UNL     1      62.160  11.636   3.957  1.00  0.00    -0.350 OA
HETATM    2  C   UNL     1      62.190  10.517   3.165  1.00  0.00     0.075 A 
HETATM    3  C   UNL     1      62.778   9.419   3.776  1.00  0.00    -0.023 A 
HETATM    4  C   UNL     1      62.486  11.124   5.270  1.00  0.00     0.180 C 
HETATM    5  C   UNL     1      63.256   9.811   5.120  1.00  0.00     0.068 C 
HETATM    6  C   UNL     1      61.705  10.463   1.876  1.00  0.00     0.037 A 
HETATM    7  C   UNL     1      62.901   8.215   3.106  1.00  0.00     0.010 A 
HETATM    8  C   UNL     1      61.806   9.249   1.192  1.00  0.00     0.003 A 
HETATM    9  C   UNL     1      62.400   8.132   1.804  1.00  0.00     0.001 A 
ENDROOT
TORSDOF 0
ENDMDL
MODEL 4
REMARK VINA RESULT:      -4.4      1.400      2.933
REMARK  0 active torsions:
REMARK  status: ('A' for Active; 'I' for Inactive)
ROOT
HETATM    1  O   UNL     1      62.911   9.353   5.148  1.00  0.00    -0.350 OA
HETATM    2  C   UNL     1      62.637   9.250   3.809  1.00  0.00     0.075 A 
HETATM    3  C   UNL     1      62.179  10.431   3.243  1.00  0.00    -0.023 A 
HETATM    4  C   UNL     1      62.907  10.781   5.382  1.00  0.00     0.180 C 
HETATM    5  C   UNL     1      62.072  11.464   4.297  1.00  0.00     0.068 C 
HETATM    6  C   UNL     1      62.779   8.094   3.072  1.00  0.00     0.037 A 
HETATM    7  C   UNL     1      61.842  10.493   1.903  1.00  0.00     0.010 A 
HETATM    8  C   UNL     1      62.459   8.144   1.714  1.00  0.00     0.003 A 
HETATM    9  C   UNL     1      61.994   9.336   1.132  1.00  0.00     0.001 A 
ENDROOT
TORSDOF 0
ENDMDL
MODEL 5
REMARK VINA RESULT:      -4.4      1.938      2.988
REMARK  0 active torsions:
REMARK  status: ('A' for Active; 'I' for Inactive)
ROOT
HETATM    1  O   UNL     1      62.970   7.504   2.455  1.00  0.00    -0.350 OA
HETATM    2  C   UNL     1      62.620   8.780   2.813  1.00  0.00     0.075 A 
HETATM    3  C   UNL     1      62.172   9.552   1.752  1.00  0.00    -0.023 A 
HETATM    4  C   UNL     1      62.424   7.369   1.121  1.00  0.00     0.180 C 
HETATM    5  C   UNL     1      62.258   8.760   0.506  1.00  0.00     0.068 C 
HETATM    6  C   UNL     1      62.707   9.280   4.095  1.00  0.00     0.037 A 
HETATM    7  C   UNL     1      61.793  10.869   1.941  1.00  0.00     0.010 A 
HETATM    8  C   UNL     1      62.313  10.603   4.306  1.00  0.00     0.003 A 
HETATM    9  C   UNL     1      61.858  11.392   3.236  1.00  0.00     0.001 A 
ENDROOT
TORSDOF 0
ENDMDL
MODEL 6
REMARK VINA RESULT:      -4.3      1.651      3.644
REMARK  0 active torsions:
REMARK  status: ('A' for Active; 'I' for Inactive)
ROOT
HETATM    1  O   UNL     1      62.849   7.674   2.302  1.00  0.00    -0.350 OA
HETATM    2  C   UNL     1      62.507   8.981   2.535  1.00  0.00     0.075 A 
HETATM    3  C   UNL     1      62.612   9.354   3.867  1.00  0.00    -0.023 A 
HETATM    4  C   UNL     1      63.502   7.275   3.530  1.00  0.00     0.180 C 
HETATM    5  C   UNL     1      63.026   8.181   4.667  1.00  0.00     0.068 C 
HETATM    6  C   UNL     1      62.080   9.859   1.562  1.00  0.00     0.037 A 
HETATM    7  C   UNL     1      62.289  10.636   4.274  1.00  0.00     0.010 A 
HETATM    8  C   UNL     1      61.766  11.163   1.953  1.00  0.00     0.003 A 
HETATM    9  C   UNL     1      61.870  11.549   3.301  1.00  0.00     0.001 A 
ENDROOT
TORSDOF 0
ENDMDL
MODEL 7
REMARK VINA RESULT:      -4.0      1.620      2.197
REMARK  0 active torsions:
REMARK  status: ('A' for Active; 'I' for Inactive)
ROOT
HETATM    1  O   UNL     1      63.344  10.273   5.710  1.00  0.00    -0.350 OA
HETATM    2  C   UNL     1      63.599   9.186   4.913  1.00  0.00     0.075 A 
HETATM    3  C   UNL     1      62.804   9.131   3.778  1.00  0.00    -0.023 A 
HETATM    4  C   UNL     1      62.533  11.123   4.866  1.00  0.00     0.180 C 
HETATM    5  C   UNL     1      61.856  10.267   3.794  1.00  0.00     0.068 C 
HETATM    6  C   UNL     1      64.538   8.218   5.195  1.00  0.00     0.037 A 
HETATM    7  C   UNL     1      62.924   8.089   2.877  1.00  0.00     0.010 A 
HETATM    8  C   UNL     1      64.684   7.168   4.286  1.00  0.00     0.003 A 
HETATM    9  C   UNL     1      63.882   7.104   3.134  1.00  0.00     0.001 A 
ENDROOT
TORSDOF 0
ENDMDL
MODEL 8
REMARK VINA RESULT:      -3.7      3.293      4.358
REMARK  0 active torsions:
REMARK  status: ('A' for Active; 'I' for Inactive)
ROOT
HETATM    1  O   UNL     1      64.816   9.198   5.824  1.00  0.00    -0.350 OA
HETATM    2  C   UNL     1      65.695   8.193   5.514  1.00  0.00     0.075 A 
HETATM    3  C   UNL     1      65.232   7.335   4.526  1.00  0.00    -0.023 A 
HETATM    4  C   UNL     1      63.853   9.145   4.745  1.00  0.00     0.180 C 
HETATM    5  C   UNL     1      63.868   7.745   4.129  1.00  0.00     0.068 C 
HETATM    6  C   UNL     1      66.921   8.016   6.119  1.00  0.00     0.037 A 
HETATM    7  C   UNL     1      65.992   6.258   4.108  1.00  0.00     0.010 A 
HETATM    8  C   UNL     1      67.708   6.943   5.696  1.00  0.00     0.003 A 
HETATM    9  C   UNL     1      67.247   6.070   4.696  1.00  0.00     0.001 A 
ENDROOT
TORSDOF 0
ENDMDL
MODEL 9
REMARK VINA RESULT:      -3.5     12.462     13.676
REMARK  0 active torsions:
REMARK  status: ('A' for Active; 'I' for Inactive)
ROOT
HETATM    1  O   UNL     1      56.585   3.225  12.050  1.00  0.00    -0.350 OA
HETATM    2  C   UNL     1      57.450   2.321  12.611  1.00  0.00     0.075 A 
HETATM    3  C   UNL     1      56.865   1.520  13.581  1.00  0.00    -0.023 A 
HETATM    4  C   UNL     1      55.286   2.760  12.487  1.00  0.00     0.180 C 
HETATM    5  C   UNL     1      55.454   1.928  13.759  1.00  0.00     0.068 C 
HETATM    6  C   UNL     1      58.782   2.207  12.276  1.00  0.00     0.037 A 
HETATM    7  C   UNL     1      57.605   0.566  14.256  1.00  0.00     0.010 A 
HETATM    8  C   UNL     1      59.540   1.237  12.936  1.00  0.00     0.003 A 
HETATM    9  C   UNL     1      58.954   0.421  13.919  1.00  0.00     0.001 A 
ENDROOT
TORSDOF 0
ENDMDL
