MODEL 1
REMARK VINA RESULT:      -5.1      0.000      0.000
REMARK  1 active torsions:
REMARK  status: ('A' for Active; 'I' for Inactive)
REMARK    1  A    between atoms: C_3  and  O_7 
ROOT
HETATM    1  N   UNL     1      63.388   9.866   5.479  1.00  0.00    -0.320 N 
ATOM      2  HN  UNL     1      63.892   9.200   6.066  1.00  0.00     0.169 HD
HETATM    3  C   UNL     1      63.058  11.096   5.764  1.00  0.00     0.222 A 
HETATM    4  N   UNL     1      62.386  11.719   4.759  1.00  0.00    -0.320 N 
HETATM    5  C   UNL     1      62.900   9.673   4.206  1.00  0.00     0.062 A 
HETATM    6  C   UNL     1      62.267  10.820   3.730  1.00  0.00     0.062 A 
HETATM    7  C   UNL     1      62.959   8.537   3.385  1.00  0.00     0.032 A 
HETATM    8  C   UNL     1      61.679  10.907   2.466  1.00  0.00     0.032 A 
HETATM    9  C   UNL     1      62.377   8.597   2.112  1.00  0.00     0.002 A 
HETATM   10  C   UNL     1      61.748   9.762   1.663  1.00  0.00     0.002 A 
HETATM   11  H   UNL     1      62.048  12.644   4.769  1.00  0.00     0.169 HD
ENDROOT
BRANCH   3  12
HETATM   12  O   UNL     1      63.350  11.674   6.908  1.00  0.00    -0.332 OA
HETATM   13  H   UNL     1      63.072  12.555   7.071  1.00  0.00     0.220 HD
ENDBRANCH   3  12
TORSDOF 1
ENDMDL
MODEL 2
REMARK VINA RESULT:      -5.0      0.262      1.858
REMARK  1 active torsions:
REMARK  status: ('A' for Active; 'I' for Inactive)
REMARK    1  A    between atoms: C_3  and  O_7 
ROOT
HETATM    1  N   UNL     1      62.472  11.667   4.882  1.00  0.00    -0.320 N 
ATOM      2  HN  UNL     1      62.072  12.605   4.854  1.00  0.00     0.169 HD
HETATM    3  C   UNL     1      63.200  11.134   5.825  1.00  0.00     0.222 A 
HETATM    4  N   UNL     1      63.579   9.856   5.555  1.00  0.00    -0.320 N 
HETATM    5  C   UNL     1      62.368  10.672   3.936  1.00  0.00     0.062 A 
HETATM    6  C   UNL     1      63.053   9.525   4.332  1.00  0.00     0.062 A 
HETATM    7  C   UNL     1      61.700  10.675   2.701  1.00  0.00     0.032 A 
HETATM    8  C   UNL     1      63.115   8.361   3.563  1.00  0.00     0.032 A 
HETATM    9  C   UNL     1      61.747   9.520   1.910  1.00  0.00     0.002 A 
HETATM   10  C   UNL     1      62.443   8.384   2.336  1.00  0.00     0.002 A 
HETATM   11  H   UNL     1      64.129   9.276   6.131  1.00  0.00     0.169 HD
ENDROOT
BRANCH   3  12
HETATM   12  O   UNL     1      63.532  11.770   6.927  1.00  0.00    -0.332 OA
HETATM   13  H   UNL     1      63.519  11.320   7.749  1.00  0.00     0.220 HD
ENDBRANCH   3  12
TORSDOF 1
ENDMDL
MODEL 3
REMARK VINA RESULT:      -4.7      1.631      2.528
REMARK  1 active torsions:
REMARK  status: ('A' for Active; 'I' for Inactive)
REMARK    1  A    between atoms: C_3  and  O_7 
ROOT
HETATM    1  N   UNL     1      62.866   9.637   5.676  1.00  0.00    -0.320 N 
ATOM      2  HN  UNL     1      62.897  10.268   6.477  1.00  0.00     0.169 HD
HETATM    3  C   UNL     1      63.148   8.364   5.646  1.00  0.00     0.222 A 
HETATM    4  N   UNL     1      63.006   7.809   4.413  1.00  0.00    -0.320 N 
HETATM    5  C   UNL     1      62.517   9.934   4.378  1.00  0.00     0.062 A 
HETATM    6  C   UNL     1      62.596   8.804   3.564  1.00  0.00     0.062 A 
HETATM    7  C   UNL     1      62.117  11.154   3.812  1.00  0.00     0.032 A 
HETATM    8  C   UNL     1      62.296   8.816   2.200  1.00  0.00     0.032 A 
HETATM    9  C   UNL     1      61.811  11.194   2.445  1.00  0.00     0.002 A 
HETATM   10  C   UNL     1      61.900  10.044   1.656  1.00  0.00     0.002 A 
HETATM   11  H   UNL     1      63.168   6.867   4.174  1.00  0.00     0.169 HD
ENDROOT
BRANCH   3  12
HETATM   12  O   UNL     1      63.530   7.685   6.706  1.00  0.00    -0.332 OA
HETATM   13  H   UNL     1      63.940   8.129   7.423  1.00  0.00     0.220 HD
ENDBRANCH   3  12
TORSDOF 1
ENDMDL
MODEL 4
REMARK VINA RESULT:      -4.7      1.701      2.210
REMARK  1 active torsions:
REMARK  status: ('A' for Active; 'I' for Inactive)
REMARK    1  A    between atoms: C_3  and  O_7 
ROOT
HETATM    1  N   UNL     1      62.864   7.694   4.437  1.00  0.00    -0.320 N 
ATOM      2  HN  UNL     1      62.973   6.717   4.166  1.00  0.00     0.169 HD
HETATM    3  C   UNL     1      63.034   8.224   5.617  1.00  0.00     0.222 A 
HETATM    4  N   UNL     1      62.806   9.564   5.644  1.00  0.00    -0.320 N 
HETATM    5  C   UNL     1      62.502   8.758   3.641  1.00  0.00     0.062 A 
HETATM    6  C   UNL     1      62.459   9.944   4.373  1.00  0.00     0.062 A 
HETATM    7  C   UNL     1      62.193   8.791   2.272  1.00  0.00     0.032 A 
HETATM    8  C   UNL     1      62.122  11.180   3.816  1.00  0.00     0.032 A 
HETATM    9  C   UNL     1      61.850  10.018   1.689  1.00  0.00     0.002 A 
HETATM   10  C   UNL     1      61.816  11.190   2.451  1.00  0.00     0.002 A 
HETATM   11  H   UNL     1      62.879  10.153   6.430  1.00  0.00     0.169 HD
ENDROOT
BRANCH   3  12
HETATM   12  O   UNL     1      63.391   7.529   6.675  1.00  0.00    -0.332 OA
HETATM   13  H   UNL     1      64.221   7.094   6.690  1.00  0.00     0.220 HD
ENDBRANCH   3  12
TORSDOF 1
ENDMDL
MODEL 5
REMARK VINA RESULT:      -4.3      1.728      2.522
REMARK  1 active torsions:
REMARK  status: ('A' for Active; 'I' for Inactive)
REMARK    1  A    between atoms: C_3  and  O_7 
ROOT
HETATM    1  N   UNL     1      63.361  10.362   5.482  1.00  0.00    -0.320 N 
ATOM      2  HN  UNL     1      63.718  10.727   6.365  1.00  0.00     0.169 HD
HETATM    3  C   UNL     1      62.531  10.936   4.654  1.00  0.00     0.222 A 
HETATM    4  N   UNL     1      62.251  10.177   3.561  1.00  0.00    -0.320 N 
HETATM    5  C   UNL     1      63.642   9.151   4.890  1.00  0.00     0.062 A 
HETATM    6  C   UNL     1      62.959   9.010   3.683  1.00  0.00     0.062 A 
HETATM    7  C   UNL     1      64.478   8.112   5.326  1.00  0.00     0.032 A 
HETATM    8  C   UNL     1      63.059   7.878   2.870  1.00  0.00     0.032 A 
HETATM    9  C   UNL     1      64.595   6.965   4.530  1.00  0.00     0.002 A 
HETATM   10  C   UNL     1      63.897   6.853   3.324  1.00  0.00     0.002 A 
HETATM   11  H   UNL     1      61.652  10.422   2.818  1.00  0.00     0.169 HD
ENDROOT
BRANCH   3  12
HETATM   12  O   UNL     1      62.017  12.129   4.858  1.00  0.00    -0.332 OA
HETATM   13  H   UNL     1      62.119  12.799   4.211  1.00  0.00     0.220 HD
ENDBRANCH   3  12
TORSDOF 1
ENDMDL
MODEL 6
REMARK VINA RESULT:      -4.1      2.366      3.232
REMARK  1 active torsions:
REMARK  status: ('A' for Active; 'I' for Inactive)
REMARK    1  A    between atoms: C_3  and  O_7 
ROOT
HETATM    1  N   UNL     1      64.483   8.642   5.913  1.00  0.00    -0.320 N 
ATOM      2  HN  UNL     1      64.780   8.976   6.830  1.00  0.00     0.169 HD
HETATM    3  C   UNL     1      64.840   7.544   5.305  1.00  0.00     0.222 A 
HETATM    4  N   UNL     1      64.261   7.392   4.084  1.00  0.00    -0.320 N 
HETATM    5  C   UNL     1      63.614   9.246   5.032  1.00  0.00     0.062 A 
HETATM    6  C   UNL     1      63.456   8.482   3.877  1.00  0.00     0.062 A 
HETATM    7  C   UNL     1      62.914  10.457   5.150  1.00  0.00     0.032 A 
HETATM    8  C   UNL     1      62.631   8.856   2.814  1.00  0.00     0.032 A 
HETATM    9  C   UNL     1      62.080  10.856   4.097  1.00  0.00     0.002 A 
HETATM   10  C   UNL     1      61.943  10.068   2.951  1.00  0.00     0.002 A 
HETATM   11  H   UNL     1      64.395   6.638   3.465  1.00  0.00     0.169 HD
ENDROOT
BRANCH   3  12
HETATM   12  O   UNL     1      65.676   6.671   5.824  1.00  0.00    -0.332 OA
HETATM   13  H   UNL     1      65.675   5.784   5.520  1.00  0.00     0.220 HD
ENDBRANCH   3  12
TORSDOF 1
ENDMDL
MODEL 7
REMARK VINA RESULT:      -3.9      4.549      5.325
REMARK  1 active torsions:
REMARK  status: ('A' for Active; 'I' for Inactive)
REMARK    1  A    between atoms: C_3  and  O_7 
ROOT
HETATM    1  N   UNL     1      65.826   6.297   8.052  1.00  0.00    -0.320 N 
ATOM      2  HN  UNL     1      65.471   5.642   8.749  1.00  0.00     0.169 HD
HETATM    3  C   UNL     1      67.000   6.864   8.010  1.00  0.00     0.222 A 
HETATM    4  N   UNL     1      67.160   7.693   6.944  1.00  0.00    -0.320 N 
HETATM    5  C   UNL     1      65.177   6.786   6.941  1.00  0.00     0.062 A 
HETATM    6  C   UNL     1      65.991   7.664   6.227  1.00  0.00     0.062 A 
HETATM    7  C   UNL     1      63.880   6.525   6.472  1.00  0.00     0.032 A 
HETATM    8  C   UNL     1      65.587   8.308   5.056  1.00  0.00     0.032 A 
HETATM    9  C   UNL     1      63.450   7.159   5.299  1.00  0.00     0.002 A 
HETATM   10  C   UNL     1      64.291   8.034   4.605  1.00  0.00     0.002 A 
HETATM   11  H   UNL     1      67.966   8.216   6.726  1.00  0.00     0.169 HD
ENDROOT
BRANCH   3  12
HETATM   12  O   UNL     1      67.936   6.653   8.910  1.00  0.00    -0.332 OA
HETATM   13  H   UNL     1      68.132   7.314   9.545  1.00  0.00     0.220 HD
ENDBRANCH   3  12
TORSDOF 1
ENDMDL
MODEL 8
REMARK VINA RESULT:      -3.9      2.196      3.143
REMARK  1 active torsions:
REMARK  status: ('A' for Active; 'I' for Inactive)
REMARK    1  A    between atoms: C_3  and  O_7 
ROOT
HETATM    1  N   UNL     1      61.314   9.822   3.364  1.00  0.00    -0.320 N 
ATOM      2  HN  UNL     1      60.625   9.970   2.627  1.00  0.00     0.169 HD
HETATM    3  C   UNL     1      62.024  10.720   3.991  1.00  0.00     0.222 A 
HETATM    4  N   UNL     1      62.858  10.191   4.926  1.00  0.00    -0.320 N 
HETATM    5  C   UNL     1      61.711   8.629   3.926  1.00  0.00     0.062 A 
HETATM    6  C   UNL     1      62.678   8.832   4.909  1.00  0.00     0.062 A 
HETATM    7  C   UNL     1      61.286   7.321   3.648  1.00  0.00     0.032 A 
HETATM    8  C   UNL     1      63.258   7.795   5.644  1.00  0.00     0.032 A 
HETATM    9  C   UNL     1      61.852   6.262   4.369  1.00  0.00     0.002 A 
HETATM   10  C   UNL     1      62.821   6.498   5.350  1.00  0.00     0.002 A 
HETATM   11  H   UNL     1      63.477  10.692   5.507  1.00  0.00     0.169 HD
ENDROOT
BRANCH   3  12
HETATM   12  O   UNL     1      61.939  12.009   3.744  1.00  0.00    -0.332 OA
HETATM   13  H   UNL     1      61.399  12.315   3.040  1.00  0.00     0.220 HD
ENDBRANCH   3  12
TORSDOF 1
ENDMDL
MODEL 9
REMARK VINA RESULT:      -3.7      5.186      6.374
REMARK  1 active torsions:
REMARK  status: ('A' for Active; 'I' for Inactive)
REMARK    1  A    between atoms: C_3  and  O_7 
ROOT
HETATM    1  N   UNL     1      65.536   7.292   4.889  1.00  0.00    -0.320 N 
ATOM      2  HN  UNL     1      65.018   7.254   4.011  1.00  0.00     0.169 HD
HETATM    3  C   UNL     1      65.579   8.270   5.752  1.00  0.00     0.222 A 
HETATM    4  N   UNL     1      66.370   8.003   6.827  1.00  0.00    -0.320 N 
HETATM    5  C   UNL     1      66.349   6.325   5.435  1.00  0.00     0.062 A 
HETATM    6  C   UNL     1      66.885   6.745   6.651  1.00  0.00     0.062 A 
HETATM    7  C   UNL     1      66.682   5.052   4.947  1.00  0.00     0.032 A 
HETATM    8  C   UNL     1      67.746   5.962   7.424  1.00  0.00     0.032 A 
HETATM    9  C   UNL     1      67.544   4.247   5.703  1.00  0.00     0.002 A 
HETATM   10  C   UNL     1      68.065   4.697   6.919  1.00  0.00     0.002 A 
HETATM   11  H   UNL     1      66.539   8.603   7.589  1.00  0.00     0.169 HD
ENDROOT
BRANCH   3  12
HETATM   12  O   UNL     1      64.923   9.399   5.598  1.00  0.00    -0.332 OA
HETATM   13  H   UNL     1      64.432   9.550   4.814  1.00  0.00     0.220 HD
ENDBRANCH   3  12
TORSDOF 1
ENDMDL
