MODEL 1
REMARK VINA RESULT:      -4.4      0.000      0.000
REMARK  3 active torsions:
REMARK  status: ('A' for Active; 'I' for Inactive)
REMARK    1  A    between atoms: C_1  and  C_3 
REMARK    2  A    between atoms: C_2  and  N_8 
REMARK    3  A    between atoms: C_3  and  O_9 
ROOT
HETATM    1  C   UNL     1      63.504   9.381   4.897  1.00  0.00     0.106 A 
HETATM    2  C   UNL     1      63.161  10.674   5.257  1.00  0.00     0.049 A 
HETATM    3  S   UNL     1      62.650   8.904   3.479  1.00  0.00    -0.094 SA
HETATM    4  C   UNL     1      62.210  11.261   4.379  1.00  0.00     0.038 A 
HETATM    5  C   UNL     1      61.845  10.405   3.365  1.00  0.00     0.053 A 
ENDROOT
BRANCH   1   6
HETATM    6  C   UNL     1      64.420   8.429   5.502  1.00  0.00     0.302 C 
HETATM    7  O   UNL     1      64.241   7.222   5.627  1.00  0.00    -0.259 OA
BRANCH   6   8
HETATM    8  O   UNL     1      65.555   9.065   5.933  1.00  0.00    -0.322 OA
HETATM    9  C   UNL     1      66.583   8.190   6.398  1.00  0.00     0.213 C 
ENDBRANCH   6   8
ENDBRANCH   1   6
BRANCH   2  10
HETATM   10  N   UNL     1      63.654  11.340   6.318  1.00  0.00    -0.398 N 
HETATM   11  H   UNL     1      64.162  12.173   6.183  1.00  0.00     0.156 HD
HETATM   12  H   UNL     1      63.506  10.996   7.228  1.00  0.00     0.156 HD
ENDBRANCH   2  10
TORSDOF 3
ENDMDL
MODEL 2
REMARK VINA RESULT:      -3.8      1.242      1.696
REMARK  3 active torsions:
REMARK  status: ('A' for Active; 'I' for Inactive)
REMARK    1  A    between atoms: C_1  and  C_3 
REMARK    2  A    between atoms: C_2  and  N_8 
REMARK    3  A    between atoms: C_3  and  O_9 
ROOT
HETATM    1  C   UNL     1      63.168   9.357   4.417  1.00  0.00     0.106 A 
HETATM    2  C   UNL     1      62.537  10.585   4.303  1.00  0.00     0.049 A 
HETATM    3  S   UNL     1      62.838   8.380   3.036  1.00  0.00    -0.094 SA
HETATM    4  C   UNL     1      61.795  10.719   3.098  1.00  0.00     0.038 A 
HETATM    5  C   UNL     1      61.873   9.590   2.315  1.00  0.00     0.053 A 
ENDROOT
BRANCH   1   6
HETATM    6  C   UNL     1      64.012   8.806   5.464  1.00  0.00     0.302 C 
HETATM    7  O   UNL     1      65.194   9.066   5.661  1.00  0.00    -0.259 OA
BRANCH   6   8
HETATM    8  O   UNL     1      63.301   7.926   6.237  1.00  0.00    -0.322 OA
HETATM    9  C   UNL     1      63.947   6.671   6.451  1.00  0.00     0.213 C 
ENDBRANCH   6   8
ENDBRANCH   1   6
BRANCH   2  10
HETATM   10  N   UNL     1      62.596  11.574   5.214  1.00  0.00    -0.398 N 
HETATM   11  H   UNL     1      63.354  11.622   5.841  1.00  0.00     0.156 HD
HETATM   12  H   UNL     1      61.882  12.251   5.254  1.00  0.00     0.156 HD
ENDBRANCH   2  10
TORSDOF 3
ENDMDL
MODEL 3
REMARK VINA RESULT:      -3.7      2.464      3.849
REMARK  3 active torsions:
REMARK  status: ('A' for Active; 'I' for Inactive)
REMARK    1  A    between atoms: C_1  and  C_3 
REMARK    2  A    between atoms: C_2  and  N_8 
REMARK    3  A    between atoms: C_3  and  O_9 
ROOT
HETATM    1  C   UNL     1      62.885   8.852   4.083  1.00  0.00     0.106 A 
HETATM    2  C   UNL     1      63.724   9.342   5.070  1.00  0.00     0.049 A 
HETATM    3  S   UNL     1      63.533   7.407   3.404  1.00  0.00    -0.094 SA
HETATM    4  C   UNL     1      64.881   8.539   5.264  1.00  0.00     0.038 A 
HETATM    5  C   UNL     1      64.904   7.453   4.421  1.00  0.00     0.053 A 
ENDROOT
BRANCH   1   6
HETATM    6  C   UNL     1      61.620   9.348   3.568  1.00  0.00     0.302 C 
HETATM    7  O   UNL     1      60.714   8.675   3.087  1.00  0.00    -0.259 OA
BRANCH   6   8
HETATM    8  O   UNL     1      61.556  10.712   3.689  1.00  0.00    -0.322 OA
HETATM    9  C   UNL     1      61.779  11.424   2.472  1.00  0.00     0.213 C 
ENDBRANCH   6   8
ENDBRANCH   1   6
BRANCH   2  10
HETATM   10  N   UNL     1      63.504  10.455   5.794  1.00  0.00    -0.398 N 
HETATM   11  H   UNL     1      63.126  10.386   6.701  1.00  0.00     0.156 HD
HETATM   12  H   UNL     1      63.720  11.339   5.418  1.00  0.00     0.156 HD
ENDBRANCH   2  10
TORSDOF 3
ENDMDL
MODEL 4
REMARK VINA RESULT:      -3.6      2.036      2.554
REMARK  3 active torsions:
REMARK  status: ('A' for Active; 'I' for Inactive)
REMARK    1  A    between atoms: C_1  and  C_3 
REMARK    2  A    between atoms: C_2  and  N_8 
REMARK    3  A    between atoms: C_3  and  O_9 
ROOT
HETATM    1  C   UNL     1      62.754   9.144   3.582  1.00  0.00     0.106 A 
HETATM    2  C   UNL     1      62.078  10.049   2.781  1.00  0.00     0.049 A 
HETATM    3  S   UNL     1      63.003   7.663   2.737  1.00  0.00    -0.094 SA
HETATM    4  C   UNL     1      61.770   9.531   1.493  1.00  0.00     0.038 A 
HETATM    5  C   UNL     1      62.217   8.240   1.336  1.00  0.00     0.053 A 
ENDROOT
BRANCH   1   6
HETATM    6  C   UNL     1      63.252   9.253   4.942  1.00  0.00     0.302 C 
HETATM    7  O   UNL     1      63.091  10.200   5.705  1.00  0.00    -0.259 OA
BRANCH   6   8
HETATM    8  O   UNL     1      63.950   8.125   5.287  1.00  0.00    -0.322 OA
HETATM    9  C   UNL     1      65.340   8.340   5.527  1.00  0.00     0.213 C 
ENDBRANCH   6   8
ENDBRANCH   1   6
BRANCH   2  10
HETATM   10  N   UNL     1      61.730  11.298   3.145  1.00  0.00    -0.398 N 
HETATM   11  H   UNL     1      60.969  11.745   2.706  1.00  0.00     0.156 HD
HETATM   12  H   UNL     1      62.235  11.765   3.848  1.00  0.00     0.156 HD
ENDBRANCH   2  10
TORSDOF 3
ENDMDL
MODEL 5
REMARK VINA RESULT:      -3.5      3.628      5.690
REMARK  3 active torsions:
REMARK  status: ('A' for Active; 'I' for Inactive)
REMARK    1  A    between atoms: C_1  and  C_3 
REMARK    2  A    between atoms: C_2  and  N_8 
REMARK    3  A    between atoms: C_3  and  O_9 
ROOT
HETATM    1  C   UNL     1      66.763   6.761   6.317  1.00  0.00     0.106 A 
HETATM    2  C   UNL     1      67.227   5.845   5.387  1.00  0.00     0.049 A 
HETATM    3  S   UNL     1      66.500   5.993   7.837  1.00  0.00    -0.094 SA
HETATM    4  C   UNL     1      67.364   4.534   5.918  1.00  0.00     0.038 A 
HETATM    5  C   UNL     1      67.001   4.473   7.244  1.00  0.00     0.053 A 
ENDROOT
BRANCH   1   6
HETATM    6  C   UNL     1      66.481   8.182   6.206  1.00  0.00     0.302 C 
HETATM    7  O   UNL     1      66.689   9.036   7.061  1.00  0.00    -0.259 OA
BRANCH   6   8
HETATM    8  O   UNL     1      65.935   8.466   4.982  1.00  0.00    -0.322 OA
HETATM    9  C   UNL     1      64.518   8.635   4.992  1.00  0.00     0.213 C 
ENDBRANCH   6   8
ENDBRANCH   1   6
BRANCH   2  10
HETATM   10  N   UNL     1      67.530   6.127   4.106  1.00  0.00    -0.398 N 
HETATM   11  H   UNL     1      68.243   5.627   3.647  1.00  0.00     0.156 HD
HETATM   12  H   UNL     1      67.039   6.834   3.628  1.00  0.00     0.156 HD
ENDBRANCH   2  10
TORSDOF 3
ENDMDL
MODEL 6
REMARK VINA RESULT:      -3.5      2.686      3.461
REMARK  3 active torsions:
REMARK  status: ('A' for Active; 'I' for Inactive)
REMARK    1  A    between atoms: C_1  and  C_3 
REMARK    2  A    between atoms: C_2  and  N_8 
REMARK    3  A    between atoms: C_3  and  O_9 
ROOT
HETATM    1  C   UNL     1      62.684   8.836   2.914  1.00  0.00     0.106 A 
HETATM    2  C   UNL     1      61.988   9.577   1.973  1.00  0.00     0.049 A 
HETATM    3  S   UNL     1      62.954   7.234   2.338  1.00  0.00    -0.094 SA
HETATM    4  C   UNL     1      61.683   8.838   0.798  1.00  0.00     0.038 A 
HETATM    5  C   UNL     1      62.150   7.546   0.864  1.00  0.00     0.053 A 
ENDROOT
BRANCH   1   6
HETATM    6  C   UNL     1      63.187   9.188   4.231  1.00  0.00     0.302 C 
HETATM    7  O   UNL     1      64.236   8.804   4.738  1.00  0.00    -0.259 OA
BRANCH   6   8
HETATM    8  O   UNL     1      62.316  10.035   4.864  1.00  0.00    -0.322 OA
HETATM    9  C   UNL     1      62.942  11.083   5.603  1.00  0.00     0.213 C 
ENDBRANCH   6   8
ENDBRANCH   1   6
BRANCH   2  10
HETATM   10  N   UNL     1      61.622  10.864   2.117  1.00  0.00    -0.398 N 
HETATM   11  H   UNL     1      61.360  11.206   3.003  1.00  0.00     0.156 HD
HETATM   12  H   UNL     1      61.615  11.465   1.337  1.00  0.00     0.156 HD
ENDBRANCH   2  10
TORSDOF 3
ENDMDL
MODEL 7
REMARK VINA RESULT:      -3.4      3.062      5.122
REMARK  3 active torsions:
REMARK  status: ('A' for Active; 'I' for Inactive)
REMARK    1  A    between atoms: C_1  and  C_3 
REMARK    2  A    between atoms: C_2  and  N_8 
REMARK    3  A    between atoms: C_3  and  O_9 
ROOT
HETATM    1  C   UNL     1      65.398   6.562   6.948  1.00  0.00     0.106 A 
HETATM    2  C   UNL     1      66.632   7.119   7.240  1.00  0.00     0.049 A 
HETATM    3  S   UNL     1      65.431   4.858   7.204  1.00  0.00    -0.094 SA
HETATM    4  C   UNL     1      67.589   6.158   7.667  1.00  0.00     0.038 A 
HETATM    5  C   UNL     1      67.067   4.886   7.693  1.00  0.00     0.053 A 
ENDROOT
BRANCH   1   6
HETATM    6  C   UNL     1      64.159   7.165   6.487  1.00  0.00     0.302 C 
HETATM    7  O   UNL     1      63.027   6.721   6.647  1.00  0.00    -0.259 OA
BRANCH   6   8
HETATM    8  O   UNL     1      64.416   8.338   5.826  1.00  0.00    -0.322 OA
HETATM    9  C   UNL     1      63.976   8.359   4.468  1.00  0.00     0.213 C 
ENDBRANCH   6   8
ENDBRANCH   1   6
BRANCH   2  10
HETATM   10  N   UNL     1      66.935   8.427   7.143  1.00  0.00    -0.398 N 
HETATM   11  H   UNL     1      67.252   8.797   6.287  1.00  0.00     0.156 HD
HETATM   12  H   UNL     1      66.840   9.015   7.927  1.00  0.00     0.156 HD
ENDBRANCH   2  10
TORSDOF 3
ENDMDL
MODEL 8
REMARK VINA RESULT:      -3.3      3.378      4.374
REMARK  3 active torsions:
REMARK  status: ('A' for Active; 'I' for Inactive)
REMARK    1  A    between atoms: C_1  and  C_3 
REMARK    2  A    between atoms: C_2  and  N_8 
REMARK    3  A    between atoms: C_3  and  O_9 
ROOT
HETATM    1  C   UNL     1      61.589   8.952   3.225  1.00  0.00     0.106 A 
HETATM    2  C   UNL     1      61.904  10.281   3.452  1.00  0.00     0.049 A 
HETATM    3  S   UNL     1      62.235   7.958   4.475  1.00  0.00    -0.094 SA
HETATM    4  C   UNL     1      62.665  10.478   4.636  1.00  0.00     0.038 A 
HETATM    5  C   UNL     1      62.917   9.294   5.291  1.00  0.00     0.053 A 
ENDROOT
BRANCH   1   6
HETATM    6  C   UNL     1      60.841   8.313   2.155  1.00  0.00     0.302 C 
HETATM    7  O   UNL     1      60.033   7.399   2.274  1.00  0.00    -0.259 OA
BRANCH   6   8
HETATM    8  O   UNL     1      61.159   8.878   0.947  1.00  0.00    -0.322 OA
HETATM    9  C   UNL     1      62.289   8.293   0.300  1.00  0.00     0.213 C 
ENDBRANCH   6   8
ENDBRANCH   1   6
BRANCH   2  10
HETATM   10  N   UNL     1      61.546  11.310   2.660  1.00  0.00    -0.398 N 
HETATM   11  H   UNL     1      62.234  11.819   2.174  1.00  0.00     0.156 HD
HETATM   12  H   UNL     1      60.597  11.553   2.567  1.00  0.00     0.156 HD
ENDBRANCH   2  10
TORSDOF 3
ENDMDL
MODEL 9
REMARK VINA RESULT:      -3.1      2.518      3.143
REMARK  3 active torsions:
REMARK  status: ('A' for Active; 'I' for Inactive)
REMARK    1  A    between atoms: C_1  and  C_3 
REMARK    2  A    between atoms: C_2  and  N_8 
REMARK    3  A    between atoms: C_3  and  O_9 
ROOT
HETATM    1  C   UNL     1      63.173   8.726   3.758  1.00  0.00     0.106 A 
HETATM    2  C   UNL     1      63.597   9.262   4.963  1.00  0.00     0.049 A 
HETATM    3  S   UNL     1      62.029   9.772   3.005  1.00  0.00    -0.094 SA
HETATM    4  C   UNL     1      62.991  10.512   5.260  1.00  0.00     0.038 A 
HETATM    5  C   UNL     1      62.114  10.908   4.276  1.00  0.00     0.053 A 
ENDROOT
BRANCH   1   6
HETATM    6  C   UNL     1      63.527   7.490   3.081  1.00  0.00     0.302 C 
HETATM    7  O   UNL     1      64.293   6.625   3.493  1.00  0.00    -0.259 OA
BRANCH   6   8
HETATM    8  O   UNL     1      62.875   7.401   1.878  1.00  0.00    -0.322 OA
HETATM    9  C   UNL     1      63.136   6.201   1.152  1.00  0.00     0.213 C 
ENDBRANCH   6   8
ENDBRANCH   1   6
BRANCH   2  10
HETATM   10  N   UNL     1      64.489   8.690   5.794  1.00  0.00    -0.398 N 
HETATM   11  H   UNL     1      64.505   8.941   6.746  1.00  0.00     0.156 HD
HETATM   12  H   UNL     1      65.125   8.022   5.451  1.00  0.00     0.156 HD
ENDBRANCH   2  10
TORSDOF 3
ENDMDL
