MODEL 1
REMARK VINA RESULT:      -4.5      0.000      0.000
REMARK  1 active torsions:
REMARK  status: ('A' for Active; 'I' for Inactive)
REMARK    1  A    between atoms: C_5  and  C_6 
ROOT
HETATM    1  N   UNL     1      65.260   7.557   6.860  1.00  0.00    -0.386 N 
ATOM      2  HN  UNL     1      64.773   7.938   7.671  1.00  0.00     0.160 HD
HETATM    3  C   UNL     1      64.608   7.224   5.709  1.00  0.00     0.154 C 
HETATM    4  C   UNL     1      66.595   7.349   6.853  1.00  0.00     0.084 C 
HETATM    5  C   UNL     1      65.085   6.145   4.966  1.00  0.00     0.004 C 
HETATM    6  C   UNL     1      67.253   6.706   5.822  1.00  0.00     0.017 C 
HETATM    7  C   UNL     1      66.468   6.024   4.899  1.00  0.00    -0.000 C 
ENDROOT
BRANCH   3   8
HETATM    8  C   UNL     1      64.323   8.436   4.822  1.00  0.00     0.035 C 
HETATM    9  N   UNL     1      64.091   9.584   5.526  1.00  0.00    -0.367 N 
HETATM   10  C   UNL     1      62.971  10.277   5.228  1.00  0.00     0.088 C 
ATOM     11  HN  UNL     1      64.738   9.905   6.247  1.00  0.00     0.165 HD
HETATM   12  C   UNL     1      62.110   9.926   4.211  1.00  0.00     0.017 C 
HETATM   13  C   UNL     1      62.497   8.907   3.349  1.00  0.00     0.003 C 
HETATM   14  C   UNL     1      63.669   8.203   3.610  1.00  0.00     0.027 C 
ENDBRANCH   3   8
TORSDOF 1
ENDMDL
MODEL 2
REMARK VINA RESULT:      -4.3      1.869      5.045
REMARK  1 active torsions:
REMARK  status: ('A' for Active; 'I' for Inactive)
REMARK    1  A    between atoms: C_5  and  C_6 
ROOT
HETATM    1  N   UNL     1      61.714   8.331   2.503  1.00  0.00    -0.386 N 
ATOM      2  HN  UNL     1      61.421   7.368   2.336  1.00  0.00     0.160 HD
HETATM    3  C   UNL     1      62.235   8.738   3.696  1.00  0.00     0.154 C 
HETATM    4  C   UNL     1      61.612   9.290   1.556  1.00  0.00     0.084 C 
HETATM    5  C   UNL     1      61.971  10.038   4.124  1.00  0.00     0.004 C 
HETATM    6  C   UNL     1      61.870  10.625   1.802  1.00  0.00     0.017 C 
HETATM    7  C   UNL     1      61.976  11.012   3.133  1.00  0.00    -0.000 C 
ENDROOT
BRANCH   3   8
HETATM    8  C   UNL     1      63.716   8.386   3.842  1.00  0.00     0.035 C 
HETATM    9  N   UNL     1      64.054   7.197   3.260  1.00  0.00    -0.367 N 
HETATM   10  C   UNL     1      64.728   6.306   4.018  1.00  0.00     0.088 C 
ATOM     11  HN  UNL     1      63.806   6.991   2.291  1.00  0.00     0.165 HD
HETATM   12  C   UNL     1      65.152   6.572   5.302  1.00  0.00     0.017 C 
HETATM   13  C   UNL     1      65.021   7.869   5.779  1.00  0.00     0.003 C 
HETATM   14  C   UNL     1      64.366   8.819   5.000  1.00  0.00     0.027 C 
ENDBRANCH   3   8
TORSDOF 1
ENDMDL
MODEL 3
REMARK VINA RESULT:      -4.2      3.706      5.490
REMARK  1 active torsions:
REMARK  status: ('A' for Active; 'I' for Inactive)
REMARK    1  A    between atoms: C_5  and  C_6 
ROOT
HETATM    1  N   UNL     1      62.770   8.850   3.391  1.00  0.00    -0.386 N 
ATOM      2  HN  UNL     1      63.313   8.012   3.599  1.00  0.00     0.160 HD
HETATM    3  C   UNL     1      62.166   9.047   2.184  1.00  0.00     0.154 C 
HETATM    4  C   UNL     1      62.598   9.841   4.295  1.00  0.00     0.084 C 
HETATM    5  C   UNL     1      62.068  10.350   1.697  1.00  0.00     0.004 C 
HETATM    6  C   UNL     1      61.988  11.042   3.990  1.00  0.00     0.017 C 
HETATM    7  C   UNL     1      61.790  11.328   2.644  1.00  0.00    -0.000 C 
ENDROOT
BRANCH   3   8
HETATM    8  C   UNL     1      60.839   8.298   2.060  1.00  0.00     0.035 C 
HETATM    9  N   UNL     1      60.781   7.162   2.818  1.00  0.00    -0.367 N 
HETATM   10  C   UNL     1      60.410   6.022   2.198  1.00  0.00     0.088 C 
ATOM     11  HN  UNL     1      61.009   7.176   3.813  1.00  0.00     0.165 HD
HETATM   12  C   UNL     1      60.018   5.971   0.877  1.00  0.00     0.017 C 
HETATM   13  C   UNL     1      59.842   7.171   0.200  1.00  0.00     0.003 C 
HETATM   14  C   UNL     1      60.178   8.365   0.832  1.00  0.00     0.027 C 
ENDBRANCH   3   8
TORSDOF 1
ENDMDL
MODEL 4
REMARK VINA RESULT:      -4.1      1.852      4.743
REMARK  1 active torsions:
REMARK  status: ('A' for Active; 'I' for Inactive)
REMARK    1  A    between atoms: C_5  and  C_6 
ROOT
HETATM    1  N   UNL     1      65.477   8.172   5.402  1.00  0.00    -0.386 N 
ATOM      2  HN  UNL     1      65.396   9.014   5.973  1.00  0.00     0.160 HD
HETATM    3  C   UNL     1      66.538   7.321   5.507  1.00  0.00     0.154 C 
HETATM    4  C   UNL     1      64.542   7.825   4.491  1.00  0.00     0.084 C 
HETATM    5  C   UNL     1      66.974   6.661   4.359  1.00  0.00     0.004 C 
HETATM    6  C   UNL     1      64.699   6.770   3.612  1.00  0.00     0.017 C 
HETATM    7  C   UNL     1      65.974   6.229   3.495  1.00  0.00    -0.000 C 
ENDROOT
BRANCH   3   8
HETATM    8  C   UNL     1      66.409   6.363   6.692  1.00  0.00     0.035 C 
HETATM    9  N   UNL     1      65.921   6.957   7.822  1.00  0.00    -0.367 N 
HETATM   10  C   UNL     1      66.623   6.788   8.963  1.00  0.00     0.088 C 
ATOM     11  HN  UNL     1      65.061   7.505   7.804  1.00  0.00     0.165 HD
HETATM   12  C   UNL     1      67.745   5.992   9.051  1.00  0.00     0.017 C 
HETATM   13  C   UNL     1      68.074   5.201   7.958  1.00  0.00     0.003 C 
HETATM   14  C   UNL     1      67.340   5.326   6.782  1.00  0.00     0.027 C 
ENDBRANCH   3   8
TORSDOF 1
ENDMDL
MODEL 5
REMARK VINA RESULT:      -4.1      1.977      3.116
REMARK  1 active torsions:
REMARK  status: ('A' for Active; 'I' for Inactive)
REMARK    1  A    between atoms: C_5  and  C_6 
ROOT
HETATM    1  N   UNL     1      63.375   9.057   5.380  1.00  0.00    -0.386 N 
ATOM      2  HN  UNL     1      63.281   9.884   5.970  1.00  0.00     0.160 HD
HETATM    3  C   UNL     1      62.308   8.278   5.041  1.00  0.00     0.154 C 
HETATM    4  C   UNL     1      64.567   8.659   4.882  1.00  0.00     0.084 C 
HETATM    5  C   UNL     1      62.512   6.908   4.882  1.00  0.00     0.004 C 
HETATM    6  C   UNL     1      64.741   7.470   4.201  1.00  0.00     0.017 C 
HETATM    7  C   UNL     1      63.706   6.543   4.273  1.00  0.00    -0.000 C 
ENDROOT
BRANCH   3   8
HETATM    8  C   UNL     1      61.495   8.864   3.886  1.00  0.00     0.035 C 
HETATM    9  N   UNL     1      61.134   7.938   2.948  1.00  0.00    -0.367 N 
HETATM   10  C   UNL     1      61.418   8.219   1.659  1.00  0.00     0.088 C 
ATOM     11  HN  UNL     1      60.669   7.068   3.212  1.00  0.00     0.165 HD
HETATM   12  C   UNL     1      61.972   9.412   1.248  1.00  0.00     0.017 C 
HETATM   13  C   UNL     1      62.095  10.433   2.182  1.00  0.00     0.003 C 
HETATM   14  C   UNL     1      61.770  10.181   3.512  1.00  0.00     0.027 C 
ENDBRANCH   3   8
TORSDOF 1
ENDMDL
MODEL 6
REMARK VINA RESULT:      -4.0      1.607      2.247
REMARK  1 active torsions:
REMARK  status: ('A' for Active; 'I' for Inactive)
REMARK    1  A    between atoms: C_5  and  C_6 
ROOT
HETATM    1  N   UNL     1      65.434   5.202   7.347  1.00  0.00    -0.386 N 
ATOM      2  HN  UNL     1      64.580   4.666   7.499  1.00  0.00     0.160 HD
HETATM    3  C   UNL     1      65.677   5.872   6.184  1.00  0.00     0.154 C 
HETATM    4  C   UNL     1      66.402   5.298   8.286  1.00  0.00     0.084 C 
HETATM    5  C   UNL     1      66.994   5.971   5.739  1.00  0.00     0.004 C 
HETATM    6  C   UNL     1      67.623   5.900   8.051  1.00  0.00     0.017 C 
HETATM    7  C   UNL     1      67.951   6.171   6.727  1.00  0.00    -0.000 C 
ENDROOT
BRANCH   3   8
HETATM    8  C   UNL     1      64.958   7.220   6.119  1.00  0.00     0.035 C 
HETATM    9  N   UNL     1      63.743   7.221   6.744  1.00  0.00    -0.367 N 
HETATM   10  C   UNL     1      62.685   7.679   6.041  1.00  0.00     0.088 C 
ATOM     11  HN  UNL     1      63.639   6.888   7.703  1.00  0.00     0.165 HD
HETATM   12  C   UNL     1      62.791   8.211   4.774  1.00  0.00     0.017 C 
HETATM   13  C   UNL     1      64.063   8.433   4.262  1.00  0.00     0.003 C 
HETATM   14  C   UNL     1      65.173   8.007   4.986  1.00  0.00     0.027 C 
ENDBRANCH   3   8
TORSDOF 1
ENDMDL
MODEL 7
REMARK VINA RESULT:      -4.0      2.908      4.597
REMARK  1 active torsions:
REMARK  status: ('A' for Active; 'I' for Inactive)
REMARK    1  A    between atoms: C_5  and  C_6 
ROOT
HETATM    1  N   UNL     1      60.130   8.342   2.532  1.00  0.00    -0.386 N 
ATOM      2  HN  UNL     1      59.582   9.023   2.006  1.00  0.00     0.160 HD
HETATM    3  C   UNL     1      61.420   8.040   2.208  1.00  0.00     0.154 C 
HETATM    4  C   UNL     1      59.627   7.678   3.596  1.00  0.00     0.084 C 
HETATM    5  C   UNL     1      61.870   6.738   2.423  1.00  0.00     0.004 C 
HETATM    6  C   UNL     1      60.301   6.653   4.233  1.00  0.00     0.017 C 
HETATM    7  C   UNL     1      61.410   6.125   3.582  1.00  0.00    -0.000 C 
ENDROOT
BRANCH   3   8
HETATM    8  C   UNL     1      62.417   9.074   2.735  1.00  0.00     0.035 C 
HETATM    9  N   UNL     1      63.328   8.555   3.612  1.00  0.00    -0.367 N 
HETATM   10  C   UNL     1      63.476   9.186   4.796  1.00  0.00     0.088 C 
ATOM     11  HN  UNL     1      63.874   7.725   3.380  1.00  0.00     0.165 HD
HETATM   12  C   UNL     1      62.819  10.353   5.120  1.00  0.00     0.017 C 
HETATM   13  C   UNL     1      62.096  10.996   4.124  1.00  0.00     0.003 C 
HETATM   14  C   UNL     1      61.963  10.386   2.879  1.00  0.00     0.027 C 
ENDBRANCH   3   8
TORSDOF 1
ENDMDL
MODEL 8
REMARK VINA RESULT:      -4.0      1.733      2.905
REMARK  1 active torsions:
REMARK  status: ('A' for Active; 'I' for Inactive)
REMARK    1  A    between atoms: C_5  and  C_6 
ROOT
HETATM    1  N   UNL     1      68.072   6.657   6.909  1.00  0.00    -0.386 N 
ATOM      2  HN  UNL     1      68.952   7.161   6.805  1.00  0.00     0.160 HD
HETATM    3  C   UNL     1      66.884   7.297   7.103  1.00  0.00     0.154 C 
HETATM    4  C   UNL     1      68.004   5.307   6.864  1.00  0.00     0.084 C 
HETATM    5  C   UNL     1      65.917   6.677   7.894  1.00  0.00     0.004 C 
HETATM    6  C   UNL     1      66.850   4.601   7.141  1.00  0.00     0.017 C 
HETATM    7  C   UNL     1      65.809   5.300   7.743  1.00  0.00    -0.000 C 
ENDROOT
BRANCH   3   8
HETATM    8  C   UNL     1      66.286   7.836   5.803  1.00  0.00     0.035 C 
HETATM    9  N   UNL     1      65.020   8.331   5.949  1.00  0.00    -0.367 N 
HETATM   10  C   UNL     1      64.075   7.875   5.099  1.00  0.00     0.088 C 
ATOM     11  HN  UNL     1      64.799   9.018   6.670  1.00  0.00     0.165 HD
HETATM   12  C   UNL     1      64.344   7.009   4.061  1.00  0.00     0.017 C 
HETATM   13  C   UNL     1      65.673   6.720   3.777  1.00  0.00     0.003 C 
HETATM   14  C   UNL     1      66.671   7.213   4.614  1.00  0.00     0.027 C 
ENDBRANCH   3   8
TORSDOF 1
ENDMDL
MODEL 9
REMARK VINA RESULT:      -4.0      1.520      4.375
REMARK  1 active torsions:
REMARK  status: ('A' for Active; 'I' for Inactive)
REMARK    1  A    between atoms: C_5  and  C_6 
ROOT
HETATM    1  N   UNL     1      62.140   7.330   5.540  1.00  0.00    -0.386 N 
ATOM      2  HN  UNL     1      61.759   6.923   6.394  1.00  0.00     0.160 HD
HETATM    3  C   UNL     1      63.225   8.156   5.547  1.00  0.00     0.154 C 
HETATM    4  C   UNL     1      61.603   7.087   4.324  1.00  0.00     0.084 C 
HETATM    5  C   UNL     1      63.285   9.180   4.603  1.00  0.00     0.004 C 
HETATM    6  C   UNL     1      62.013   7.735   3.175  1.00  0.00     0.017 C 
HETATM    7  C   UNL     1      62.816   8.858   3.335  1.00  0.00    -0.000 C 
ENDROOT
BRANCH   3   8
HETATM    8  C   UNL     1      64.547   7.391   5.632  1.00  0.00     0.035 C 
HETATM    9  N   UNL     1      64.547   6.408   6.582  1.00  0.00    -0.367 N 
HETATM   10  C   UNL     1      65.565   6.405   7.469  1.00  0.00     0.088 C 
ATOM     11  HN  UNL     1      63.808   5.706   6.619  1.00  0.00     0.165 HD
HETATM   12  C   UNL     1      66.625   7.284   7.409  1.00  0.00     0.017 C 
HETATM   13  C   UNL     1      66.733   8.105   6.294  1.00  0.00     0.003 C 
HETATM   14  C   UNL     1      65.716   8.097   5.342  1.00  0.00     0.027 C 
ENDBRANCH   3   8
TORSDOF 1
ENDMDL
