MODEL 1
REMARK VINA RESULT:      -4.6      0.000      0.000
REMARK  2 active torsions:
REMARK  status: ('A' for Active; 'I' for Inactive)
REMARK    1  A    between atoms: C_2  and  C_9 
REMARK    2  A    between atoms: N_4  and  C_9 
ROOT
HETATM    1  C   UNL     1      61.798  11.378   2.306  1.00  0.00     0.116 A 
HETATM    2  C   UNL     1      62.489   9.155   3.850  1.00  0.00    -0.033 A 
HETATM    3  F   UNL     1      61.467  12.445   1.567  1.00  0.00    -0.206 F 
HETATM    4  C   UNL     1      61.981  10.148   1.688  1.00  0.00     0.043 A 
HETATM    5  C   UNL     1      61.956  11.519   3.680  1.00  0.00     0.043 A 
HETATM    6  C   UNL     1      62.327   9.037   2.458  1.00  0.00     0.012 A 
HETATM    7  C   UNL     1      62.301  10.409   4.453  1.00  0.00     0.012 A 
ENDROOT
BRANCH   2   8
HETATM    8  C   UNL     1      62.874   7.955   4.678  1.00  0.00     0.268 C 
BRANCH   8   9
HETATM    9  N   UNL     1      62.977   8.293   6.093  1.00  0.00    -0.075 N 
HETATM   10  H   UNL     1      63.959   8.300   6.370  1.00  0.00     0.274 HD
HETATM   11  H   UNL     1      62.473   7.601   6.646  1.00  0.00     0.274 HD
HETATM   12  H   UNL     1      62.572   9.216   6.252  1.00  0.00     0.274 HD
ENDBRANCH   8   9
ENDBRANCH   2   8
TORSDOF 2
ENDMDL
MODEL 2
REMARK VINA RESULT:      -4.5      1.755      2.573
REMARK  2 active torsions:
REMARK  status: ('A' for Active; 'I' for Inactive)
REMARK    1  A    between atoms: C_2  and  C_9 
REMARK    2  A    between atoms: N_4  and  C_9 
ROOT
HETATM    1  C   UNL     1      62.171   9.394   1.674  1.00  0.00     0.116 A 
HETATM    2  C   UNL     1      62.427  10.625   4.169  1.00  0.00    -0.033 A 
HETATM    3  F   UNL     1      62.049   8.802   0.479  1.00  0.00    -0.206 F 
HETATM    4  C   UNL     1      61.783  10.719   1.825  1.00  0.00     0.043 A 
HETATM    5  C   UNL     1      62.682   8.672   2.746  1.00  0.00     0.043 A 
HETATM    6  C   UNL     1      61.910  11.334   3.071  1.00  0.00     0.012 A 
HETATM    7  C   UNL     1      62.811   9.285   3.993  1.00  0.00     0.012 A 
ENDROOT
BRANCH   2   8
HETATM    8  C   UNL     1      62.553  11.289   5.517  1.00  0.00     0.268 C 
BRANCH   8   9
HETATM    9  N   UNL     1      63.881  11.095   6.087  1.00  0.00    -0.075 N 
HETATM   10  H   UNL     1      64.451  11.922   5.910  1.00  0.00     0.274 HD
HETATM   11  H   UNL     1      64.320  10.281   5.658  1.00  0.00     0.274 HD
HETATM   12  H   UNL     1      63.799  10.947   7.094  1.00  0.00     0.274 HD
ENDBRANCH   8   9
ENDBRANCH   2   8
TORSDOF 2
ENDMDL
MODEL 3
REMARK VINA RESULT:      -4.1      2.641      3.397
REMARK  2 active torsions:
REMARK  status: ('A' for Active; 'I' for Inactive)
REMARK    1  A    between atoms: C_2  and  C_9 
REMARK    2  A    between atoms: N_4  and  C_9 
ROOT
HETATM    1  C   UNL     1      62.697  10.881   5.150  1.00  0.00     0.116 A 
HETATM    2  C   UNL     1      62.154   9.699   2.679  1.00  0.00    -0.033 A 
HETATM    3  F   UNL     1      62.958  11.447   6.337  1.00  0.00    -0.206 F 
HETATM    4  C   UNL     1      62.040  11.615   4.172  1.00  0.00     0.043 A 
HETATM    5  C   UNL     1      63.090   9.569   4.917  1.00  0.00     0.043 A 
HETATM    6  C   UNL     1      61.769  11.026   2.937  1.00  0.00     0.012 A 
HETATM    7  C   UNL     1      62.819   8.976   3.683  1.00  0.00     0.012 A 
ENDROOT
BRANCH   2   8
HETATM    8  C   UNL     1      61.870   9.068   1.339  1.00  0.00     0.268 C 
BRANCH   8   9
HETATM    9  N   UNL     1      60.442   8.846   1.144  1.00  0.00    -0.075 N 
HETATM   10  H   UNL     1      60.032   9.657   0.681  1.00  0.00     0.274 HD
HETATM   11  H   UNL     1      59.992   8.707   2.048  1.00  0.00     0.274 HD
HETATM   12  H   UNL     1      60.303   8.017   0.564  1.00  0.00     0.274 HD
ENDBRANCH   8   9
ENDBRANCH   2   8
TORSDOF 2
ENDMDL
MODEL 4
REMARK VINA RESULT:      -4.1      1.170      1.984
REMARK  2 active torsions:
REMARK  status: ('A' for Active; 'I' for Inactive)
REMARK    1  A    between atoms: C_2  and  C_9 
REMARK    2  A    between atoms: N_4  and  C_9 
ROOT
HETATM    1  C   UNL     1      61.870  11.091   2.293  1.00  0.00     0.116 A 
HETATM    2  C   UNL     1      62.578   8.599   3.337  1.00  0.00    -0.033 A 
HETATM    3  F   UNL     1      61.531  12.286   1.789  1.00  0.00    -0.206 F 
HETATM    4  C   UNL     1      62.047  10.950   3.663  1.00  0.00     0.043 A 
HETATM    5  C   UNL     1      62.039  10.011   1.434  1.00  0.00     0.043 A 
HETATM    6  C   UNL     1      62.399   9.706   4.185  1.00  0.00     0.012 A 
HETATM    7  C   UNL     1      62.392   8.765   1.954  1.00  0.00     0.012 A 
ENDROOT
BRANCH   2   8
HETATM    8  C   UNL     1      62.948   7.252   3.906  1.00  0.00     0.268 C 
BRANCH   8   9
HETATM    9  N   UNL     1      64.366   6.965   3.722  1.00  0.00    -0.075 N 
HETATM   10  H   UNL     1      64.831   7.786   3.333  1.00  0.00     0.274 HD
HETATM   11  H   UNL     1      64.474   6.178   3.083  1.00  0.00     0.274 HD
HETATM   12  H   UNL     1      64.785   6.732   4.623  1.00  0.00     0.274 HD
ENDBRANCH   8   9
ENDBRANCH   2   8
TORSDOF 2
ENDMDL
MODEL 5
REMARK VINA RESULT:      -4.0      2.027      2.644
REMARK  2 active torsions:
REMARK  status: ('A' for Active; 'I' for Inactive)
REMARK    1  A    between atoms: C_2  and  C_9 
REMARK    2  A    between atoms: N_4  and  C_9 
ROOT
HETATM    1  C   UNL     1      62.149  11.114   3.886  1.00  0.00     0.116 A 
HETATM    2  C   UNL     1      62.250   8.962   2.108  1.00  0.00    -0.033 A 
HETATM    3  F   UNL     1      62.101  12.145   4.740  1.00  0.00    -0.206 F 
HETATM    4  C   UNL     1      61.816  11.313   2.553  1.00  0.00     0.043 A 
HETATM    5  C   UNL     1      62.534   9.861   4.348  1.00  0.00     0.043 A 
HETATM    6  C   UNL     1      61.867  10.239   1.664  1.00  0.00     0.012 A 
HETATM    7  C   UNL     1      62.585   8.784   3.461  1.00  0.00     0.012 A 
ENDROOT
BRANCH   2   8
HETATM    8  C   UNL     1      62.316   7.805   1.143  1.00  0.00     0.268 C 
BRANCH   8   9
HETATM    9  N   UNL     1      63.114   6.708   1.677  1.00  0.00    -0.075 N 
HETATM   10  H   UNL     1      63.891   7.085   2.219  1.00  0.00     0.274 HD
HETATM   11  H   UNL     1      63.478   6.145   0.908  1.00  0.00     0.274 HD
HETATM   12  H   UNL     1      62.531   6.125   2.278  1.00  0.00     0.274 HD
ENDBRANCH   8   9
ENDBRANCH   2   8
TORSDOF 2
ENDMDL
MODEL 6
REMARK VINA RESULT:      -3.5     12.982     14.147
REMARK  2 active torsions:
REMARK  status: ('A' for Active; 'I' for Inactive)
REMARK    1  A    between atoms: C_2  and  C_9 
REMARK    2  A    between atoms: N_4  and  C_9 
ROOT
HETATM    1  C   UNL     1      59.402   1.182  13.109  1.00  0.00     0.116 A 
HETATM    2  C   UNL     1      56.731   1.971  13.318  1.00  0.00    -0.033 A 
HETATM    3  F   UNL     1      60.683   0.804  13.007  1.00  0.00    -0.206 F 
HETATM    4  C   UNL     1      58.609   0.647  14.115  1.00  0.00     0.043 A 
HETATM    5  C   UNL     1      58.887   2.105  12.207  1.00  0.00     0.043 A 
HETATM    6  C   UNL     1      57.275   1.041  14.221  1.00  0.00     0.012 A 
HETATM    7  C   UNL     1      57.552   2.501  12.310  1.00  0.00     0.012 A 
ENDROOT
BRANCH   2   8
HETATM    8  C   UNL     1      55.291   2.404  13.442  1.00  0.00     0.268 C 
BRANCH   8   9
HETATM    9  N   UNL     1      55.015   2.971  14.757  1.00  0.00    -0.075 N 
HETATM   10  H   UNL     1      54.323   3.716  14.668  1.00  0.00     0.274 HD
HETATM   11  H   UNL     1      55.874   3.350  15.153  1.00  0.00     0.274 HD
HETATM   12  H   UNL     1      54.651   2.241  15.371  1.00  0.00     0.274 HD
ENDBRANCH   8   9
ENDBRANCH   2   8
TORSDOF 2
ENDMDL
MODEL 7
REMARK VINA RESULT:      -3.4      3.129      4.167
REMARK  2 active torsions:
REMARK  status: ('A' for Active; 'I' for Inactive)
REMARK    1  A    between atoms: C_2  and  C_9 
REMARK    2  A    between atoms: N_4  and  C_9 
ROOT
HETATM    1  C   UNL     1      63.794   8.415   4.771  1.00  0.00     0.116 A 
HETATM    2  C   UNL     1      62.253   9.029   2.524  1.00  0.00    -0.033 A 
HETATM    3  F   UNL     1      64.534   8.119   5.849  1.00  0.00    -0.206 F 
HETATM    4  C   UNL     1      63.036   9.578   4.761  1.00  0.00     0.043 A 
HETATM    5  C   UNL     1      63.800   7.554   3.681  1.00  0.00     0.043 A 
HETATM    6  C   UNL     1      62.266   9.886   3.638  1.00  0.00     0.012 A 
HETATM    7  C   UNL     1      63.030   7.859   2.556  1.00  0.00     0.012 A 
ENDROOT
BRANCH   2   8
HETATM    8  C   UNL     1      61.430   9.370   1.307  1.00  0.00     0.268 C 
BRANCH   8   9
HETATM    9  N   UNL     1      60.153   8.666   1.311  1.00  0.00    -0.075 N 
HETATM   10  H   UNL     1      60.218   7.847   1.916  1.00  0.00     0.274 HD
HETATM   11  H   UNL     1      59.924   8.370   0.362  1.00  0.00     0.274 HD
HETATM   12  H   UNL     1      59.423   9.289   1.659  1.00  0.00     0.274 HD
ENDBRANCH   8   9
ENDBRANCH   2   8
TORSDOF 2
ENDMDL
MODEL 8
REMARK VINA RESULT:      -3.2      3.317      4.025
REMARK  2 active torsions:
REMARK  status: ('A' for Active; 'I' for Inactive)
REMARK    1  A    between atoms: C_2  and  C_9 
REMARK    2  A    between atoms: N_4  and  C_9 
ROOT
HETATM    1  C   UNL     1      61.047   6.997   1.532  1.00  0.00     0.116 A 
HETATM    2  C   UNL     1      61.602   9.541   2.542  1.00  0.00    -0.033 A 
HETATM    3  F   UNL     1      60.780   5.775   1.050  1.00  0.00    -0.206 F 
HETATM    4  C   UNL     1      61.626   7.949   0.703  1.00  0.00     0.043 A 
HETATM    5  C   UNL     1      60.738   7.292   2.855  1.00  0.00     0.043 A 
HETATM    6  C   UNL     1      61.902   9.220   1.206  1.00  0.00     0.012 A 
HETATM    7  C   UNL     1      61.015   8.563   3.361  1.00  0.00     0.012 A 
ENDROOT
BRANCH   2   8
HETATM    8  C   UNL     1      61.892  10.920   3.079  1.00  0.00     0.268 C 
BRANCH   8   9
HETATM    9  N   UNL     1      61.665  11.947   2.069  1.00  0.00    -0.075 N 
HETATM   10  H   UNL     1      61.192  11.534   1.265  1.00  0.00     0.274 HD
HETATM   11  H   UNL     1      62.559  12.338   1.774  1.00  0.00     0.274 HD
HETATM   12  H   UNL     1      61.083  12.688   2.463  1.00  0.00     0.274 HD
ENDBRANCH   8   9
ENDBRANCH   2   8
TORSDOF 2
ENDMDL
MODEL 9
REMARK VINA RESULT:      -3.1      2.947      3.912
REMARK  2 active torsions:
REMARK  status: ('A' for Active; 'I' for Inactive)
REMARK    1  A    between atoms: C_2  and  C_9 
REMARK    2  A    between atoms: N_4  and  C_9 
ROOT
HETATM    1  C   UNL     1      62.426   8.336   3.856  1.00  0.00     0.116 A 
HETATM    2  C   UNL     1      65.070   7.791   4.572  1.00  0.00    -0.033 A 
HETATM    3  F   UNL     1      61.158   8.596   3.511  1.00  0.00    -0.206 F 
HETATM    4  C   UNL     1      63.079   9.176   4.748  1.00  0.00     0.043 A 
HETATM    5  C   UNL     1      63.068   7.228   3.316  1.00  0.00     0.043 A 
HETATM    6  C   UNL     1      64.399   8.904   5.107  1.00  0.00     0.012 A 
HETATM    7  C   UNL     1      64.389   6.953   3.673  1.00  0.00     0.012 A 
ENDROOT
BRANCH   2   8
HETATM    8  C   UNL     1      66.494   7.492   4.970  1.00  0.00     0.268 C 
BRANCH   8   9
HETATM    9  N   UNL     1      67.222   6.829   3.895  1.00  0.00    -0.075 N 
HETATM   10  H   UNL     1      66.764   5.946   3.668  1.00  0.00     0.274 HD
HETATM   11  H   UNL     1      68.181   6.648   4.194  1.00  0.00     0.274 HD
HETATM   12  H   UNL     1      67.231   7.430   3.070  1.00  0.00     0.274 HD
ENDBRANCH   8   9
ENDBRANCH   2   8
TORSDOF 2
ENDMDL
