MODEL 1
REMARK VINA RESULT:      -4.3      0.000      0.000
REMARK  2 active torsions:
REMARK  status: ('A' for Active; 'I' for Inactive)
REMARK    1  A    between atoms: N_1  and  C_10 
REMARK    2  A    between atoms: C_9  and  C_10 
ROOT
HETATM    1  N   UNL     1      65.362   9.012   5.832  1.00  0.00    -0.197 NA
HETATM    2  C   UNL     1      64.744   8.479   5.007  1.00  0.00     0.060 C 
HETATM    3  C   UNL     1      63.941   7.815   3.972  1.00  0.00     0.144 C 
ENDROOT
BRANCH   3   4
HETATM    4  C   UNL     1      62.486   8.250   4.086  1.00  0.00     0.144 C 
BRANCH   4   5
HETATM    5  N   UNL     1      62.233   9.529   3.455  1.00  0.00    -0.345 N 
HETATM    6  C   UNL     1      61.965   9.780   2.128  1.00  0.00     0.079 A 
HETATM    7  N   UNL     1      61.704  11.059   1.948  1.00  0.00    -0.355 N 
HETATM    8  C   UNL     1      61.949   8.760   1.047  1.00  0.00     0.089 C 
HETATM    9  C   UNL     1      61.807  11.649   3.176  1.00  0.00     0.106 A 
ATOM     10  HN  UNL     1      61.470  11.518   1.067  1.00  0.00     0.166 HD
HETATM   11  C   UNL     1      62.154  10.721   4.128  1.00  0.00     0.109 A 
ENDBRANCH   4   5
ENDBRANCH   3   4
TORSDOF 2
ENDMDL
MODEL 2
REMARK VINA RESULT:      -4.0      1.228      1.228
REMARK  2 active torsions:
REMARK  status: ('A' for Active; 'I' for Inactive)
REMARK    1  A    between atoms: N_1  and  C_10 
REMARK    2  A    between atoms: C_9  and  C_10 
ROOT
HETATM    1  N   UNL     1      62.822   7.495   6.909  1.00  0.00    -0.197 NA
HETATM    2  C   UNL     1      63.376   7.800   5.936  1.00  0.00     0.060 C 
HETATM    3  C   UNL     1      64.056   8.182   4.691  1.00  0.00     0.144 C 
ENDROOT
BRANCH   3   4
HETATM    4  C   UNL     1      63.080   8.106   3.524  1.00  0.00     0.144 C 
BRANCH   4   5
HETATM    5  N   UNL     1      62.550   9.403   3.153  1.00  0.00    -0.345 N 
HETATM    6  C   UNL     1      62.028   9.788   1.939  1.00  0.00     0.079 A 
HETATM    7  N   UNL     1      61.567  11.021   2.010  1.00  0.00    -0.355 N 
HETATM    8  C   UNL     1      61.967   8.938   0.721  1.00  0.00     0.089 C 
HETATM    9  C   UNL     1      61.798  11.444   3.289  1.00  0.00     0.106 A 
ATOM     10  HN  UNL     1      61.127  11.553   1.260  1.00  0.00     0.166 HD
HETATM   11  C   UNL     1      62.425  10.462   4.015  1.00  0.00     0.109 A 
ENDBRANCH   4   5
ENDBRANCH   3   4
TORSDOF 2
ENDMDL
MODEL 3
REMARK VINA RESULT:      -3.8      0.901      2.033
REMARK  2 active torsions:
REMARK  status: ('A' for Active; 'I' for Inactive)
REMARK    1  A    between atoms: N_1  and  C_10 
REMARK    2  A    between atoms: C_9  and  C_10 
ROOT
HETATM    1  N   UNL     1      65.775   7.979   6.583  1.00  0.00    -0.197 NA
HETATM    2  C   UNL     1      65.225   7.970   5.562  1.00  0.00     0.060 C 
HETATM    3  C   UNL     1      64.506   7.961   4.281  1.00  0.00     0.144 C 
ENDROOT
BRANCH   3   4
HETATM    4  C   UNL     1      63.021   8.201   4.518  1.00  0.00     0.144 C 
BRANCH   4   5
HETATM    5  N   UNL     1      62.449   9.144   3.577  1.00  0.00    -0.345 N 
HETATM    6  C   UNL     1      62.221  10.489   3.759  1.00  0.00     0.079 A 
HETATM    7  N   UNL     1      61.768  11.031   2.646  1.00  0.00    -0.355 N 
HETATM    8  C   UNL     1      62.466  11.239   5.018  1.00  0.00     0.089 C 
HETATM    9  C   UNL     1      61.697  10.021   1.728  1.00  0.00     0.106 A 
ATOM     10  HN  UNL     1      61.520  12.009   2.499  1.00  0.00     0.166 HD
HETATM   11  C   UNL     1      62.099   8.833   2.289  1.00  0.00     0.109 A 
ENDBRANCH   4   5
ENDBRANCH   3   4
TORSDOF 2
ENDMDL
MODEL 4
REMARK VINA RESULT:      -3.7      1.725      4.081
REMARK  2 active torsions:
REMARK  status: ('A' for Active; 'I' for Inactive)
REMARK    1  A    between atoms: N_1  and  C_10 
REMARK    2  A    between atoms: C_9  and  C_10 
ROOT
HETATM    1  N   UNL     1      59.911   7.589   0.441  1.00  0.00    -0.197 NA
HETATM    2  C   UNL     1      60.659   8.359   0.881  1.00  0.00     0.060 C 
HETATM    3  C   UNL     1      61.616   9.315   1.453  1.00  0.00     0.144 C 
ENDROOT
BRANCH   3   4
HETATM    4  C   UNL     1      62.581   8.591   2.383  1.00  0.00     0.144 C 
BRANCH   4   5
HETATM    5  N   UNL     1      62.783   9.292   3.635  1.00  0.00    -0.345 N 
HETATM    6  C   UNL     1      63.671   8.987   4.641  1.00  0.00     0.079 A 
HETATM    7  N   UNL     1      63.625   9.906   5.586  1.00  0.00    -0.355 N 
HETATM    8  C   UNL     1      64.574   7.807   4.663  1.00  0.00     0.089 C 
HETATM    9  C   UNL     1      62.689  10.819   5.188  1.00  0.00     0.106 A 
ATOM     10  HN  UNL     1      64.178   9.930   6.442  1.00  0.00     0.166 HD
HETATM   11  C   UNL     1      62.138  10.449   3.985  1.00  0.00     0.109 A 
ENDBRANCH   4   5
ENDBRANCH   3   4
TORSDOF 2
ENDMDL
MODEL 5
REMARK VINA RESULT:      -3.7      4.483      7.805
REMARK  2 active torsions:
REMARK  status: ('A' for Active; 'I' for Inactive)
REMARK    1  A    between atoms: N_1  and  C_10 
REMARK    2  A    between atoms: C_9  and  C_10 
ROOT
HETATM    1  N   UNL     1      65.422   9.077   5.827  1.00  0.00    -0.197 NA
HETATM    2  C   UNL     1      65.919   8.063   5.564  1.00  0.00     0.060 C 
HETATM    3  C   UNL     1      66.565   6.782   5.249  1.00  0.00     0.144 C 
ENDROOT
BRANCH   3   4
HETATM    4  C   UNL     1      67.737   6.546   6.193  1.00  0.00     0.144 C 
BRANCH   4   5
HETATM    5  N   UNL     1      67.558   5.371   7.023  1.00  0.00    -0.345 N 
HETATM    6  C   UNL     1      67.107   5.313   8.322  1.00  0.00     0.079 A 
HETATM    7  N   UNL     1      66.996   4.059   8.713  1.00  0.00    -0.355 N 
HETATM    8  C   UNL     1      66.770   6.488   9.168  1.00  0.00     0.089 C 
HETATM    9  C   UNL     1      67.385   3.291   7.652  1.00  0.00     0.106 A 
ATOM     10  HN  UNL     1      66.683   3.728   9.625  1.00  0.00     0.166 HD
HETATM   11  C   UNL     1      67.757   4.084   6.594  1.00  0.00     0.109 A 
ENDBRANCH   4   5
ENDBRANCH   3   4
TORSDOF 2
ENDMDL
MODEL 6
REMARK VINA RESULT:      -3.6      1.612      3.946
REMARK  2 active torsions:
REMARK  status: ('A' for Active; 'I' for Inactive)
REMARK    1  A    between atoms: N_1  and  C_10 
REMARK    2  A    between atoms: C_9  and  C_10 
ROOT
HETATM    1  N   UNL     1      61.967  11.724   3.818  1.00  0.00    -0.197 NA
HETATM    2  C   UNL     1      61.849  10.978   2.938  1.00  0.00     0.060 C 
HETATM    3  C   UNL     1      61.716  10.018   1.834  1.00  0.00     0.144 C 
ENDROOT
BRANCH   3   4
HETATM    4  C   UNL     1      62.592   8.800   2.099  1.00  0.00     0.144 C 
BRANCH   4   5
HETATM    5  N   UNL     1      62.186   8.065   3.280  1.00  0.00    -0.345 N 
HETATM    6  C   UNL     1      62.824   7.999   4.497  1.00  0.00     0.079 A 
HETATM    7  N   UNL     1      62.106   7.299   5.353  1.00  0.00    -0.355 N 
HETATM    8  C   UNL     1      64.127   8.636   4.820  1.00  0.00     0.089 C 
HETATM    9  C   UNL     1      60.985   6.903   4.680  1.00  0.00     0.106 A 
ATOM     10  HN  UNL     1      62.340   7.096   6.325  1.00  0.00     0.166 HD
HETATM   11  C   UNL     1      61.020   7.351   3.382  1.00  0.00     0.109 A 
ENDBRANCH   4   5
ENDBRANCH   3   4
TORSDOF 2
ENDMDL
MODEL 7
REMARK VINA RESULT:      -3.6      1.515      1.650
REMARK  2 active torsions:
REMARK  status: ('A' for Active; 'I' for Inactive)
REMARK    1  A    between atoms: N_1  and  C_10 
REMARK    2  A    between atoms: C_9  and  C_10 
ROOT
HETATM    1  N   UNL     1      64.622   5.616   2.885  1.00  0.00    -0.197 NA
HETATM    2  C   UNL     1      64.351   6.624   3.391  1.00  0.00     0.060 C 
HETATM    3  C   UNL     1      63.984   7.898   4.024  1.00  0.00     0.144 C 
ENDROOT
BRANCH   3   4
HETATM    4  C   UNL     1      62.496   8.163   3.832  1.00  0.00     0.144 C 
BRANCH   4   5
HETATM    5  N   UNL     1      62.224   9.499   3.341  1.00  0.00    -0.345 N 
HETATM    6  C   UNL     1      61.906   9.881   2.058  1.00  0.00     0.079 A 
HETATM    7  N   UNL     1      61.644  11.173   2.017  1.00  0.00    -0.355 N 
HETATM    8  C   UNL     1      61.844   8.975   0.882  1.00  0.00     0.089 C 
HETATM    9  C   UNL     1      61.798  11.636   3.293  1.00  0.00     0.106 A 
ATOM     10  HN  UNL     1      61.379  11.717   1.196  1.00  0.00     0.166 HD
HETATM   11  C   UNL     1      62.177  10.617   4.133  1.00  0.00     0.109 A 
ENDBRANCH   4   5
ENDBRANCH   3   4
TORSDOF 2
ENDMDL
MODEL 8
REMARK VINA RESULT:      -3.5      1.557      2.568
REMARK  2 active torsions:
REMARK  status: ('A' for Active; 'I' for Inactive)
REMARK    1  A    between atoms: N_1  and  C_10 
REMARK    2  A    between atoms: C_9  and  C_10 
ROOT
HETATM    1  N   UNL     1      60.190   6.218   3.248  1.00  0.00    -0.197 NA
HETATM    2  C   UNL     1      61.139   6.571   3.814  1.00  0.00     0.060 C 
HETATM    3  C   UNL     1      62.349   7.031   4.509  1.00  0.00     0.144 C 
ENDROOT
BRANCH   3   4
HETATM    4  C   UNL     1      63.187   7.895   3.575  1.00  0.00     0.144 C 
BRANCH   4   5
HETATM    5  N   UNL     1      62.664   9.240   3.440  1.00  0.00    -0.345 N 
HETATM    6  C   UNL     1      62.082   9.816   2.333  1.00  0.00     0.079 A 
HETATM    7  N   UNL     1      61.653  11.029   2.620  1.00  0.00    -0.355 N 
HETATM    8  C   UNL     1      61.935   9.166   1.005  1.00  0.00     0.089 C 
HETATM    9  C   UNL     1      61.964  11.245   3.933  1.00  0.00     0.106 A 
ATOM     10  HN  UNL     1      61.182  11.676   1.988  1.00  0.00     0.166 HD
HETATM   11  C   UNL     1      62.610  10.154   4.461  1.00  0.00     0.109 A 
ENDBRANCH   4   5
ENDBRANCH   3   4
TORSDOF 2
ENDMDL
MODEL 9
REMARK VINA RESULT:      -3.5      2.344      4.460
REMARK  2 active torsions:
REMARK  status: ('A' for Active; 'I' for Inactive)
REMARK    1  A    between atoms: N_1  and  C_10 
REMARK    2  A    between atoms: C_9  and  C_10 
ROOT
HETATM    1  N   UNL     1      63.269  11.151   5.974  1.00  0.00    -0.197 NA
HETATM    2  C   UNL     1      62.845  10.410   5.189  1.00  0.00     0.060 C 
HETATM    3  C   UNL     1      62.330   9.460   4.194  1.00  0.00     0.144 C 
ENDROOT
BRANCH   3   4
HETATM    4  C   UNL     1      63.396   8.421   3.870  1.00  0.00     0.144 C 
BRANCH   4   5
HETATM    5  N   UNL     1      64.131   7.989   5.042  1.00  0.00    -0.345 N 
HETATM    6  C   UNL     1      63.685   7.199   6.077  1.00  0.00     0.079 A 
HETATM    7  N   UNL     1      64.668   6.951   6.919  1.00  0.00    -0.355 N 
HETATM    8  C   UNL     1      62.302   6.676   6.224  1.00  0.00     0.089 C 
HETATM    9  C   UNL     1      65.768   7.594   6.425  1.00  0.00     0.106 A 
ATOM     10  HN  UNL     1      64.618   6.391   7.770  1.00  0.00     0.166 HD
HETATM   11  C   UNL     1      65.455   8.262   5.267  1.00  0.00     0.109 A 
ENDBRANCH   4   5
ENDBRANCH   3   4
TORSDOF 2
ENDMDL
