MODEL 1
REMARK VINA RESULT:      -4.3      0.000      0.000
REMARK  7 active torsions:
REMARK  status: ('A' for Active; 'I' for Inactive)
REMARK    1  A    between atoms: C_1  and  C_6 
REMARK    2  A    between atoms: C_3  and  C_10 
REMARK    3  A    between atoms: C_6  and  N_7 
REMARK    4  A    between atoms: S_8  and  C_10 
REMARK    5  A    between atoms: S_8  and  C_11 
REMARK    6  A    between atoms: N_9  and  C_14 
REMARK    7  A    between atoms: C_11  and  C_14 
ROOT
HETATM    1  C   UNL     1      66.296   7.016   7.167  1.00  0.00     0.079 A 
HETATM    2  O   UNL     1      65.136   7.599   6.748  1.00  0.00    -0.317 OA
HETATM    3  C   UNL     1      65.364   8.111   5.505  1.00  0.00     0.062 A 
HETATM    4  C   UNL     1      67.257   7.121   6.182  1.00  0.00     0.037 A 
HETATM    5  C   UNL     1      66.658   7.831   5.116  1.00  0.00     0.036 A 
ENDROOT
BRANCH   3   6
HETATM    6  C   UNL     1      64.247   8.877   4.900  1.00  0.00     0.139 C 
BRANCH   6   7
HETATM    7  S   UNL     1      63.302   7.949   3.657  1.00  0.00    -0.161 SA
BRANCH   7   8
HETATM    8  C   UNL     1      61.819   9.011   3.472  1.00  0.00     0.101 C 
BRANCH   8   9
HETATM    9  C   UNL     1      62.029  10.504   3.765  1.00  0.00     0.239 C 
BRANCH   9  10
HETATM   10  N   UNL     1      61.622  11.377   2.664  1.00  0.00    -0.079 N 
HETATM   11  H   UNL     1      61.887  12.338   2.877  1.00  0.00     0.274 HD
HETATM   12  H   UNL     1      60.611  11.320   2.543  1.00  0.00     0.274 HD
HETATM   13  H   UNL     1      62.084  11.079   1.805  1.00  0.00     0.274 HD
ENDBRANCH   9  10
ENDBRANCH   8   9
ENDBRANCH   7   8
ENDBRANCH   6   7
ENDBRANCH   3   6
BRANCH   1  14
HETATM   14  C   UNL     1      66.298   6.449   8.549  1.00  0.00     0.298 C 
BRANCH  14  15
HETATM   15  N   UNL     1      66.184   4.976   8.564  1.00  0.00    -0.073 N 
HETATM   16  C   UNL     1      65.437   4.483   7.403  1.00  0.00     0.269 C 
HETATM   17  C   UNL     1      67.521   4.378   8.575  1.00  0.00     0.269 C 
HETATM   18  H   UNL     1      65.676   4.709   9.407  1.00  0.00     0.279 HD
ENDBRANCH  14  15
ENDBRANCH   1  14
TORSDOF 7
ENDMDL
MODEL 2
REMARK VINA RESULT:      -4.3      3.434      5.225
REMARK  7 active torsions:
REMARK  status: ('A' for Active; 'I' for Inactive)
REMARK    1  A    between atoms: C_1  and  C_6 
REMARK    2  A    between atoms: C_3  and  C_10 
REMARK    3  A    between atoms: C_6  and  N_7 
REMARK    4  A    between atoms: S_8  and  C_10 
REMARK    5  A    between atoms: S_8  and  C_11 
REMARK    6  A    between atoms: N_9  and  C_14 
REMARK    7  A    between atoms: C_11  and  C_14 
ROOT
HETATM    1  C   UNL     1      62.448   9.853   3.848  1.00  0.00     0.079 A 
HETATM    2  O   UNL     1      62.596   8.976   2.813  1.00  0.00    -0.317 OA
HETATM    3  C   UNL     1      62.160   9.603   1.683  1.00  0.00     0.062 A 
HETATM    4  C   UNL     1      61.953  11.053   3.379  1.00  0.00     0.037 A 
HETATM    5  C   UNL     1      61.762  10.888   1.988  1.00  0.00     0.036 A 
ENDROOT
BRANCH   3   6
HETATM    6  C   UNL     1      62.148   8.783   0.447  1.00  0.00     0.139 C 
BRANCH   6   7
HETATM    7  S   UNL     1      61.183   7.251   0.586  1.00  0.00    -0.161 SA
BRANCH   7   8
HETATM    8  C   UNL     1      59.491   7.917   0.821  1.00  0.00     0.101 C 
BRANCH   8   9
HETATM    9  C   UNL     1      58.789   7.507   2.124  1.00  0.00     0.239 C 
BRANCH   9  10
HETATM   10  N   UNL     1      59.434   8.036   3.325  1.00  0.00    -0.079 N 
HETATM   11  H   UNL     1      59.300   9.046   3.365  1.00  0.00     0.274 HD
HETATM   12  H   UNL     1      60.431   7.824   3.296  1.00  0.00     0.274 HD
HETATM   13  H   UNL     1      59.019   7.605   4.151  1.00  0.00     0.274 HD
ENDBRANCH   9  10
ENDBRANCH   8   9
ENDBRANCH   7   8
ENDBRANCH   6   7
ENDBRANCH   3   6
BRANCH   1  14
HETATM   14  C   UNL     1      62.799   9.347   5.209  1.00  0.00     0.298 C 
BRANCH  14  15
HETATM   15  N   UNL     1      63.587   8.098   5.170  1.00  0.00    -0.073 N 
HETATM   16  C   UNL     1      65.021   8.364   5.313  1.00  0.00     0.269 C 
HETATM   17  C   UNL     1      63.146   7.203   6.243  1.00  0.00     0.269 C 
HETATM   18  H   UNL     1      63.433   7.658   4.264  1.00  0.00     0.279 HD
ENDBRANCH  14  15
ENDBRANCH   1  14
TORSDOF 7
ENDMDL
MODEL 3
REMARK VINA RESULT:      -4.1      2.763      4.276
REMARK  7 active torsions:
REMARK  status: ('A' for Active; 'I' for Inactive)
REMARK    1  A    between atoms: C_1  and  C_6 
REMARK    2  A    between atoms: C_3  and  C_10 
REMARK    3  A    between atoms: C_6  and  N_7 
REMARK    4  A    between atoms: S_8  and  C_10 
REMARK    5  A    between atoms: S_8  and  C_11 
REMARK    6  A    between atoms: N_9  and  C_14 
REMARK    7  A    between atoms: C_11  and  C_14 
ROOT
HETATM    1  C   UNL     1      63.530   9.183   4.730  1.00  0.00     0.079 A 
HETATM    2  O   UNL     1      63.103   9.088   3.437  1.00  0.00    -0.317 OA
HETATM    3  C   UNL     1      62.264  10.139   3.207  1.00  0.00     0.062 A 
HETATM    4  C   UNL     1      62.995  10.311   5.319  1.00  0.00     0.037 A 
HETATM    5  C   UNL     1      62.176  10.921   4.341  1.00  0.00     0.036 A 
ENDROOT
BRANCH   3   6
HETATM    6  C   UNL     1      61.611  10.171   1.877  1.00  0.00     0.139 C 
BRANCH   6   7
HETATM    7  S   UNL     1      62.077   8.793   0.790  1.00  0.00    -0.161 SA
BRANCH   7   8
HETATM    8  C   UNL     1      60.527   7.814   0.772  1.00  0.00     0.101 C 
BRANCH   8   9
HETATM    9  C   UNL     1      60.358   6.811   1.922  1.00  0.00     0.239 C 
BRANCH   9  10
HETATM   10  N   UNL     1      61.586   6.589   2.686  1.00  0.00    -0.079 N 
HETATM   11  H   UNL     1      61.451   5.803   3.322  1.00  0.00     0.274 HD
HETATM   12  H   UNL     1      61.809   7.428   3.221  1.00  0.00     0.274 HD
HETATM   13  H   UNL     1      62.351   6.380   2.045  1.00  0.00     0.274 HD
ENDBRANCH   9  10
ENDBRANCH   8   9
ENDBRANCH   7   8
ENDBRANCH   6   7
ENDBRANCH   3   6
BRANCH   1  14
HETATM   14  C   UNL     1      64.410   8.083   5.226  1.00  0.00     0.298 C 
BRANCH  14  15
HETATM   15  N   UNL     1      63.908   7.464   6.469  1.00  0.00    -0.073 N 
HETATM   16  C   UNL     1      62.691   6.683   6.228  1.00  0.00     0.269 C 
HETATM   17  C   UNL     1      64.941   6.596   7.040  1.00  0.00     0.269 C 
HETATM   18  H   UNL     1      63.682   8.212   7.123  1.00  0.00     0.279 HD
ENDBRANCH  14  15
ENDBRANCH   1  14
TORSDOF 7
ENDMDL
MODEL 4
REMARK VINA RESULT:      -4.1      2.216      6.835
REMARK  7 active torsions:
REMARK  status: ('A' for Active; 'I' for Inactive)
REMARK    1  A    between atoms: C_1  and  C_6 
REMARK    2  A    between atoms: C_3  and  C_10 
REMARK    3  A    between atoms: C_6  and  N_7 
REMARK    4  A    between atoms: S_8  and  C_10 
REMARK    5  A    between atoms: S_8  and  C_11 
REMARK    6  A    between atoms: N_9  and  C_14 
REMARK    7  A    between atoms: C_11  and  C_14 
ROOT
HETATM    1  C   UNL     1      62.191   9.435   3.065  1.00  0.00     0.079 A 
HETATM    2  O   UNL     1      63.144   8.584   3.543  1.00  0.00    -0.317 OA
HETATM    3  C   UNL     1      63.602   9.105   4.718  1.00  0.00     0.062 A 
HETATM    4  C   UNL     1      62.011  10.481   3.946  1.00  0.00     0.037 A 
HETATM    5  C   UNL     1      62.924  10.271   5.006  1.00  0.00     0.036 A 
ENDROOT
BRANCH   3   6
HETATM    6  C   UNL     1      64.720   8.374   5.362  1.00  0.00     0.139 C 
BRANCH   6   7
HETATM    7  S   UNL     1      64.229   6.811   6.144  1.00  0.00    -0.161 SA
BRANCH   7   8
HETATM    8  C   UNL     1      65.863   6.091   6.559  1.00  0.00     0.101 C 
BRANCH   8   9
HETATM    9  C   UNL     1      66.993   7.102   6.801  1.00  0.00     0.239 C 
BRANCH   9  10
HETATM   10  N   UNL     1      67.260   7.351   8.217  1.00  0.00    -0.079 N 
HETATM   11  H   UNL     1      66.548   6.890   8.783  1.00  0.00     0.274 HD
HETATM   12  H   UNL     1      67.240   8.354   8.395  1.00  0.00     0.274 HD
HETATM   13  H   UNL     1      68.179   6.981   8.460  1.00  0.00     0.274 HD
ENDBRANCH   9  10
ENDBRANCH   8   9
ENDBRANCH   7   8
ENDBRANCH   6   7
ENDBRANCH   3   6
BRANCH   1  14
HETATM   14  C   UNL     1      61.599   9.097   1.736  1.00  0.00     0.298 C 
BRANCH  14  15
HETATM   15  N   UNL     1      60.191   8.662   1.830  1.00  0.00    -0.073 N 
HETATM   16  C   UNL     1      59.687   8.187   0.538  1.00  0.00     0.269 C 
HETATM   17  C   UNL     1      60.069   7.593   2.824  1.00  0.00     0.269 C 
HETATM   18  H   UNL     1      59.632   9.466   2.113  1.00  0.00     0.279 HD
ENDBRANCH  14  15
ENDBRANCH   1  14
TORSDOF 7
ENDMDL
MODEL 5
REMARK VINA RESULT:      -4.0      1.934      6.478
REMARK  7 active torsions:
REMARK  status: ('A' for Active; 'I' for Inactive)
REMARK    1  A    between atoms: C_1  and  C_6 
REMARK    2  A    between atoms: C_3  and  C_10 
REMARK    3  A    between atoms: C_6  and  N_7 
REMARK    4  A    between atoms: S_8  and  C_10 
REMARK    5  A    between atoms: S_8  and  C_11 
REMARK    6  A    between atoms: N_9  and  C_14 
REMARK    7  A    between atoms: C_11  and  C_14 
ROOT
HETATM    1  C   UNL     1      63.429   8.339   4.580  1.00  0.00     0.079 A 
HETATM    2  O   UNL     1      64.762   8.535   4.794  1.00  0.00    -0.317 OA
HETATM    3  C   UNL     1      65.119   7.769   5.865  1.00  0.00     0.062 A 
HETATM    4  C   UNL     1      62.937   7.424   5.488  1.00  0.00     0.037 A 
HETATM    5  C   UNL     1      64.024   7.063   6.318  1.00  0.00     0.036 A 
ENDROOT
BRANCH   3   6
HETATM    6  C   UNL     1      66.522   7.908   6.326  1.00  0.00     0.139 C 
BRANCH   6   7
HETATM    7  S   UNL     1      67.682   6.766   5.521  1.00  0.00    -0.161 SA
BRANCH   7   8
HETATM    8  C   UNL     1      67.748   5.404   6.747  1.00  0.00     0.101 C 
BRANCH   8   9
HETATM    9  C   UNL     1      67.378   5.786   8.187  1.00  0.00     0.239 C 
BRANCH   9  10
HETATM   10  N   UNL     1      66.225   5.052   8.707  1.00  0.00    -0.079 N 
HETATM   11  H   UNL     1      65.381   5.359   8.224  1.00  0.00     0.274 HD
HETATM   12  H   UNL     1      66.131   5.231   9.707  1.00  0.00     0.274 HD
HETATM   13  H   UNL     1      66.361   4.053   8.553  1.00  0.00     0.274 HD
ENDBRANCH   9  10
ENDBRANCH   8   9
ENDBRANCH   7   8
ENDBRANCH   6   7
ENDBRANCH   3   6
BRANCH   1  14
HETATM   14  C   UNL     1      62.802   9.144   3.489  1.00  0.00     0.298 C 
BRANCH  14  15
HETATM   15  N   UNL     1      62.020  10.289   3.999  1.00  0.00    -0.073 N 
HETATM   16  C   UNL     1      62.706  10.957   5.108  1.00  0.00     0.269 C 
HETATM   17  C   UNL     1      61.790  11.249   2.917  1.00  0.00     0.269 C 
HETATM   18  H   UNL     1      61.130   9.932   4.343  1.00  0.00     0.279 HD
ENDBRANCH  14  15
ENDBRANCH   1  14
TORSDOF 7
ENDMDL
MODEL 6
REMARK VINA RESULT:      -3.8      2.003      2.546
REMARK  7 active torsions:
REMARK  status: ('A' for Active; 'I' for Inactive)
REMARK    1  A    between atoms: C_1  and  C_6 
REMARK    2  A    between atoms: C_3  and  C_10 
REMARK    3  A    between atoms: C_6  and  N_7 
REMARK    4  A    between atoms: S_8  and  C_10 
REMARK    5  A    between atoms: S_8  and  C_11 
REMARK    6  A    between atoms: N_9  and  C_14 
REMARK    7  A    between atoms: C_11  and  C_14 
ROOT
HETATM    1  C   UNL     1      65.710   8.090   5.575  1.00  0.00     0.079 A 
HETATM    2  O   UNL     1      64.641   8.919   5.753  1.00  0.00    -0.317 OA
HETATM    3  C   UNL     1      63.740   8.638   4.768  1.00  0.00     0.062 A 
HETATM    4  C   UNL     1      65.481   7.254   4.501  1.00  0.00     0.037 A 
HETATM    5  C   UNL     1      64.217   7.612   3.979  1.00  0.00     0.036 A 
ENDROOT
BRANCH   3   6
HETATM    6  C   UNL     1      62.534   9.501   4.724  1.00  0.00     0.139 C 
BRANCH   6   7
HETATM    7  S   UNL     1      62.077  10.048   3.053  1.00  0.00    -0.161 SA
BRANCH   7   8
HETATM    8  C   UNL     1      61.038   8.646   2.491  1.00  0.00     0.101 C 
BRANCH   8   9
HETATM    9  C   UNL     1      60.207   7.955   3.582  1.00  0.00     0.239 C 
BRANCH   9  10
HETATM   10  N   UNL     1      58.780   7.881   3.268  1.00  0.00    -0.079 N 
HETATM   11  H   UNL     1      58.449   6.928   3.416  1.00  0.00     0.274 HD
HETATM   12  H   UNL     1      58.632   8.148   2.295  1.00  0.00     0.274 HD
HETATM   13  H   UNL     1      58.266   8.518   3.877  1.00  0.00     0.274 HD
ENDBRANCH   9  10
ENDBRANCH   8   9
ENDBRANCH   7   8
ENDBRANCH   6   7
ENDBRANCH   3   6
BRANCH   1  14
HETATM   14  C   UNL     1      66.862   8.276   6.507  1.00  0.00     0.298 C 
BRANCH  14  15
HETATM   15  N   UNL     1      67.031   7.145   7.441  1.00  0.00    -0.073 N 
HETATM   16  C   UNL     1      65.746   6.519   7.766  1.00  0.00     0.269 C 
HETATM   17  C   UNL     1      67.926   6.146   6.850  1.00  0.00     0.269 C 
HETATM   18  H   UNL     1      67.436   7.508   8.303  1.00  0.00     0.279 HD
ENDBRANCH  14  15
ENDBRANCH   1  14
TORSDOF 7
ENDMDL
MODEL 7
REMARK VINA RESULT:      -3.7      3.149      7.183
REMARK  7 active torsions:
REMARK  status: ('A' for Active; 'I' for Inactive)
REMARK    1  A    between atoms: C_1  and  C_6 
REMARK    2  A    between atoms: C_3  and  C_10 
REMARK    3  A    between atoms: C_6  and  N_7 
REMARK    4  A    between atoms: S_8  and  C_10 
REMARK    5  A    between atoms: S_8  and  C_11 
REMARK    6  A    between atoms: N_9  and  C_14 
REMARK    7  A    between atoms: C_11  and  C_14 
ROOT
HETATM    1  C   UNL     1      60.614   8.222   2.437  1.00  0.00     0.079 A 
HETATM    2  O   UNL     1      61.131   8.434   3.681  1.00  0.00    -0.317 OA
HETATM    3  C   UNL     1      62.098   9.388   3.563  1.00  0.00     0.062 A 
HETATM    4  C   UNL     1      61.222   9.062   1.526  1.00  0.00     0.037 A 
HETATM    5  C   UNL     1      62.181   9.807   2.251  1.00  0.00     0.036 A 
ENDROOT
BRANCH   3   6
HETATM    6  C   UNL     1      62.858   9.702   4.797  1.00  0.00     0.139 C 
BRANCH   6   7
HETATM    7  S   UNL     1      64.391   8.747   4.985  1.00  0.00    -0.161 SA
BRANCH   7   8
HETATM    8  C   UNL     1      63.755   7.196   5.727  1.00  0.00     0.101 C 
BRANCH   8   9
HETATM    9  C   UNL     1      64.628   6.577   6.829  1.00  0.00     0.239 C 
BRANCH   9  10
HETATM   10  N   UNL     1      65.811   7.374   7.150  1.00  0.00    -0.079 N 
HETATM   11  H   UNL     1      66.325   6.927   7.910  1.00  0.00     0.274 HD
HETATM   12  H   UNL     1      65.524   8.309   7.436  1.00  0.00     0.274 HD
HETATM   13  H   UNL     1      66.411   7.439   6.327  1.00  0.00     0.274 HD
ENDBRANCH   9  10
ENDBRANCH   8   9
ENDBRANCH   7   8
ENDBRANCH   6   7
ENDBRANCH   3   6
BRANCH   1  14
HETATM   14  C   UNL     1      59.579   7.152   2.316  1.00  0.00     0.298 C 
BRANCH  14  15
HETATM   15  N   UNL     1      58.203   7.667   2.464  1.00  0.00    -0.073 N 
HETATM   16  C   UNL     1      57.264   6.949   1.598  1.00  0.00     0.269 C 
HETATM   17  C   UNL     1      57.775   7.539   3.860  1.00  0.00     0.269 C 
HETATM   18  H   UNL     1      58.203   8.649   2.189  1.00  0.00     0.279 HD
ENDBRANCH  14  15
ENDBRANCH   1  14
TORSDOF 7
ENDMDL
MODEL 8
REMARK VINA RESULT:      -3.7      1.995      2.268
REMARK  7 active torsions:
REMARK  status: ('A' for Active; 'I' for Inactive)
REMARK    1  A    between atoms: C_1  and  C_6 
REMARK    2  A    between atoms: C_3  and  C_10 
REMARK    3  A    between atoms: C_6  and  N_7 
REMARK    4  A    between atoms: S_8  and  C_10 
REMARK    5  A    between atoms: S_8  and  C_11 
REMARK    6  A    between atoms: N_9  and  C_14 
REMARK    7  A    between atoms: C_11  and  C_14 
ROOT
HETATM    1  C   UNL     1      65.885   7.496   6.514  1.00  0.00     0.079 A 
HETATM    2  O   UNL     1      64.608   7.156   6.854  1.00  0.00    -0.317 OA
HETATM    3  C   UNL     1      63.805   7.490   5.804  1.00  0.00     0.062 A 
HETATM    4  C   UNL     1      65.908   8.013   5.234  1.00  0.00     0.037 A 
HETATM    5  C   UNL     1      64.568   8.015   4.782  1.00  0.00     0.036 A 
ENDROOT
BRANCH   3   6
HETATM    6  C   UNL     1      62.349   7.287   6.007  1.00  0.00     0.139 C 
BRANCH   6   7
HETATM    7  S   UNL     1      61.663   5.880   5.087  1.00  0.00    -0.161 SA
BRANCH   7   8
HETATM    8  C   UNL     1      61.349   6.645   3.450  1.00  0.00     0.101 C 
BRANCH   8   9
HETATM    9  C   UNL     1      60.757   8.061   3.480  1.00  0.00     0.239 C 
BRANCH   9  10
HETATM   10  N   UNL     1      59.295   8.081   3.519  1.00  0.00    -0.079 N 
HETATM   11  H   UNL     1      58.982   8.859   4.100  1.00  0.00     0.274 HD
HETATM   12  H   UNL     1      58.954   7.204   3.910  1.00  0.00     0.274 HD
HETATM   13  H   UNL     1      58.932   8.196   2.573  1.00  0.00     0.274 HD
ENDBRANCH   9  10
ENDBRANCH   8   9
ENDBRANCH   7   8
ENDBRANCH   6   7
ENDBRANCH   3   6
BRANCH   1  14
HETATM   14  C   UNL     1      66.934   7.284   7.556  1.00  0.00     0.298 C 
BRANCH  14  15
HETATM   15  N   UNL     1      67.145   5.858   7.876  1.00  0.00    -0.073 N 
HETATM   16  C   UNL     1      67.777   5.145   6.762  1.00  0.00     0.269 C 
HETATM   17  C   UNL     1      67.983   5.739   9.071  1.00  0.00     0.269 C 
HETATM   18  H   UNL     1      66.232   5.436   8.047  1.00  0.00     0.279 HD
ENDBRANCH  14  15
ENDBRANCH   1  14
TORSDOF 7
ENDMDL
MODEL 9
REMARK VINA RESULT:      -3.7      2.918      5.698
REMARK  7 active torsions:
REMARK  status: ('A' for Active; 'I' for Inactive)
REMARK    1  A    between atoms: C_1  and  C_6 
REMARK    2  A    between atoms: C_3  and  C_10 
REMARK    3  A    between atoms: C_6  and  N_7 
REMARK    4  A    between atoms: S_8  and  C_10 
REMARK    5  A    between atoms: S_8  and  C_11 
REMARK    6  A    between atoms: N_9  and  C_14 
REMARK    7  A    between atoms: C_11  and  C_14 
ROOT
HETATM    1  C   UNL     1      63.777   7.467   5.880  1.00  0.00     0.079 A 
HETATM    2  O   UNL     1      64.640   7.223   6.907  1.00  0.00    -0.317 OA
HETATM    3  C   UNL     1      65.897   7.503   6.457  1.00  0.00     0.062 A 
HETATM    4  C   UNL     1      64.471   7.936   4.783  1.00  0.00     0.037 A 
HETATM    5  C   UNL     1      65.836   7.952   5.154  1.00  0.00     0.036 A 
ENDROOT
BRANCH   3   6
HETATM    6  C   UNL     1      67.006   7.213   7.398  1.00  0.00     0.139 C 
BRANCH   6   7
HETATM    7  S   UNL     1      66.518   6.203   8.827  1.00  0.00    -0.161 SA
BRANCH   7   8
HETATM    8  C   UNL     1      67.113   4.547   8.312  1.00  0.00     0.101 C 
BRANCH   8   9
HETATM    9  C   UNL     1      66.208   3.791   7.329  1.00  0.00     0.239 C 
BRANCH   9  10
HETATM   10  N   UNL     1      64.792   4.129   7.461  1.00  0.00    -0.079 N 
HETATM   11  H   UNL     1      64.336   3.451   8.071  1.00  0.00     0.274 HD
HETATM   12  H   UNL     1      64.351   4.111   6.541  1.00  0.00     0.274 HD
HETATM   13  H   UNL     1      64.701   5.062   7.863  1.00  0.00     0.274 HD
ENDBRANCH   9  10
ENDBRANCH   8   9
ENDBRANCH   7   8
ENDBRANCH   6   7
ENDBRANCH   3   6
BRANCH   1  14
HETATM   14  C   UNL     1      62.337   7.155   6.129  1.00  0.00     0.298 C 
BRANCH  14  15
HETATM   15  N   UNL     1      61.786   6.184   5.163  1.00  0.00    -0.073 N 
HETATM   16  C   UNL     1      61.252   4.998   5.840  1.00  0.00     0.269 C 
HETATM   17  C   UNL     1      60.725   6.817   4.377  1.00  0.00     0.269 C 
HETATM   18  H   UNL     1      62.544   5.886   4.550  1.00  0.00     0.279 HD
ENDBRANCH  14  15
ENDBRANCH   1  14
TORSDOF 7
ENDMDL
