MODEL 1
REMARK VINA RESULT:      -4.2      0.000      0.000
REMARK  2 active torsions:
REMARK  status: ('A' for Active; 'I' for Inactive)
REMARK    1  A    between atoms: C_2  and  N_4 
REMARK    2  A    between atoms: C_3  and  N_5 
ROOT
HETATM    1  C   UNL     1      62.237  11.310   4.304  1.00  0.00     0.057 A 
HETATM    2  C   UNL     1      62.963  10.702   5.338  1.00  0.00     0.027 A 
HETATM    3  C   UNL     1      61.965  10.607   3.120  1.00  0.00     0.027 A 
HETATM    4  C   UNL     1      63.146   8.681   4.008  1.00  0.00     0.004 A 
HETATM    5  C   UNL     1      63.415   9.383   5.186  1.00  0.00     0.029 A 
HETATM    6  C   UNL     1      62.426   9.289   2.977  1.00  0.00     0.029 A 
ENDROOT
BRANCH   2   7
HETATM    7  N   UNL     1      63.241  11.416   6.530  1.00  0.00    -0.399 N 
HETATM    8  H   UNL     1      62.543  11.975   6.943  1.00  0.00     0.156 HD
HETATM    9  H   UNL     1      64.130  11.354   6.947  1.00  0.00     0.156 HD
ENDBRANCH   2   7
BRANCH   3  10
HETATM   10  N   UNL     1      61.235  11.224   2.075  1.00  0.00    -0.399 N 
HETATM   11  H   UNL     1      61.700  11.521   1.260  1.00  0.00     0.156 HD
HETATM   12  H   UNL     1      60.264  11.356   2.164  1.00  0.00     0.156 HD
ENDBRANCH   3  10
TORSDOF 2
ENDMDL
MODEL 2
REMARK VINA RESULT:      -4.2      0.005      2.987
REMARK  2 active torsions:
REMARK  status: ('A' for Active; 'I' for Inactive)
REMARK    1  A    between atoms: C_2  and  N_4 
REMARK    2  A    between atoms: C_3  and  N_5 
ROOT
HETATM    1  C   UNL     1      62.241  11.310   4.302  1.00  0.00     0.057 A 
HETATM    2  C   UNL     1      61.968  10.603   3.121  1.00  0.00     0.027 A 
HETATM    3  C   UNL     1      62.967  10.704   5.339  1.00  0.00     0.027 A 
HETATM    4  C   UNL     1      63.150   8.680   4.011  1.00  0.00     0.004 A 
HETATM    5  C   UNL     1      62.428   9.286   2.980  1.00  0.00     0.029 A 
HETATM    6  C   UNL     1      63.418   9.383   5.187  1.00  0.00     0.029 A 
ENDROOT
BRANCH   2   7
HETATM    7  N   UNL     1      61.230  11.216   2.078  1.00  0.00    -0.399 N 
HETATM    8  H   UNL     1      61.109  12.193   2.069  1.00  0.00     0.156 HD
HETATM    9  H   UNL     1      60.840  10.666   1.361  1.00  0.00     0.156 HD
ENDBRANCH   2   7
BRANCH   3  10
HETATM   10  N   UNL     1      63.237  11.417   6.533  1.00  0.00    -0.399 N 
HETATM   11  H   UNL     1      64.068  11.242   7.032  1.00  0.00     0.156 HD
HETATM   12  H   UNL     1      62.596  12.086   6.863  1.00  0.00     0.156 HD
ENDBRANCH   3  10
TORSDOF 2
ENDMDL
MODEL 3
REMARK VINA RESULT:      -3.9      1.714      2.420
REMARK  2 active torsions:
REMARK  status: ('A' for Active; 'I' for Inactive)
REMARK    1  A    between atoms: C_2  and  N_4 
REMARK    2  A    between atoms: C_3  and  N_5 
ROOT
HETATM    1  C   UNL     1      63.617   9.423   5.011  1.00  0.00     0.057 A 
HETATM    2  C   UNL     1      63.106  10.707   5.251  1.00  0.00     0.027 A 
HETATM    3  C   UNL     1      63.231   8.709   3.867  1.00  0.00     0.027 A 
HETATM    4  C   UNL     1      61.819  10.568   3.199  1.00  0.00     0.004 A 
HETATM    5  C   UNL     1      62.207  11.277   4.339  1.00  0.00     0.029 A 
HETATM    6  C   UNL     1      62.326   9.288   2.963  1.00  0.00     0.029 A 
ENDROOT
BRANCH   2   7
HETATM    7  N   UNL     1      63.495  11.424   6.410  1.00  0.00    -0.399 N 
HETATM    8  H   UNL     1      63.147  12.332   6.567  1.00  0.00     0.156 HD
HETATM    9  H   UNL     1      64.111  11.016   7.059  1.00  0.00     0.156 HD
ENDBRANCH   2   7
BRANCH   3  10
HETATM   10  N   UNL     1      63.744   7.411   3.628  1.00  0.00    -0.399 N 
HETATM   11  H   UNL     1      64.564   7.297   3.095  1.00  0.00     0.156 HD
HETATM   12  H   UNL     1      63.282   6.624   3.994  1.00  0.00     0.156 HD
ENDBRANCH   3  10
TORSDOF 2
ENDMDL
MODEL 4
REMARK VINA RESULT:      -3.9      1.745      3.261
REMARK  2 active torsions:
REMARK  status: ('A' for Active; 'I' for Inactive)
REMARK    1  A    between atoms: C_2  and  N_4 
REMARK    2  A    between atoms: C_3  and  N_5 
ROOT
HETATM    1  C   UNL     1      63.667   9.360   4.945  1.00  0.00     0.057 A 
HETATM    2  C   UNL     1      63.271   8.632   3.814  1.00  0.00     0.027 A 
HETATM    3  C   UNL     1      63.139  10.637   5.187  1.00  0.00     0.027 A 
HETATM    4  C   UNL     1      61.812  10.458   3.162  1.00  0.00     0.004 A 
HETATM    5  C   UNL     1      62.339   9.186   2.924  1.00  0.00     0.029 A 
HETATM    6  C   UNL     1      62.211  11.183   4.287  1.00  0.00     0.029 A 
ENDROOT
BRANCH   2   7
HETATM    7  N   UNL     1      63.809   7.344   3.569  1.00  0.00    -0.399 N 
HETATM    8  H   UNL     1      63.561   6.588   4.149  1.00  0.00     0.156 HD
HETATM    9  H   UNL     1      64.430   7.204   2.819  1.00  0.00     0.156 HD
ENDBRANCH   2   7
BRANCH   3  10
HETATM   10  N   UNL     1      63.544  11.372   6.328  1.00  0.00    -0.399 N 
HETATM   11  H   UNL     1      63.086  11.236   7.189  1.00  0.00     0.156 HD
HETATM   12  H   UNL     1      64.282  12.020   6.260  1.00  0.00     0.156 HD
ENDBRANCH   3  10
TORSDOF 2
ENDMDL
MODEL 5
REMARK VINA RESULT:      -3.8      1.613      3.810
REMARK  2 active torsions:
REMARK  status: ('A' for Active; 'I' for Inactive)
REMARK    1  A    between atoms: C_2  and  N_4 
REMARK    2  A    between atoms: C_3  and  N_5 
ROOT
HETATM    1  C   UNL     1      62.654   8.871   3.206  1.00  0.00     0.057 A 
HETATM    2  C   UNL     1      62.242   9.415   1.980  1.00  0.00     0.027 A 
HETATM    3  C   UNL     1      62.659   9.659   4.366  1.00  0.00     0.027 A 
HETATM    4  C   UNL     1      61.836  11.543   3.074  1.00  0.00     0.004 A 
HETATM    5  C   UNL     1      61.831  10.754   1.921  1.00  0.00     0.029 A 
HETATM    6  C   UNL     1      62.250  11.000   4.293  1.00  0.00     0.029 A 
ENDROOT
BRANCH   2   7
HETATM    7  N   UNL     1      62.242   8.617   0.809  1.00  0.00    -0.399 N 
HETATM    8  H   UNL     1      62.858   7.852   0.735  1.00  0.00     0.156 HD
HETATM    9  H   UNL     1      61.627   8.826   0.070  1.00  0.00     0.156 HD
ENDBRANCH   2   7
BRANCH   3  10
HETATM   10  N   UNL     1      63.080   9.109   5.602  1.00  0.00    -0.399 N 
HETATM   11  H   UNL     1      63.584   9.664   6.240  1.00  0.00     0.156 HD
HETATM   12  H   UNL     1      62.869   8.174   5.821  1.00  0.00     0.156 HD
ENDBRANCH   3  10
TORSDOF 2
ENDMDL
MODEL 6
REMARK VINA RESULT:      -3.6      1.393      2.173
REMARK  2 active torsions:
REMARK  status: ('A' for Active; 'I' for Inactive)
REMARK    1  A    between atoms: C_2  and  N_4 
REMARK    2  A    between atoms: C_3  and  N_5 
ROOT
HETATM    1  C   UNL     1      62.617   8.940   3.707  1.00  0.00     0.057 A 
HETATM    2  C   UNL     1      63.147   9.278   4.961  1.00  0.00     0.027 A 
HETATM    3  C   UNL     1      61.944   9.903   2.939  1.00  0.00     0.027 A 
HETATM    4  C   UNL     1      62.333  11.547   4.683  1.00  0.00     0.004 A 
HETATM    5  C   UNL     1      63.004  10.587   5.444  1.00  0.00     0.029 A 
HETATM    6  C   UNL     1      61.803  11.208   3.436  1.00  0.00     0.029 A 
ENDROOT
BRANCH   2   7
HETATM    7  N   UNL     1      63.822   8.302   5.736  1.00  0.00    -0.399 N 
HETATM    8  H   UNL     1      63.514   8.100   6.649  1.00  0.00     0.156 HD
HETATM    9  H   UNL     1      64.598   7.826   5.362  1.00  0.00     0.156 HD
ENDBRANCH   2   7
BRANCH   3  10
HETATM   10  N   UNL     1      61.405   9.559   1.675  1.00  0.00    -0.399 N 
HETATM   11  H   UNL     1      61.018  10.258   1.099  1.00  0.00     0.156 HD
HETATM   12  H   UNL     1      61.417   8.623   1.373  1.00  0.00     0.156 HD
ENDBRANCH   3  10
TORSDOF 2
ENDMDL
MODEL 7
REMARK VINA RESULT:      -3.6      1.712      3.153
REMARK  2 active torsions:
REMARK  status: ('A' for Active; 'I' for Inactive)
REMARK    1  A    between atoms: C_2  and  N_4 
REMARK    2  A    between atoms: C_3  and  N_5 
ROOT
HETATM    1  C   UNL     1      62.472   9.344   2.828  1.00  0.00     0.057 A 
HETATM    2  C   UNL     1      62.010  10.635   3.123  1.00  0.00     0.027 A 
HETATM    3  C   UNL     1      63.183   8.609   3.789  1.00  0.00     0.027 A 
HETATM    4  C   UNL     1      62.969  10.459   5.345  1.00  0.00     0.004 A 
HETATM    5  C   UNL     1      62.260  11.188   4.387  1.00  0.00     0.029 A 
HETATM    6  C   UNL     1      63.431   9.175   5.049  1.00  0.00     0.029 A 
ENDROOT
BRANCH   2   7
HETATM    7  N   UNL     1      61.297  11.377   2.148  1.00  0.00    -0.399 N 
HETATM    8  H   UNL     1      60.646  12.060   2.430  1.00  0.00     0.156 HD
HETATM    9  H   UNL     1      61.451  11.210   1.191  1.00  0.00     0.156 HD
ENDBRANCH   2   7
BRANCH   3  10
HETATM   10  N   UNL     1      63.653   7.306   3.488  1.00  0.00    -0.399 N 
HETATM   11  H   UNL     1      63.355   6.540   4.028  1.00  0.00     0.156 HD
HETATM   12  H   UNL     1      64.277   7.169   2.740  1.00  0.00     0.156 HD
ENDBRANCH   3  10
TORSDOF 2
ENDMDL
MODEL 8
REMARK VINA RESULT:      -3.5      2.067      3.345
REMARK  2 active torsions:
REMARK  status: ('A' for Active; 'I' for Inactive)
REMARK    1  A    between atoms: C_2  and  N_4 
REMARK    2  A    between atoms: C_3  and  N_5 
ROOT
HETATM    1  C   UNL     1      63.058   9.084   3.939  1.00  0.00     0.057 A 
HETATM    2  C   UNL     1      62.950   8.244   2.822  1.00  0.00     0.027 A 
HETATM    3  C   UNL     1      62.506  10.374   3.912  1.00  0.00     0.027 A 
HETATM    4  C   UNL     1      61.736   9.983   1.643  1.00  0.00     0.004 A 
HETATM    5  C   UNL     1      62.285   8.698   1.674  1.00  0.00     0.029 A 
HETATM    6  C   UNL     1      61.847  10.820   2.756  1.00  0.00     0.029 A 
ENDROOT
BRANCH   2   7
HETATM    7  N   UNL     1      63.512   6.943   2.851  1.00  0.00    -0.399 N 
HETATM    8  H   UNL     1      63.264   6.285   2.163  1.00  0.00     0.156 HD
HETATM    9  H   UNL     1      64.151   6.698   3.558  1.00  0.00     0.156 HD
ENDBRANCH   2   7
BRANCH   3  10
HETATM   10  N   UNL     1      62.620  11.224   5.040  1.00  0.00    -0.399 N 
HETATM   11  H   UNL     1      62.997  10.876   5.880  1.00  0.00     0.156 HD
HETATM   12  H   UNL     1      62.321  12.159   4.983  1.00  0.00     0.156 HD
ENDBRANCH   3  10
TORSDOF 2
ENDMDL
MODEL 9
REMARK VINA RESULT:      -3.4      1.419      1.773
REMARK  2 active torsions:
REMARK  status: ('A' for Active; 'I' for Inactive)
REMARK    1  A    between atoms: C_2  and  N_4 
REMARK    2  A    between atoms: C_3  and  N_5 
ROOT
HETATM    1  C   UNL     1      62.665   9.966   4.200  1.00  0.00     0.057 A 
HETATM    2  C   UNL     1      63.304   8.774   4.574  1.00  0.00     0.027 A 
HETATM    3  C   UNL     1      62.100  10.097   2.923  1.00  0.00     0.027 A 
HETATM    4  C   UNL     1      62.811   7.838   2.390  1.00  0.00     0.004 A 
HETATM    5  C   UNL     1      63.372   7.710   3.663  1.00  0.00     0.029 A 
HETATM    6  C   UNL     1      62.179   9.027   2.018  1.00  0.00     0.029 A 
ENDROOT
BRANCH   2   7
HETATM    7  N   UNL     1      63.878   8.646   5.863  1.00  0.00    -0.399 N 
HETATM    8  H   UNL     1      64.050   9.448   6.407  1.00  0.00     0.156 HD
HETATM    9  H   UNL     1      64.104   7.756   6.216  1.00  0.00     0.156 HD
ENDBRANCH   2   7
BRANCH   3  10
HETATM   10  N   UNL     1      61.459  11.303   2.546  1.00  0.00    -0.399 N 
HETATM   11  H   UNL     1      61.460  12.073   3.161  1.00  0.00     0.156 HD
HETATM   12  H   UNL     1      61.014  11.372   1.672  1.00  0.00     0.156 HD
ENDBRANCH   3  10
TORSDOF 2
ENDMDL
