MODEL 1
REMARK VINA RESULT:      -6.4      0.000      0.000
REMARK  2 active torsions:
REMARK  status: ('A' for Active; 'I' for Inactive)
REMARK       I    between atoms: C_1  and  N_4 
REMARK    1  A    between atoms: C_1  and  C_3 
REMARK    2  A    between atoms: N_4  and  C_10 
ROOT
HETATM    1  N   UNL     1      64.014   7.029   3.718  1.00  0.00    -0.058 N 
HETATM    2  C   UNL     1      64.247   7.967   4.858  1.00  0.00     0.281 C 
HETATM    3  C   UNL     1      63.059   8.873   5.224  1.00  0.00     0.082 C 
HETATM    4  C   UNL     1      62.602   9.614   4.002  1.00  0.00    -0.048 A 
HETATM    5  C   UNL     1      62.922   7.439   2.812  1.00  0.00     0.272 C 
HETATM    6  C   UNL     1      62.595   8.913   2.790  1.00  0.00    -0.026 A 
HETATM    7  C   UNL     1      62.179  10.947   4.057  1.00  0.00     0.008 A 
HETATM    8  C   UNL     1      62.172   9.566   1.628  1.00  0.00     0.009 A 
HETATM    9  C   UNL     1      61.773  11.589   2.893  1.00  0.00     0.001 A 
HETATM   10  C   UNL     1      61.773  10.904   1.678  1.00  0.00     0.001 A 
HETATM   11  H   UNL     1      63.786   6.111   4.100  1.00  0.00     0.278 HD
HETATM   12  H   UNL     1      64.870   7.024   3.163  1.00  0.00     0.278 HD
ENDROOT
BRANCH   2  13
HETATM   13  C   UNL     1      64.693   7.202   6.127  1.00  0.00     0.249 C 
HETATM   14  N   UNL     1      65.906   6.554   6.010  1.00  0.00    -0.351 N 
HETATM   15  H   UNL     1      66.392   6.649   5.159  1.00  0.00     0.163 HD
HETATM   16  O   UNL     1      64.028   7.201   7.162  1.00  0.00    -0.271 OA
BRANCH  14  17
HETATM   17  C   UNL     1      66.529   5.730   7.060  1.00  0.00     0.022 C 
HETATM   18  C   UNL     1      65.583   4.599   7.501  1.00  0.00     0.037 C 
HETATM   19  C   UNL     1      67.806   5.102   6.474  1.00  0.00     0.037 C 
HETATM   20  C   UNL     1      66.923   6.564   8.291  1.00  0.00     0.037 C 
ENDBRANCH  14  17
ENDBRANCH   2  13
TORSDOF 2
ENDMDL
MODEL 2
REMARK VINA RESULT:      -5.9      1.261      2.096
REMARK  2 active torsions:
REMARK  status: ('A' for Active; 'I' for Inactive)
REMARK       I    between atoms: C_1  and  N_4 
REMARK    1  A    between atoms: C_1  and  C_3 
REMARK    2  A    between atoms: N_4  and  C_10 
ROOT
HETATM    1  N   UNL     1      63.418   8.810   5.872  1.00  0.00    -0.058 N 
HETATM    2  C   UNL     1      63.737   7.422   5.419  1.00  0.00     0.281 C 
HETATM    3  C   UNL     1      64.235   7.295   3.970  1.00  0.00     0.082 C 
HETATM    4  C   UNL     1      63.250   7.949   3.046  1.00  0.00    -0.048 A 
HETATM    5  C   UNL     1      63.139   9.755   4.771  1.00  0.00     0.272 C 
HETATM    6  C   UNL     1      62.659   9.144   3.477  1.00  0.00    -0.026 A 
HETATM    7  C   UNL     1      62.938   7.411   1.792  1.00  0.00     0.008 A 
HETATM    8  C   UNL     1      61.739   9.788   2.644  1.00  0.00     0.009 A 
HETATM    9  C   UNL     1      62.012   8.054   0.978  1.00  0.00     0.001 A 
HETATM   10  C   UNL     1      61.408   9.238   1.402  1.00  0.00     0.001 A 
HETATM   11  H   UNL     1      64.214   9.164   6.404  1.00  0.00     0.278 HD
HETATM   12  H   UNL     1      62.566   8.749   6.429  1.00  0.00     0.278 HD
ENDROOT
BRANCH   2  13
HETATM   13  C   UNL     1      64.772   6.754   6.356  1.00  0.00     0.249 C 
HETATM   14  N   UNL     1      65.651   5.899   5.725  1.00  0.00    -0.351 N 
HETATM   15  H   UNL     1      65.570   5.803   4.748  1.00  0.00     0.163 HD
HETATM   16  O   UNL     1      64.820   6.996   7.562  1.00  0.00    -0.271 OA
BRANCH  14  17
HETATM   17  C   UNL     1      66.702   5.117   6.399  1.00  0.00     0.022 C 
HETATM   18  C   UNL     1      66.094   4.192   7.469  1.00  0.00     0.037 C 
HETATM   19  C   UNL     1      67.401   4.248   5.338  1.00  0.00     0.037 C 
HETATM   20  C   UNL     1      67.760   6.018   7.058  1.00  0.00     0.037 C 
ENDBRANCH  14  17
ENDBRANCH   2  13
TORSDOF 2
ENDMDL
MODEL 3
REMARK VINA RESULT:      -5.7      1.158      1.659
REMARK  2 active torsions:
REMARK  status: ('A' for Active; 'I' for Inactive)
REMARK       I    between atoms: C_1  and  N_4 
REMARK    1  A    between atoms: C_1  and  C_3 
REMARK    2  A    between atoms: N_4  and  C_10 
ROOT
HETATM    1  N   UNL     1      64.082   6.777   2.880  1.00  0.00    -0.058 N 
HETATM    2  C   UNL     1      64.663   7.309   4.150  1.00  0.00     0.281 C 
HETATM    3  C   UNL     1      63.681   8.058   5.065  1.00  0.00     0.082 C 
HETATM    4  C   UNL     1      63.004   9.147   4.285  1.00  0.00    -0.048 A 
HETATM    5  C   UNL     1      62.841   7.454   2.453  1.00  0.00     0.272 C 
HETATM    6  C   UNL     1      62.643   8.861   2.962  1.00  0.00    -0.026 A 
HETATM    7  C   UNL     1      62.720  10.397   4.847  1.00  0.00     0.008 A 
HETATM    8  C   UNL     1      62.006   9.847   2.201  1.00  0.00     0.009 A 
HETATM    9  C   UNL     1      62.099  11.373   4.077  1.00  0.00     0.001 A 
HETATM   10  C   UNL     1      61.745  11.104   2.755  1.00  0.00     0.001 A 
HETATM   11  H   UNL     1      63.878   5.786   3.012  1.00  0.00     0.278 HD
HETATM   12  H   UNL     1      64.773   6.943   2.148  1.00  0.00     0.278 HD
ENDROOT
BRANCH   2  13
HETATM   13  C   UNL     1      65.339   6.183   4.968  1.00  0.00     0.249 C 
HETATM   14  N   UNL     1      65.628   6.517   6.276  1.00  0.00    -0.351 N 
HETATM   15  H   UNL     1      65.364   7.414   6.584  1.00  0.00     0.163 HD
HETATM   16  O   UNL     1      65.569   5.072   4.492  1.00  0.00    -0.271 OA
BRANCH  14  17
HETATM   17  C   UNL     1      66.302   5.636   7.245  1.00  0.00     0.022 C 
HETATM   18  C   UNL     1      67.749   5.348   6.807  1.00  0.00     0.037 C 
HETATM   19  C   UNL     1      66.333   6.360   8.602  1.00  0.00     0.037 C 
HETATM   20  C   UNL     1      65.557   4.302   7.427  1.00  0.00     0.037 C 
ENDBRANCH  14  17
ENDBRANCH   2  13
TORSDOF 2
ENDMDL
MODEL 4
REMARK VINA RESULT:      -5.5      1.884      6.408
REMARK  2 active torsions:
REMARK  status: ('A' for Active; 'I' for Inactive)
REMARK       I    between atoms: C_1  and  N_4 
REMARK    1  A    between atoms: C_1  and  C_3 
REMARK    2  A    between atoms: N_4  and  C_10 
ROOT
HETATM    1  N   UNL     1      62.907   7.998   6.142  1.00  0.00    -0.058 N 
HETATM    2  C   UNL     1      63.632   8.837   5.140  1.00  0.00     0.281 C 
HETATM    3  C   UNL     1      64.748   8.123   4.361  1.00  0.00     0.082 C 
HETATM    4  C   UNL     1      65.707   7.492   5.327  1.00  0.00    -0.048 A 
HETATM    5  C   UNL     1      63.663   6.812   6.596  1.00  0.00     0.272 C 
HETATM    6  C   UNL     1      65.165   6.894   6.472  1.00  0.00    -0.026 A 
HETATM    7  C   UNL     1      67.087   7.477   5.100  1.00  0.00     0.008 A 
HETATM    8  C   UNL     1      66.024   6.291   7.397  1.00  0.00     0.009 A 
HETATM    9  C   UNL     1      67.932   6.885   6.033  1.00  0.00     0.001 A 
HETATM   10  C   UNL     1      67.405   6.297   7.182  1.00  0.00     0.001 A 
HETATM   11  H   UNL     1      62.034   7.679   5.722  1.00  0.00     0.278 HD
HETATM   12  H   UNL     1      62.760   8.583   6.964  1.00  0.00     0.278 HD
ENDROOT
BRANCH   2  13
HETATM   13  C   UNL     1      62.647   9.467   4.127  1.00  0.00     0.249 C 
HETATM   14  N   UNL     1      62.677   8.901   2.869  1.00  0.00    -0.351 N 
HETATM   15  H   UNL     1      63.288   8.142   2.726  1.00  0.00     0.163 HD
HETATM   16  O   UNL     1      61.881  10.380   4.434  1.00  0.00    -0.271 OA
BRANCH  14  17
HETATM   17  C   UNL     1      61.866   9.345   1.722  1.00  0.00     0.022 C 
HETATM   18  C   UNL     1      61.804  10.881   1.658  1.00  0.00     0.037 C 
HETATM   19  C   UNL     1      62.536   8.826   0.438  1.00  0.00     0.037 C 
HETATM   20  C   UNL     1      60.433   8.787   1.777  1.00  0.00     0.037 C 
ENDBRANCH  14  17
ENDBRANCH   2  13
TORSDOF 2
ENDMDL
MODEL 5
REMARK VINA RESULT:      -5.2      1.961      2.557
REMARK  2 active torsions:
REMARK  status: ('A' for Active; 'I' for Inactive)
REMARK       I    between atoms: C_1  and  N_4 
REMARK    1  A    between atoms: C_1  and  C_3 
REMARK    2  A    between atoms: N_4  and  C_10 
ROOT
HETATM    1  N   UNL     1      62.598   6.783   5.093  1.00  0.00    -0.058 N 
HETATM    2  C   UNL     1      63.602   7.482   4.235  1.00  0.00     0.281 C 
HETATM    3  C   UNL     1      63.096   8.740   3.512  1.00  0.00     0.082 C 
HETATM    4  C   UNL     1      61.862   8.402   2.727  1.00  0.00    -0.048 A 
HETATM    5  C   UNL     1      61.194   7.076   4.739  1.00  0.00     0.272 C 
HETATM    6  C   UNL     1      60.946   7.521   3.318  1.00  0.00    -0.026 A 
HETATM    7  C   UNL     1      61.612   8.948   1.464  1.00  0.00     0.008 A 
HETATM    8  C   UNL     1      59.781   7.183   2.623  1.00  0.00     0.009 A 
HETATM    9  C   UNL     1      60.456   8.594   0.777  1.00  0.00     0.001 A 
HETATM   10  C   UNL     1      59.542   7.710   1.350  1.00  0.00     0.001 A 
HETATM   11  H   UNL     1      62.750   7.068   6.061  1.00  0.00     0.278 HD
HETATM   12  H   UNL     1      62.733   5.783   4.949  1.00  0.00     0.278 HD
ENDROOT
BRANCH   2  13
HETATM   13  C   UNL     1      64.865   7.855   5.048  1.00  0.00     0.249 C 
HETATM   14  N   UNL     1      65.773   6.827   5.203  1.00  0.00    -0.351 N 
HETATM   15  H   UNL     1      65.564   5.967   4.773  1.00  0.00     0.163 HD
HETATM   16  O   UNL     1      65.051   8.988   5.492  1.00  0.00    -0.271 OA
BRANCH  14  17
HETATM   17  C   UNL     1      67.031   6.918   5.964  1.00  0.00     0.022 C 
HETATM   18  C   UNL     1      66.768   7.410   7.399  1.00  0.00     0.037 C 
HETATM   19  C   UNL     1      67.647   5.510   6.032  1.00  0.00     0.037 C 
HETATM   20  C   UNL     1      68.047   7.857   5.291  1.00  0.00     0.037 C 
ENDBRANCH  14  17
ENDBRANCH   2  13
TORSDOF 2
ENDMDL
MODEL 6
REMARK VINA RESULT:      -5.1      1.563      2.527
REMARK  2 active torsions:
REMARK  status: ('A' for Active; 'I' for Inactive)
REMARK       I    between atoms: C_1  and  N_4 
REMARK    1  A    between atoms: C_1  and  C_3 
REMARK    2  A    between atoms: N_4  and  C_10 
ROOT
HETATM    1  N   UNL     1      62.914   7.982   6.033  1.00  0.00    -0.058 N 
HETATM    2  C   UNL     1      62.950   6.828   5.085  1.00  0.00     0.281 C 
HETATM    3  C   UNL     1      63.601   7.111   3.721  1.00  0.00     0.082 C 
HETATM    4  C   UNL     1      62.943   8.304   3.092  1.00  0.00    -0.048 A 
HETATM    5  C   UNL     1      63.028   9.303   5.382  1.00  0.00     0.272 C 
HETATM    6  C   UNL     1      62.602   9.369   3.935  1.00  0.00    -0.026 A 
HETATM    7  C   UNL     1      62.690   8.373   1.717  1.00  0.00     0.008 A 
HETATM    8  C   UNL     1      61.991  10.502   3.388  1.00  0.00     0.009 A 
HETATM    9  C   UNL     1      62.070   9.499   1.188  1.00  0.00     0.001 A 
HETATM   10  C   UNL     1      61.715  10.561   2.019  1.00  0.00     0.001 A 
HETATM   11  H   UNL     1      63.689   7.881   6.690  1.00  0.00     0.278 HD
HETATM   12  H   UNL     1      62.003   7.959   6.491  1.00  0.00     0.278 HD
ENDROOT
BRANCH   2  13
HETATM   13  C   UNL     1      63.652   5.605   5.722  1.00  0.00     0.249 C 
HETATM   14  N   UNL     1      64.965   5.431   5.337  1.00  0.00    -0.351 N 
HETATM   15  H   UNL     1      65.351   6.096   4.722  1.00  0.00     0.163 HD
HETATM   16  O   UNL     1      63.086   4.870   6.531  1.00  0.00    -0.271 OA
BRANCH  14  17
HETATM   17  C   UNL     1      65.835   4.325   5.772  1.00  0.00     0.022 C 
HETATM   18  C   UNL     1      67.229   4.440   5.131  1.00  0.00     0.037 C 
HETATM   19  C   UNL     1      65.988   4.416   7.301  1.00  0.00     0.037 C 
HETATM   20  C   UNL     1      65.237   2.950   5.429  1.00  0.00     0.037 C 
ENDBRANCH  14  17
ENDBRANCH   2  13
TORSDOF 2
ENDMDL
MODEL 7
REMARK VINA RESULT:      -4.9      1.560      6.622
REMARK  2 active torsions:
REMARK  status: ('A' for Active; 'I' for Inactive)
REMARK       I    between atoms: C_1  and  N_4 
REMARK    1  A    between atoms: C_1  and  C_3 
REMARK    2  A    between atoms: N_4  and  C_10 
ROOT
HETATM    1  N   UNL     1      65.127   7.474   6.914  1.00  0.00    -0.058 N 
HETATM    2  C   UNL     1      64.829   7.408   5.451  1.00  0.00     0.281 C 
HETATM    3  C   UNL     1      64.638   5.996   4.876  1.00  0.00     0.082 C 
HETATM    4  C   UNL     1      65.830   5.152   5.220  1.00  0.00    -0.048 A 
HETATM    5  C   UNL     1      65.684   6.225   7.473  1.00  0.00     0.272 C 
HETATM    6  C   UNL     1      66.387   5.316   6.495  1.00  0.00    -0.026 A 
HETATM    7  C   UNL     1      66.366   4.222   4.322  1.00  0.00     0.008 A 
HETATM    8  C   UNL     1      67.497   4.546   6.858  1.00  0.00     0.009 A 
HETATM    9  C   UNL     1      67.477   3.471   4.689  1.00  0.00     0.001 A 
HETATM   10  C   UNL     1      68.047   3.634   5.952  1.00  0.00     0.001 A 
HETATM   11  H   UNL     1      64.260   7.687   7.408  1.00  0.00     0.278 HD
HETATM   12  H   UNL     1      65.838   8.194   7.037  1.00  0.00     0.278 HD
ENDROOT
BRANCH   2  13
HETATM   13  C   UNL     1      63.584   8.257   5.098  1.00  0.00     0.249 C 
HETATM   14  N   UNL     1      63.241   8.246   3.761  1.00  0.00    -0.351 N 
HETATM   15  H   UNL     1      63.786   7.692   3.157  1.00  0.00     0.163 HD
HETATM   16  O   UNL     1      62.939   8.865   5.951  1.00  0.00    -0.271 OA
BRANCH  14  17
HETATM   17  C   UNL     1      62.123   9.000   3.168  1.00  0.00     0.022 C 
HETATM   18  C   UNL     1      60.774   8.350   3.526  1.00  0.00     0.037 C 
HETATM   19  C   UNL     1      62.153  10.425   3.748  1.00  0.00     0.037 C 
HETATM   20  C   UNL     1      62.241   9.099   1.637  1.00  0.00     0.037 C 
ENDBRANCH  14  17
ENDBRANCH   2  13
TORSDOF 2
ENDMDL
MODEL 8
REMARK VINA RESULT:      -4.9      5.661      7.258
REMARK  2 active torsions:
REMARK  status: ('A' for Active; 'I' for Inactive)
REMARK       I    between atoms: C_1  and  N_4 
REMARK    1  A    between atoms: C_1  and  C_3 
REMARK    2  A    between atoms: N_4  and  C_10 
ROOT
HETATM    1  N   UNL     1      57.760   6.913   2.364  1.00  0.00    -0.058 N 
HETATM    2  C   UNL     1      58.551   7.487   3.494  1.00  0.00     0.281 C 
HETATM    3  C   UNL     1      58.492   6.698   4.812  1.00  0.00     0.082 C 
HETATM    4  C   UNL     1      57.059   6.495   5.208  1.00  0.00    -0.048 A 
HETATM    5  C   UNL     1      56.672   6.007   2.787  1.00  0.00     0.272 C 
HETATM    6  C   UNL     1      56.144   6.212   4.186  1.00  0.00    -0.026 A 
HETATM    7  C   UNL     1      56.640   6.562   6.542  1.00  0.00     0.008 A 
HETATM    8  C   UNL     1      54.799   6.011   4.512  1.00  0.00     0.009 A 
HETATM    9  C   UNL     1      55.298   6.374   6.852  1.00  0.00     0.001 A 
HETATM   10  C   UNL     1      54.376   6.103   5.842  1.00  0.00     0.001 A 
HETATM   11  H   UNL     1      58.396   6.390   1.761  1.00  0.00     0.278 HD
HETATM   12  H   UNL     1      57.318   7.698   1.886  1.00  0.00     0.278 HD
ENDROOT
BRANCH   2  13
HETATM   13  C   UNL     1      60.035   7.674   3.097  1.00  0.00     0.249 C 
HETATM   14  N   UNL     1      60.498   8.970   3.199  1.00  0.00    -0.351 N 
HETATM   15  H   UNL     1      59.872   9.652   3.533  1.00  0.00     0.163 HD
HETATM   16  O   UNL     1      60.746   6.732   2.748  1.00  0.00    -0.271 OA
BRANCH  14  17
HETATM   17  C   UNL     1      61.858   9.412   2.845  1.00  0.00     0.022 C 
HETATM   18  C   UNL     1      62.151   9.142   1.358  1.00  0.00     0.037 C 
HETATM   19  C   UNL     1      61.944  10.927   3.096  1.00  0.00     0.037 C 
HETATM   20  C   UNL     1      62.932   8.719   3.702  1.00  0.00     0.037 C 
ENDBRANCH  14  17
ENDBRANCH   2  13
TORSDOF 2
ENDMDL
MODEL 9
REMARK VINA RESULT:      -4.9      2.609      3.241
REMARK  2 active torsions:
REMARK  status: ('A' for Active; 'I' for Inactive)
REMARK       I    between atoms: C_1  and  N_4 
REMARK    1  A    between atoms: C_1  and  C_3 
REMARK    2  A    between atoms: N_4  and  C_10 
ROOT
HETATM    1  N   UNL     1      63.085   8.854   3.591  1.00  0.00    -0.058 N 
HETATM    2  C   UNL     1      63.237   8.314   4.977  1.00  0.00     0.281 C 
HETATM    3  C   UNL     1      62.672   6.903   5.203  1.00  0.00     0.082 C 
HETATM    4  C   UNL     1      61.238   6.863   4.766  1.00  0.00    -0.048 A 
HETATM    5  C   UNL     1      62.010   8.211   2.808  1.00  0.00     0.272 C 
HETATM    6  C   UNL     1      60.900   7.569   3.604  1.00  0.00    -0.026 A 
HETATM    7  C   UNL     1      60.267   6.139   5.467  1.00  0.00     0.008 A 
HETATM    8  C   UNL     1      59.575   7.555   3.159  1.00  0.00     0.009 A 
HETATM    9  C   UNL     1      58.950   6.143   5.022  1.00  0.00     0.001 A 
HETATM   10  C   UNL     1      58.600   6.852   3.873  1.00  0.00     0.001 A 
HETATM   11  H   UNL     1      63.967   8.719   3.096  1.00  0.00     0.278 HD
HETATM   12  H   UNL     1      62.831   9.837   3.685  1.00  0.00     0.278 HD
ENDROOT
BRANCH   2  13
HETATM   13  C   UNL     1      64.719   8.330   5.421  1.00  0.00     0.249 C 
HETATM   14  N   UNL     1      65.367   7.117   5.303  1.00  0.00    -0.351 N 
HETATM   15  H   UNL     1      64.855   6.363   4.931  1.00  0.00     0.163 HD
HETATM   16  O   UNL     1      65.276   9.353   5.816  1.00  0.00    -0.271 OA
BRANCH  14  17
HETATM   17  C   UNL     1      66.765   6.863   5.693  1.00  0.00     0.022 C 
HETATM   18  C   UNL     1      66.944   7.015   7.214  1.00  0.00     0.037 C 
HETATM   19  C   UNL     1      67.112   5.417   5.299  1.00  0.00     0.037 C 
HETATM   20  C   UNL     1      67.745   7.807   4.975  1.00  0.00     0.037 C 
ENDBRANCH  14  17
ENDBRANCH   2  13
TORSDOF 2
ENDMDL
