MODEL 1
REMARK VINA RESULT:      -3.6      0.000      0.000
REMARK  1 active torsions:
REMARK  status: ('A' for Active; 'I' for Inactive)
REMARK    1  A    between atoms: C_3  and  N_4 
ROOT
HETATM    1  N   UNL     1      62.301   9.434   2.923  1.00  0.00    -0.375 N 
ATOM      2  HN  UNL     1      62.019   8.952   2.070  1.00  0.00     0.164 HD
HETATM    3  C   UNL     1      63.009  10.726   5.317  1.00  0.00     0.028 A 
HETATM    4  C   UNL     1      62.201  11.360   4.376  1.00  0.00     0.046 A 
HETATM    5  C   UNL     1      63.523   9.470   5.005  1.00  0.00     0.046 A 
HETATM    6  C   UNL     1      63.132   8.865   3.820  1.00  0.00     0.089 A 
HETATM    7  C   UNL     1      61.865  10.676   3.217  1.00  0.00     0.089 A 
ENDROOT
BRANCH   3   8
HETATM    8  N   UNL     1      63.482  11.429   6.432  1.00  0.00    -0.399 N 
HETATM    9  H   UNL     1      64.334  11.172   6.852  1.00  0.00     0.156 HD
HETATM   10  H   UNL     1      62.960  12.181   6.797  1.00  0.00     0.156 HD
ENDBRANCH   3   8
TORSDOF 1
ENDMDL
MODEL 2
REMARK VINA RESULT:      -3.6      1.032      3.002
REMARK  1 active torsions:
REMARK  status: ('A' for Active; 'I' for Inactive)
REMARK    1  A    between atoms: C_3  and  N_4 
ROOT
HETATM    1  N   UNL     1      63.525   9.817   5.683  1.00  0.00    -0.375 N 
ATOM      2  HN  UNL     1      64.043   9.581   6.529  1.00  0.00     0.164 HD
HETATM    3  C   UNL     1      62.021  10.437   3.391  1.00  0.00     0.028 A 
HETATM    4  C   UNL     1      62.685   9.219   3.500  1.00  0.00     0.046 A 
HETATM    5  C   UNL     1      62.187  11.372   4.409  1.00  0.00     0.046 A 
HETATM    6  C   UNL     1      62.924  11.015   5.528  1.00  0.00     0.089 A 
HETATM    7  C   UNL     1      63.401   8.951   4.658  1.00  0.00     0.089 A 
ENDROOT
BRANCH   3   8
HETATM    8  N   UNL     1      61.402  10.801   2.188  1.00  0.00    -0.399 N 
HETATM    9  H   UNL     1      61.725  10.429   1.336  1.00  0.00     0.156 HD
HETATM   10  H   UNL     1      60.644  11.431   2.196  1.00  0.00     0.156 HD
ENDBRANCH   3   8
TORSDOF 1
ENDMDL
MODEL 3
REMARK VINA RESULT:      -3.5      0.212      1.779
REMARK  1 active torsions:
REMARK  status: ('A' for Active; 'I' for Inactive)
REMARK    1  A    between atoms: C_3  and  N_4 
ROOT
HETATM    1  N   UNL     1      62.411   9.193   2.972  1.00  0.00    -0.375 N 
ATOM      2  HN  UNL     1      62.206   8.668   2.122  1.00  0.00     0.164 HD
HETATM    3  C   UNL     1      63.048  10.678   5.272  1.00  0.00     0.028 A 
HETATM    4  C   UNL     1      63.504   9.371   5.117  1.00  0.00     0.046 A 
HETATM    5  C   UNL     1      62.202  11.201   4.298  1.00  0.00     0.046 A 
HETATM    6  C   UNL     1      61.930  10.438   3.172  1.00  0.00     0.089 A 
HETATM    7  C   UNL     1      63.177   8.684   3.957  1.00  0.00     0.089 A 
ENDROOT
BRANCH   3   8
HETATM    8  N   UNL     1      63.239  11.355   6.483  1.00  0.00    -0.399 N 
HETATM    9  H   UNL     1      63.875  12.104   6.533  1.00  0.00     0.156 HD
HETATM   10  H   UNL     1      62.736  11.081   7.284  1.00  0.00     0.156 HD
ENDBRANCH   3   8
TORSDOF 1
ENDMDL
MODEL 4
REMARK VINA RESULT:      -3.3      1.364      2.127
REMARK  1 active torsions:
REMARK  status: ('A' for Active; 'I' for Inactive)
REMARK    1  A    between atoms: C_3  and  N_4 
ROOT
HETATM    1  N   UNL     1      61.692  10.845   3.022  1.00  0.00    -0.375 N 
ATOM      2  HN  UNL     1      61.142  11.395   2.362  1.00  0.00     0.164 HD
HETATM    3  C   UNL     1      63.283   9.364   4.803  1.00  0.00     0.028 A 
HETATM    4  C   UNL     1      62.856   8.811   3.599  1.00  0.00     0.046 A 
HETATM    5  C   UNL     1      62.834  10.638   5.138  1.00  0.00     0.046 A 
HETATM    6  C   UNL     1      62.065  11.338   4.221  1.00  0.00     0.089 A 
HETATM    7  C   UNL     1      62.086   9.586   2.744  1.00  0.00     0.089 A 
ENDROOT
BRANCH   3   8
HETATM    8  N   UNL     1      63.944   8.572   5.750  1.00  0.00    -0.399 N 
HETATM    9  H   UNL     1      64.628   7.927   5.462  1.00  0.00     0.156 HD
HETATM   10  H   UNL     1      63.723   8.662   6.706  1.00  0.00     0.156 HD
ENDBRANCH   3   8
TORSDOF 1
ENDMDL
MODEL 5
REMARK VINA RESULT:      -3.3      1.574      2.753
REMARK  1 active torsions:
REMARK  status: ('A' for Active; 'I' for Inactive)
REMARK    1  A    between atoms: C_3  and  N_4 
ROOT
HETATM    1  N   UNL     1      62.990   8.675   4.668  1.00  0.00    -0.375 N 
ATOM      2  HN  UNL     1      63.347   7.941   5.278  1.00  0.00     0.164 HD
HETATM    3  C   UNL     1      61.919  10.676   3.010  1.00  0.00     0.028 A 
HETATM    4  C   UNL     1      62.213   9.413   2.504  1.00  0.00     0.046 A 
HETATM    5  C   UNL     1      62.245  10.948   4.336  1.00  0.00     0.046 A 
HETATM    6  C   UNL     1      62.755   9.925   5.120  1.00  0.00     0.089 A 
HETATM    7  C   UNL     1      62.724   8.453   3.365  1.00  0.00     0.089 A 
ENDROOT
BRANCH   3   8
HETATM    8  N   UNL     1      61.532  11.711   2.149  1.00  0.00    -0.399 N 
HETATM    9  H   UNL     1      60.990  12.458   2.489  1.00  0.00     0.156 HD
HETATM   10  H   UNL     1      61.802  11.689   1.202  1.00  0.00     0.156 HD
ENDBRANCH   3   8
TORSDOF 1
ENDMDL
MODEL 6
REMARK VINA RESULT:      -3.1      2.280      2.987
REMARK  1 active torsions:
REMARK  status: ('A' for Active; 'I' for Inactive)
REMARK    1  A    between atoms: C_3  and  N_4 
ROOT
HETATM    1  N   UNL     1      62.868   7.711   2.699  1.00  0.00    -0.375 N 
ATOM      2  HN  UNL     1      63.189   6.753   2.834  1.00  0.00     0.164 HD
HETATM    3  C   UNL     1      61.897  10.326   2.346  1.00  0.00     0.028 A 
HETATM    4  C   UNL     1      62.003   9.453   1.267  1.00  0.00     0.046 A 
HETATM    5  C   UNL     1      62.359   9.898   3.588  1.00  0.00     0.046 A 
HETATM    6  C   UNL     1      62.813   8.594   3.718  1.00  0.00     0.089 A 
HETATM    7  C   UNL     1      62.472   8.167   1.493  1.00  0.00     0.089 A 
ENDROOT
BRANCH   3   8
HETATM    8  N   UNL     1      61.559  11.669   2.140  1.00  0.00    -0.399 N 
HETATM    9  H   UNL     1      62.237  12.372   2.260  1.00  0.00     0.156 HD
HETATM   10  H   UNL     1      60.641  11.910   1.875  1.00  0.00     0.156 HD
ENDBRANCH   3   8
TORSDOF 1
ENDMDL
MODEL 7
REMARK VINA RESULT:      -2.8      2.017      2.646
REMARK  1 active torsions:
REMARK  status: ('A' for Active; 'I' for Inactive)
REMARK    1  A    between atoms: C_3  and  N_4 
ROOT
HETATM    1  N   UNL     1      61.521  11.383   2.164  1.00  0.00    -0.375 N 
ATOM      2  HN  UNL     1      61.250  12.207   1.627  1.00  0.00     0.164 HD
HETATM    3  C   UNL     1      62.181   9.105   3.672  1.00  0.00     0.028 A 
HETATM    4  C   UNL     1      62.318  10.381   4.210  1.00  0.00     0.046 A 
HETATM    5  C   UNL     1      61.786   8.990   2.341  1.00  0.00     0.046 A 
HETATM    6  C   UNL     1      61.454  10.141   1.642  1.00  0.00     0.089 A 
HETATM    7  C   UNL     1      61.964  11.475   3.434  1.00  0.00     0.089 A 
ENDROOT
BRANCH   3   8
HETATM    8  N   UNL     1      62.654   7.987   4.370  1.00  0.00    -0.399 N 
HETATM    9  H   UNL     1      62.049   7.483   4.961  1.00  0.00     0.156 HD
HETATM   10  H   UNL     1      63.592   7.706   4.270  1.00  0.00     0.156 HD
ENDBRANCH   3   8
TORSDOF 1
ENDMDL
MODEL 8
REMARK VINA RESULT:      -2.8     13.129     13.708
REMARK  1 active torsions:
REMARK  status: ('A' for Active; 'I' for Inactive)
REMARK    1  A    between atoms: C_3  and  N_4 
ROOT
HETATM    1  N   UNL     1      59.085   2.369  12.470  1.00  0.00    -0.375 N 
ATOM      2  HN  UNL     1      59.825   2.824  11.937  1.00  0.00     0.164 HD
HETATM    3  C   UNL     1      57.036   1.187  13.988  1.00  0.00     0.028 A 
HETATM    4  C   UNL     1      58.372   1.007  14.332  1.00  0.00     0.046 A 
HETATM    5  C   UNL     1      56.744   1.899  12.827  1.00  0.00     0.046 A 
HETATM    6  C   UNL     1      57.786   2.478  12.120  1.00  0.00     0.089 A 
HETATM    7  C   UNL     1      59.348   1.623  13.562  1.00  0.00     0.089 A 
ENDROOT
BRANCH   3   8
HETATM    8  N   UNL     1      56.031   0.475  14.654  1.00  0.00    -0.399 N 
HETATM    9  H   UNL     1      55.491   0.916  15.348  1.00  0.00     0.156 HD
HETATM   10  H   UNL     1      55.865  -0.469  14.428  1.00  0.00     0.156 HD
ENDBRANCH   3   8
TORSDOF 1
ENDMDL
MODEL 9
REMARK VINA RESULT:      -2.7     12.390     12.935
REMARK  1 active torsions:
REMARK  status: ('A' for Active; 'I' for Inactive)
REMARK    1  A    between atoms: C_3  and  N_4 
ROOT
HETATM    1  N   UNL     1      57.415   1.551  14.503  1.00  0.00    -0.375 N 
ATOM      2  HN  UNL     1      57.152   1.236  15.436  1.00  0.00     0.164 HD
HETATM    3  C   UNL     1      58.156   2.502  11.964  1.00  0.00     0.028 A 
HETATM    4  C   UNL     1      56.824   2.512  12.368  1.00  0.00     0.046 A 
HETATM    5  C   UNL     1      59.100   1.933  12.816  1.00  0.00     0.046 A 
HETATM    6  C   UNL     1      58.690   1.493  14.065  1.00  0.00     0.089 A 
HETATM    7  C   UNL     1      56.509   2.048  13.637  1.00  0.00     0.089 A 
ENDROOT
BRANCH   3   8
HETATM    8  N   UNL     1      58.499   2.832  10.647  1.00  0.00    -0.399 N 
HETATM    9  H   UNL     1      57.910   3.415  10.116  1.00  0.00     0.156 HD
HETATM   10  H   UNL     1      59.330   2.481  10.252  1.00  0.00     0.156 HD
ENDBRANCH   3   8
TORSDOF 1
ENDMDL
