MODEL 1
REMARK VINA RESULT:      -5.1      0.000      0.000
REMARK  3 active torsions:
REMARK  status: ('A' for Active; 'I' for Inactive)
REMARK    1  A    between atoms: C_1  and  C_3 
REMARK    2  A    between atoms: C_2  and  C_3 
REMARK    3  A    between atoms: C_4  and  O_7 
ROOT
HETATM    1  C   UNL     1      62.580   9.739   3.947  1.00  0.00    -0.015 A 
HETATM    2  C   UNL     1      62.149  10.997   3.507  1.00  0.00     0.072 A 
HETATM    3  C   UNL     1      62.618   8.694   3.008  1.00  0.00     0.010 A 
HETATM    4  C   UNL     1      61.765  11.211   2.184  1.00  0.00     0.037 A 
HETATM    5  C   UNL     1      62.244   8.905   1.678  1.00  0.00     0.001 A 
HETATM    6  C   UNL     1      61.818  10.165   1.266  1.00  0.00     0.003 A 
ENDROOT
BRANCH   1   7
HETATM    7  C   UNL     1      62.924   9.434   5.387  1.00  0.00     0.154 C 
BRANCH   7   8
HETATM    8  C   UNL     1      64.323   9.828   5.812  1.00  0.00     0.177 C 
HETATM    9  O   UNL     1      65.308   9.110   5.720  1.00  0.00    -0.648 OA
HETATM   10  O   UNL     1      64.413  11.111   6.238  1.00  0.00    -0.648 OA
ENDBRANCH   7   8
ENDBRANCH   1   7
BRANCH   2  11
HETATM   11  O   UNL     1      62.076  12.072   4.347  1.00  0.00    -0.360 OA
HETATM   12  H   UNL     1      61.793  12.903   4.020  1.00  0.00     0.217 HD
ENDBRANCH   2  11
TORSDOF 3
ENDMDL
MODEL 2
REMARK VINA RESULT:      -5.0      1.237      1.742
REMARK  3 active torsions:
REMARK  status: ('A' for Active; 'I' for Inactive)
REMARK    1  A    between atoms: C_1  and  C_3 
REMARK    2  A    between atoms: C_2  and  C_3 
REMARK    3  A    between atoms: C_4  and  O_7 
ROOT
HETATM    1  C   UNL     1      63.128   9.178   4.440  1.00  0.00    -0.015 A 
HETATM    2  C   UNL     1      62.795  10.456   4.909  1.00  0.00     0.072 A 
HETATM    3  C   UNL     1      62.748   8.841   3.129  1.00  0.00     0.010 A 
HETATM    4  C   UNL     1      62.107  11.366   4.107  1.00  0.00     0.037 A 
HETATM    5  C   UNL     1      62.067   9.753   2.319  1.00  0.00     0.001 A 
HETATM    6  C   UNL     1      61.747  11.017   2.808  1.00  0.00     0.003 A 
ENDROOT
BRANCH   1   7
HETATM    7  C   UNL     1      63.796   8.126   5.295  1.00  0.00     0.154 C 
BRANCH   7   8
HETATM    8  C   UNL     1      65.306   8.219   5.368  1.00  0.00     0.177 C 
HETATM    9  O   UNL     1      66.079   7.582   4.669  1.00  0.00    -0.648 OA
HETATM   10  O   UNL     1      65.744   9.158   6.242  1.00  0.00    -0.648 OA
ENDBRANCH   7   8
ENDBRANCH   1   7
BRANCH   2  11
HETATM   11  O   UNL     1      63.120  10.873   6.168  1.00  0.00    -0.360 OA
HETATM   12  H   UNL     1      63.829  10.468   6.627  1.00  0.00     0.217 HD
ENDBRANCH   2  11
TORSDOF 3
ENDMDL
MODEL 3
REMARK VINA RESULT:      -4.8      1.722      2.520
REMARK  3 active torsions:
REMARK  status: ('A' for Active; 'I' for Inactive)
REMARK    1  A    between atoms: C_1  and  C_3 
REMARK    2  A    between atoms: C_2  and  C_3 
REMARK    3  A    between atoms: C_4  and  O_7 
ROOT
HETATM    1  C   UNL     1      62.691   9.332   3.946  1.00  0.00    -0.015 A 
HETATM    2  C   UNL     1      62.609   8.861   2.630  1.00  0.00     0.072 A 
HETATM    3  C   UNL     1      62.306  10.661   4.192  1.00  0.00     0.010 A 
HETATM    4  C   UNL     1      62.165   9.680   1.593  1.00  0.00     0.037 A 
HETATM    5  C   UNL     1      61.851  11.483   3.158  1.00  0.00     0.001 A 
HETATM    6  C   UNL     1      61.779  10.992   1.857  1.00  0.00     0.003 A 
ENDROOT
BRANCH   1   7
HETATM    7  C   UNL     1      63.246   8.514   5.090  1.00  0.00     0.154 C 
BRANCH   7   8
HETATM    8  C   UNL     1      64.757   8.469   5.176  1.00  0.00     0.177 C 
HETATM    9  O   UNL     1      65.434   9.170   5.913  1.00  0.00    -0.648 OA
HETATM   10  O   UNL     1      65.310   7.499   4.408  1.00  0.00    -0.648 OA
ENDBRANCH   7   8
ENDBRANCH   1   7
BRANCH   2  11
HETATM   11  O   UNL     1      62.963   7.585   2.293  1.00  0.00    -0.360 OA
HETATM   12  H   UNL     1      62.486   6.860   2.645  1.00  0.00     0.217 HD
ENDBRANCH   2  11
TORSDOF 3
ENDMDL
MODEL 4
REMARK VINA RESULT:      -4.7      1.969      2.521
REMARK  3 active torsions:
REMARK  status: ('A' for Active; 'I' for Inactive)
REMARK    1  A    between atoms: C_1  and  C_3 
REMARK    2  A    between atoms: C_2  and  C_3 
REMARK    3  A    between atoms: C_4  and  O_7 
ROOT
HETATM    1  C   UNL     1      63.121   9.058   4.270  1.00  0.00    -0.015 A 
HETATM    2  C   UNL     1      62.786  10.310   4.802  1.00  0.00     0.072 A 
HETATM    3  C   UNL     1      62.737   8.783   2.946  1.00  0.00     0.010 A 
HETATM    4  C   UNL     1      62.091  11.255   4.048  1.00  0.00     0.037 A 
HETATM    5  C   UNL     1      62.049   9.731   2.184  1.00  0.00     0.001 A 
HETATM    6  C   UNL     1      61.727  10.968   2.735  1.00  0.00     0.003 A 
ENDROOT
BRANCH   1   7
HETATM    7  C   UNL     1      63.796   7.968   5.071  1.00  0.00     0.154 C 
BRANCH   7   8
HETATM    8  C   UNL     1      62.910   7.266   6.078  1.00  0.00     0.177 C 
HETATM    9  O   UNL     1      62.489   7.771   7.108  1.00  0.00    -0.648 OA
HETATM   10  O   UNL     1      62.541   6.020   5.693  1.00  0.00    -0.648 OA
ENDBRANCH   7   8
ENDBRANCH   1   7
BRANCH   2  11
HETATM   11  O   UNL     1      63.115  10.666   6.078  1.00  0.00    -0.360 OA
HETATM   12  H   UNL     1      63.477  10.030   6.663  1.00  0.00     0.217 HD
ENDBRANCH   2  11
TORSDOF 3
ENDMDL
MODEL 5
REMARK VINA RESULT:      -4.3      1.904      3.833
REMARK  3 active torsions:
REMARK  status: ('A' for Active; 'I' for Inactive)
REMARK    1  A    between atoms: C_1  and  C_3 
REMARK    2  A    between atoms: C_2  and  C_3 
REMARK    3  A    between atoms: C_4  and  O_7 
ROOT
HETATM    1  C   UNL     1      63.061   8.932   4.086  1.00  0.00    -0.015 A 
HETATM    2  C   UNL     1      64.095   9.199   4.993  1.00  0.00     0.072 A 
HETATM    3  C   UNL     1      63.154   7.763   3.311  1.00  0.00     0.010 A 
HETATM    4  C   UNL     1      65.185   8.338   5.124  1.00  0.00     0.037 A 
HETATM    5  C   UNL     1      64.238   6.892   3.446  1.00  0.00     0.001 A 
HETATM    6  C   UNL     1      65.254   7.180   4.354  1.00  0.00     0.003 A 
ENDROOT
BRANCH   1   7
HETATM    7  C   UNL     1      61.903   9.873   3.844  1.00  0.00     0.154 C 
BRANCH   7   8
HETATM    8  C   UNL     1      61.950  10.628   2.532  1.00  0.00     0.177 C 
HETATM    9  O   UNL     1      61.911  10.109   1.427  1.00  0.00    -0.648 OA
HETATM   10  O   UNL     1      61.956  11.975   2.688  1.00  0.00    -0.648 OA
ENDBRANCH   7   8
ENDBRANCH   1   7
BRANCH   2  11
HETATM   11  O   UNL     1      64.094  10.310   5.786  1.00  0.00    -0.360 OA
HETATM   12  H   UNL     1      64.650  10.348   6.539  1.00  0.00     0.217 HD
ENDBRANCH   2  11
TORSDOF 3
ENDMDL
MODEL 6
REMARK VINA RESULT:      -4.1      2.425      3.962
REMARK  3 active torsions:
REMARK  status: ('A' for Active; 'I' for Inactive)
REMARK    1  A    between atoms: C_1  and  C_3 
REMARK    2  A    between atoms: C_2  and  C_3 
REMARK    3  A    between atoms: C_4  and  O_7 
ROOT
HETATM    1  C   UNL     1      62.253   8.028   4.736  1.00  0.00    -0.015 A 
HETATM    2  C   UNL     1      62.398   7.342   5.949  1.00  0.00     0.072 A 
HETATM    3  C   UNL     1      61.304   7.545   3.819  1.00  0.00     0.010 A 
HETATM    4  C   UNL     1      61.631   6.214   6.240  1.00  0.00     0.037 A 
HETATM    5  C   UNL     1      60.526   6.422   4.110  1.00  0.00     0.001 A 
HETATM    6  C   UNL     1      60.689   5.756   5.322  1.00  0.00     0.003 A 
ENDROOT
BRANCH   1   7
HETATM    7  C   UNL     1      63.118   9.202   4.336  1.00  0.00     0.154 C 
BRANCH   7   8
HETATM    8  C   UNL     1      62.669  10.545   4.873  1.00  0.00     0.177 C 
HETATM    9  O   UNL     1      61.905  11.306   4.298  1.00  0.00    -0.648 OA
HETATM   10  O   UNL     1      63.132  10.806   6.120  1.00  0.00    -0.648 OA
ENDBRANCH   7   8
ENDBRANCH   1   7
BRANCH   2  11
HETATM   11  O   UNL     1      63.295   7.734   6.900  1.00  0.00    -0.360 OA
HETATM   12  H   UNL     1      63.124   7.561   7.805  1.00  0.00     0.217 HD
ENDBRANCH   2  11
TORSDOF 3
ENDMDL
MODEL 7
REMARK VINA RESULT:      -4.0      1.990      2.861
REMARK  3 active torsions:
REMARK  status: ('A' for Active; 'I' for Inactive)
REMARK    1  A    between atoms: C_1  and  C_3 
REMARK    2  A    between atoms: C_2  and  C_3 
REMARK    3  A    between atoms: C_4  and  O_7 
ROOT
HETATM    1  C   UNL     1      61.984   8.811   3.019  1.00  0.00    -0.015 A 
HETATM    2  C   UNL     1      60.845   7.996   3.060  1.00  0.00     0.072 A 
HETATM    3  C   UNL     1      62.456   9.213   1.757  1.00  0.00     0.010 A 
HETATM    4  C   UNL     1      60.201   7.590   1.892  1.00  0.00     0.037 A 
HETATM    5  C   UNL     1      61.809   8.818   0.585  1.00  0.00     0.001 A 
HETATM    6  C   UNL     1      60.679   8.006   0.652  1.00  0.00     0.003 A 
ENDROOT
BRANCH   1   7
HETATM    7  C   UNL     1      62.768   9.208   4.248  1.00  0.00     0.154 C 
BRANCH   7   8
HETATM    8  C   UNL     1      62.514  10.614   4.748  1.00  0.00     0.177 C 
HETATM    9  O   UNL     1      61.793  11.432   4.196  1.00  0.00    -0.648 OA
HETATM   10  O   UNL     1      63.103  10.875   5.941  1.00  0.00    -0.648 OA
ENDBRANCH   7   8
ENDBRANCH   1   7
BRANCH   2  11
HETATM   11  O   UNL     1      60.314   7.553   4.237  1.00  0.00    -0.360 OA
HETATM   12  H   UNL     1      60.854   7.487   4.999  1.00  0.00     0.217 HD
ENDBRANCH   2  11
TORSDOF 3
ENDMDL
MODEL 8
REMARK VINA RESULT:      -3.9      2.101      3.146
REMARK  3 active torsions:
REMARK  status: ('A' for Active; 'I' for Inactive)
REMARK    1  A    between atoms: C_1  and  C_3 
REMARK    2  A    between atoms: C_2  and  C_3 
REMARK    3  A    between atoms: C_4  and  O_7 
ROOT
HETATM    1  C   UNL     1      64.638   7.996   4.505  1.00  0.00    -0.015 A 
HETATM    2  C   UNL     1      64.058   9.186   4.964  1.00  0.00     0.072 A 
HETATM    3  C   UNL     1      63.927   7.246   3.552  1.00  0.00     0.010 A 
HETATM    4  C   UNL     1      62.815   9.614   4.498  1.00  0.00     0.037 A 
HETATM    5  C   UNL     1      62.686   7.675   3.075  1.00  0.00     0.001 A 
HETATM    6  C   UNL     1      62.130   8.861   3.548  1.00  0.00     0.003 A 
ENDROOT
BRANCH   1   7
HETATM    7  C   UNL     1      65.939   7.445   5.039  1.00  0.00     0.154 C 
BRANCH   7   8
HETATM    8  C   UNL     1      65.970   7.199   6.533  1.00  0.00     0.177 C 
HETATM    9  O   UNL     1      66.513   7.928   7.349  1.00  0.00    -0.648 OA
HETATM   10  O   UNL     1      65.251   6.114   6.913  1.00  0.00    -0.648 OA
ENDBRANCH   7   8
ENDBRANCH   1   7
BRANCH   2  11
HETATM   11  O   UNL     1      64.672   9.981   5.889  1.00  0.00    -0.360 OA
HETATM   12  H   UNL     1      64.445  10.887   5.952  1.00  0.00     0.217 HD
ENDBRANCH   2  11
TORSDOF 3
ENDMDL
MODEL 9
REMARK VINA RESULT:      -3.9      2.275      3.416
REMARK  3 active torsions:
REMARK  status: ('A' for Active; 'I' for Inactive)
REMARK    1  A    between atoms: C_1  and  C_3 
REMARK    2  A    between atoms: C_2  and  C_3 
REMARK    3  A    between atoms: C_4  and  O_7 
ROOT
HETATM    1  C   UNL     1      63.702   8.400   4.051  1.00  0.00    -0.015 A 
HETATM    2  C   UNL     1      63.986   9.345   5.046  1.00  0.00     0.072 A 
HETATM    3  C   UNL     1      62.619   8.656   3.192  1.00  0.00     0.010 A 
HETATM    4  C   UNL     1      63.219  10.501   5.187  1.00  0.00     0.037 A 
HETATM    5  C   UNL     1      61.855   9.818   3.323  1.00  0.00     0.001 A 
HETATM    6  C   UNL     1      62.155  10.742   4.321  1.00  0.00     0.003 A 
ENDROOT
BRANCH   1   7
HETATM    7  C   UNL     1      64.447   7.092   3.910  1.00  0.00     0.154 C 
BRANCH   7   8
HETATM    8  C   UNL     1      64.036   6.009   4.885  1.00  0.00     0.177 C 
HETATM    9  O   UNL     1      63.281   5.084   4.624  1.00  0.00    -0.648 OA
HETATM   10  O   UNL     1      64.659   6.103   6.085  1.00  0.00    -0.648 OA
ENDBRANCH   7   8
ENDBRANCH   1   7
BRANCH   2  11
HETATM   11  O   UNL     1      65.016   9.182   5.927  1.00  0.00    -0.360 OA
HETATM   12  H   UNL     1      65.033   9.675   6.723  1.00  0.00     0.217 HD
ENDBRANCH   2  11
TORSDOF 3
ENDMDL
