MODEL 1
REMARK VINA RESULT:      -4.4      0.000      0.000
REMARK  1 active torsions:
REMARK  status: ('A' for Active; 'I' for Inactive)
REMARK    1  A    between atoms: C_3  and  O_5 
ROOT
HETATM    1  N   UNL     1      64.158   9.586   5.544  1.00  0.00    -0.341 N 
ATOM      2  HN  UNL     1      64.952   9.318   6.126  1.00  0.00     0.167 HD
HETATM    3  C   UNL     1      63.581  10.795   5.642  1.00  0.00     0.140 A 
HETATM    4  C   UNL     1      63.625   8.742   4.626  1.00  0.00     0.007 A 
HETATM    5  C   UNL     1      61.982  10.362   3.957  1.00  0.00     0.006 A 
HETATM    6  C   UNL     1      62.506  11.236   4.899  1.00  0.00     0.056 A 
HETATM    7  C   UNL     1      62.548   9.095   3.814  1.00  0.00     0.025 A 
HETATM    8  C   UNL     1      64.223   7.371   4.523  1.00  0.00     0.068 C 
ENDROOT
BRANCH   3   9
HETATM    9  O   UNL     1      64.157  11.602   6.565  1.00  0.00    -0.346 OA
HETATM   10  H   UNL     1      64.339  12.497   6.357  1.00  0.00     0.219 HD
ENDBRANCH   3   9
TORSDOF 1
ENDMDL
MODEL 2
REMARK VINA RESULT:      -4.3      2.106      2.762
REMARK  1 active torsions:
REMARK  status: ('A' for Active; 'I' for Inactive)
REMARK    1  A    between atoms: C_3  and  O_5 
ROOT
HETATM    1  N   UNL     1      61.801  10.747   2.964  1.00  0.00    -0.341 N 
ATOM      2  HN  UNL     1      61.293  11.411   2.379  1.00  0.00     0.167 HD
HETATM    3  C   UNL     1      62.222  11.066   4.198  1.00  0.00     0.140 A 
HETATM    4  C   UNL     1      62.088   9.492   2.540  1.00  0.00     0.007 A 
HETATM    5  C   UNL     1      63.190   8.950   4.605  1.00  0.00     0.006 A 
HETATM    6  C   UNL     1      62.915  10.234   5.052  1.00  0.00     0.056 A 
HETATM    7  C   UNL     1      62.770   8.568   3.331  1.00  0.00     0.025 A 
HETATM    8  C   UNL     1      61.666   9.121   1.150  1.00  0.00     0.068 C 
ENDROOT
BRANCH   3   9
HETATM    9  O   UNL     1      61.900  12.327   4.577  1.00  0.00    -0.346 OA
HETATM   10  H   UNL     1      62.430  13.049   4.303  1.00  0.00     0.219 HD
ENDBRANCH   3   9
TORSDOF 1
ENDMDL
MODEL 3
REMARK VINA RESULT:      -4.2      1.513      2.726
REMARK  1 active torsions:
REMARK  status: ('A' for Active; 'I' for Inactive)
REMARK    1  A    between atoms: C_3  and  O_5 
ROOT
HETATM    1  N   UNL     1      62.375  11.456   4.446  1.00  0.00    -0.341 N 
ATOM      2  HN  UNL     1      62.246  12.452   4.624  1.00  0.00     0.167 HD
HETATM    3  C   UNL     1      62.832  10.618   5.391  1.00  0.00     0.140 A 
HETATM    4  C   UNL     1      62.096  10.901   3.242  1.00  0.00     0.007 A 
HETATM    5  C   UNL     1      62.737   8.713   3.998  1.00  0.00     0.006 A 
HETATM    6  C   UNL     1      63.039   9.265   5.235  1.00  0.00     0.056 A 
HETATM    7  C   UNL     1      62.256   9.540   2.984  1.00  0.00     0.025 A 
HETATM    8  C   UNL     1      61.622  11.818   2.154  1.00  0.00     0.068 C 
ENDROOT
BRANCH   3   9
HETATM    9  O   UNL     1      63.086  11.221   6.579  1.00  0.00    -0.346 OA
HETATM   10  H   UNL     1      62.557  11.027   7.326  1.00  0.00     0.219 HD
ENDBRANCH   3   9
TORSDOF 1
ENDMDL
MODEL 4
REMARK VINA RESULT:      -4.2      1.940      2.294
REMARK  1 active torsions:
REMARK  status: ('A' for Active; 'I' for Inactive)
REMARK    1  A    between atoms: C_3  and  O_5 
ROOT
HETATM    1  N   UNL     1      62.488  10.057   4.238  1.00  0.00    -0.341 N 
ATOM      2  HN  UNL     1      62.695  10.080   5.237  1.00  0.00     0.167 HD
HETATM    3  C   UNL     1      62.091  11.152   3.570  1.00  0.00     0.140 A 
HETATM    4  C   UNL     1      62.599   8.920   3.509  1.00  0.00     0.007 A 
HETATM    5  C   UNL     1      61.920  10.038   1.494  1.00  0.00     0.006 A 
HETATM    6  C   UNL     1      61.790  11.209   2.226  1.00  0.00     0.056 A 
HETATM    7  C   UNL     1      62.333   8.873   2.141  1.00  0.00     0.025 A 
HETATM    8  C   UNL     1      63.002   7.672   4.236  1.00  0.00     0.068 C 
ENDROOT
BRANCH   3   9
HETATM    9  O   UNL     1      62.007  12.263   4.341  1.00  0.00    -0.346 OA
HETATM   10  H   UNL     1      62.265  12.230   5.241  1.00  0.00     0.219 HD
ENDBRANCH   3   9
TORSDOF 1
ENDMDL
MODEL 5
REMARK VINA RESULT:      -3.9      1.798      2.449
REMARK  1 active torsions:
REMARK  status: ('A' for Active; 'I' for Inactive)
REMARK    1  A    between atoms: C_3  and  O_5 
ROOT
HETATM    1  N   UNL     1      62.950   8.919   3.628  1.00  0.00    -0.341 N 
ATOM      2  HN  UNL     1      63.267   7.974   3.409  1.00  0.00     0.167 HD
HETATM    3  C   UNL     1      63.170   9.481   4.828  1.00  0.00     0.140 A 
HETATM    4  C   UNL     1      62.284   9.679   2.726  1.00  0.00     0.007 A 
HETATM    5  C   UNL     1      62.103  11.512   4.267  1.00  0.00     0.006 A 
HETATM    6  C   UNL     1      62.775  10.745   5.209  1.00  0.00     0.056 A 
HETATM    7  C   UNL     1      61.853  10.976   3.005  1.00  0.00     0.025 A 
HETATM    8  C   UNL     1      61.988   9.063   1.391  1.00  0.00     0.068 C 
ENDROOT
BRANCH   3   9
HETATM    9  O   UNL     1      63.849   8.684   5.689  1.00  0.00    -0.346 OA
HETATM   10  H   UNL     1      63.879   7.759   5.548  1.00  0.00     0.219 HD
ENDBRANCH   3   9
TORSDOF 1
ENDMDL
MODEL 6
REMARK VINA RESULT:      -3.8      2.247      2.580
REMARK  1 active torsions:
REMARK  status: ('A' for Active; 'I' for Inactive)
REMARK    1  A    between atoms: C_3  and  O_5 
ROOT
HETATM    1  N   UNL     1      62.314   9.502   2.838  1.00  0.00    -0.341 N 
ATOM      2  HN  UNL     1      62.023   9.199   1.909  1.00  0.00     0.167 HD
HETATM    3  C   UNL     1      61.971  10.703   3.333  1.00  0.00     0.140 A 
HETATM    4  C   UNL     1      63.069   8.718   3.645  1.00  0.00     0.007 A 
HETATM    5  C   UNL     1      63.086  10.371   5.388  1.00  0.00     0.006 A 
HETATM    6  C   UNL     1      62.322  11.193   4.572  1.00  0.00     0.056 A 
HETATM    7  C   UNL     1      63.466   9.113   4.923  1.00  0.00     0.025 A 
HETATM    8  C   UNL     1      63.502   7.388   3.105  1.00  0.00     0.068 C 
ENDROOT
BRANCH   3   9
HETATM    9  O   UNL     1      61.208  11.443   2.492  1.00  0.00    -0.346 OA
HETATM   10  H   UNL     1      60.785  12.219   2.801  1.00  0.00     0.219 HD
ENDBRANCH   3   9
TORSDOF 1
ENDMDL
MODEL 7
REMARK VINA RESULT:      -3.7      2.963      3.454
REMARK  1 active torsions:
REMARK  status: ('A' for Active; 'I' for Inactive)
REMARK    1  A    between atoms: C_3  and  O_5 
ROOT
HETATM    1  N   UNL     1      62.507   8.800   2.754  1.00  0.00    -0.341 N 
ATOM      2  HN  UNL     1      62.732   7.821   2.578  1.00  0.00     0.167 HD
HETATM    3  C   UNL     1      62.151   9.637   1.765  1.00  0.00     0.140 A 
HETATM    4  C   UNL     1      62.549   9.332   4.000  1.00  0.00     0.007 A 
HETATM    5  C   UNL     1      61.873  11.493   3.199  1.00  0.00     0.006 A 
HETATM    6  C   UNL     1      61.835  10.970   1.914  1.00  0.00     0.056 A 
HETATM    7  C   UNL     1      62.233  10.665   4.261  1.00  0.00     0.025 A 
HETATM    8  C   UNL     1      62.982   8.433   5.119  1.00  0.00     0.068 C 
ENDROOT
BRANCH   3   9
HETATM    9  O   UNL     1      62.114   9.053   0.543  1.00  0.00    -0.346 OA
HETATM   10  H   UNL     1      62.848   9.125  -0.034  1.00  0.00     0.219 HD
ENDBRANCH   3   9
TORSDOF 1
ENDMDL
MODEL 8
REMARK VINA RESULT:      -3.7      3.832      5.148
REMARK  1 active torsions:
REMARK  status: ('A' for Active; 'I' for Inactive)
REMARK    1  A    between atoms: C_3  and  O_5 
ROOT
HETATM    1  N   UNL     1      66.273   7.734   7.276  1.00  0.00    -0.341 N 
ATOM      2  HN  UNL     1      65.797   8.239   8.023  1.00  0.00     0.167 HD
HETATM    3  C   UNL     1      66.147   8.090   5.987  1.00  0.00     0.140 A 
HETATM    4  C   UNL     1      67.069   6.666   7.525  1.00  0.00     0.007 A 
HETATM    5  C   UNL     1      67.570   6.379   5.194  1.00  0.00     0.006 A 
HETATM    6  C   UNL     1      66.749   7.464   4.917  1.00  0.00     0.056 A 
HETATM    7  C   UNL     1      67.736   5.972   6.517  1.00  0.00     0.025 A 
HETATM    8  C   UNL     1      67.197   6.221   8.951  1.00  0.00     0.068 C 
ENDROOT
BRANCH   3   9
HETATM    9  O   UNL     1      65.349   9.168   5.793  1.00  0.00    -0.346 OA
HETATM   10  H   UNL     1      65.481   9.721   5.048  1.00  0.00     0.219 HD
ENDBRANCH   3   9
TORSDOF 1
ENDMDL
MODEL 9
REMARK VINA RESULT:      -3.6      1.474      2.878
REMARK  1 active torsions:
REMARK  status: ('A' for Active; 'I' for Inactive)
REMARK    1  A    between atoms: C_3  and  O_5 
ROOT
HETATM    1  N   UNL     1      64.050   9.706   5.285  1.00  0.00    -0.341 N 
ATOM      2  HN  UNL     1      64.153  10.518   5.894  1.00  0.00     0.167 HD
HETATM    3  C   UNL     1      64.892   8.662   5.346  1.00  0.00     0.140 A 
HETATM    4  C   UNL     1      63.055   9.618   4.369  1.00  0.00     0.007 A 
HETATM    5  C   UNL     1      63.796   7.453   3.638  1.00  0.00     0.006 A 
HETATM    6  C   UNL     1      64.828   7.530   4.562  1.00  0.00     0.056 A 
HETATM    7  C   UNL     1      62.892   8.510   3.538  1.00  0.00     0.025 A 
HETATM    8  C   UNL     1      62.123  10.787   4.250  1.00  0.00     0.068 C 
ENDROOT
BRANCH   3   9
HETATM    9  O   UNL     1      65.861   8.795   6.284  1.00  0.00    -0.346 OA
HETATM   10  H   UNL     1      65.653   8.695   7.192  1.00  0.00     0.219 HD
ENDBRANCH   3   9
TORSDOF 1
ENDMDL
