MODEL 1
REMARK VINA RESULT:      -4.5      0.000      0.000
REMARK  3 active torsions:
REMARK  status: ('A' for Active; 'I' for Inactive)
REMARK    1  A    between atoms: C_1  and  C_3 
REMARK    2  A    between atoms: C_2  and  O_8 
REMARK    3  A    between atoms: C_3  and  O_9 
ROOT
HETATM    1  C   UNL     1      63.796   9.370   4.977  1.00  0.00     0.113 A 
HETATM    2  C   UNL     1      63.504  10.663   5.371  1.00  0.00     0.089 A 
HETATM    3  S   UNL     1      62.672   8.843   3.777  1.00  0.00    -0.093 SA
HETATM    4  C   UNL     1      62.372  11.212   4.703  1.00  0.00     0.045 A 
HETATM    5  C   UNL     1      61.826  10.322   3.806  1.00  0.00     0.053 A 
ENDROOT
BRANCH   1   6
HETATM    6  C   UNL     1      64.827   8.428   5.373  1.00  0.00     0.302 C 
HETATM    7  O   UNL     1      64.863   7.239   5.055  1.00  0.00    -0.259 OA
BRANCH   6   8
HETATM    8  O   UNL     1      65.778   9.014   6.157  1.00  0.00    -0.322 OA
HETATM    9  C   UNL     1      66.791   8.102   6.588  1.00  0.00     0.213 C 
ENDBRANCH   6   8
ENDBRANCH   1   6
BRANCH   2  10
HETATM   10  O   UNL     1      64.223  11.326   6.296  1.00  0.00    -0.359 OA
HETATM   11  H   UNL     1      63.930  12.159   6.609  1.00  0.00     0.217 HD
ENDBRANCH   2  10
TORSDOF 3
ENDMDL
MODEL 2
REMARK VINA RESULT:      -4.3      1.607      1.931
REMARK  3 active torsions:
REMARK  status: ('A' for Active; 'I' for Inactive)
REMARK    1  A    between atoms: C_1  and  C_3 
REMARK    2  A    between atoms: C_2  and  O_8 
REMARK    3  A    between atoms: C_3  and  O_9 
ROOT
HETATM    1  C   UNL     1      62.736   9.635   4.174  1.00  0.00     0.113 A 
HETATM    2  C   UNL     1      62.228  10.886   3.879  1.00  0.00     0.089 A 
HETATM    3  S   UNL     1      62.617   8.601   2.797  1.00  0.00    -0.093 SA
HETATM    4  C   UNL     1      61.742  10.994   2.545  1.00  0.00     0.045 A 
HETATM    5  C   UNL     1      61.897   9.818   1.847  1.00  0.00     0.053 A 
ENDROOT
BRANCH   1   6
HETATM    6  C   UNL     1      63.323   9.068   5.376  1.00  0.00     0.302 C 
HETATM    7  O   UNL     1      62.727   8.368   6.195  1.00  0.00    -0.259 OA
BRANCH   6   8
HETATM    8  O   UNL     1      64.640   9.402   5.506  1.00  0.00    -0.322 OA
HETATM    9  C   UNL     1      65.513   8.271   5.474  1.00  0.00     0.213 C 
ENDBRANCH   6   8
ENDBRANCH   1   6
BRANCH   2  10
HETATM   10  O   UNL     1      62.198  11.893   4.772  1.00  0.00    -0.359 OA
HETATM   11  H   UNL     1      61.399  12.357   4.928  1.00  0.00     0.217 HD
ENDBRANCH   2  10
TORSDOF 3
ENDMDL
MODEL 3
REMARK VINA RESULT:      -3.8      1.921      4.408
REMARK  3 active torsions:
REMARK  status: ('A' for Active; 'I' for Inactive)
REMARK    1  A    between atoms: C_1  and  C_3 
REMARK    2  A    between atoms: C_2  and  O_8 
REMARK    3  A    between atoms: C_3  and  O_9 
ROOT
HETATM    1  C   UNL     1      65.723   7.947   5.243  1.00  0.00     0.113 A 
HETATM    2  C   UNL     1      66.787   7.966   6.127  1.00  0.00     0.089 A 
HETATM    3  S   UNL     1      65.862   6.603   4.169  1.00  0.00    -0.093 SA
HETATM    4  C   UNL     1      67.705   6.897   5.922  1.00  0.00     0.045 A 
HETATM    5  C   UNL     1      67.317   6.080   4.885  1.00  0.00     0.053 A 
ENDROOT
BRANCH   1   6
HETATM    6  C   UNL     1      64.569   8.813   5.070  1.00  0.00     0.302 C 
HETATM    7  O   UNL     1      64.372   9.864   5.681  1.00  0.00    -0.259 OA
BRANCH   6   8
HETATM    8  O   UNL     1      63.703   8.325   4.135  1.00  0.00    -0.322 OA
HETATM    9  C   UNL     1      62.709   9.274   3.742  1.00  0.00     0.213 C 
ENDBRANCH   6   8
ENDBRANCH   1   6
BRANCH   2  10
HETATM   10  O   UNL     1      66.929   8.906   7.079  1.00  0.00    -0.359 OA
HETATM   11  H   UNL     1      67.006   8.654   7.978  1.00  0.00     0.217 HD
ENDBRANCH   2  10
TORSDOF 3
ENDMDL
MODEL 4
REMARK VINA RESULT:      -3.6      1.565      1.876
REMARK  3 active torsions:
REMARK  status: ('A' for Active; 'I' for Inactive)
REMARK    1  A    between atoms: C_1  and  C_3 
REMARK    2  A    between atoms: C_2  and  O_8 
REMARK    3  A    between atoms: C_3  and  O_9 
ROOT
HETATM    1  C   UNL     1      64.900   8.379   4.942  1.00  0.00     0.113 A 
HETATM    2  C   UNL     1      63.954   9.379   5.075  1.00  0.00     0.089 A 
HETATM    3  S   UNL     1      64.349   7.179   3.829  1.00  0.00    -0.093 SA
HETATM    4  C   UNL     1      62.793   9.162   4.281  1.00  0.00     0.045 A 
HETATM    5  C   UNL     1      62.880   7.998   3.552  1.00  0.00     0.053 A 
ENDROOT
BRANCH   1   6
HETATM    6  C   UNL     1      66.207   8.171   5.541  1.00  0.00     0.302 C 
HETATM    7  O   UNL     1      67.267   8.082   4.921  1.00  0.00    -0.259 OA
BRANCH   6   8
HETATM    8  O   UNL     1      66.135   8.082   6.901  1.00  0.00    -0.322 OA
HETATM    9  C   UNL     1      65.828   6.764   7.362  1.00  0.00     0.213 C 
ENDBRANCH   6   8
ENDBRANCH   1   6
BRANCH   2  10
HETATM   10  O   UNL     1      64.125  10.444   5.880  1.00  0.00    -0.359 OA
HETATM   11  H   UNL     1      63.441  10.704   6.465  1.00  0.00     0.217 HD
ENDBRANCH   2  10
TORSDOF 3
ENDMDL
MODEL 5
REMARK VINA RESULT:      -3.6      2.147      4.064
REMARK  3 active torsions:
REMARK  status: ('A' for Active; 'I' for Inactive)
REMARK    1  A    between atoms: C_1  and  C_3 
REMARK    2  A    between atoms: C_2  and  O_8 
REMARK    3  A    between atoms: C_3  and  O_9 
ROOT
HETATM    1  C   UNL     1      63.300   8.916   4.193  1.00  0.00     0.113 A 
HETATM    2  C   UNL     1      64.279   9.156   5.139  1.00  0.00     0.089 A 
HETATM    3  S   UNL     1      63.523   7.359   3.484  1.00  0.00    -0.093 SA
HETATM    4  C   UNL     1      65.202   8.082   5.277  1.00  0.00     0.045 A 
HETATM    5  C   UNL     1      64.903   7.038   4.432  1.00  0.00     0.053 A 
ENDROOT
BRANCH   1   6
HETATM    6  C   UNL     1      62.174   9.702   3.717  1.00  0.00     0.302 C 
HETATM    7  O   UNL     1      61.770  10.746   4.229  1.00  0.00    -0.259 OA
BRANCH   6   8
HETATM    8  O   UNL     1      61.596   9.146   2.613  1.00  0.00    -0.322 OA
HETATM    9  C   UNL     1      61.874   9.865   1.410  1.00  0.00     0.213 C 
ENDBRANCH   6   8
ENDBRANCH   1   6
BRANCH   2  10
HETATM   10  O   UNL     1      64.343  10.297   5.852  1.00  0.00    -0.359 OA
HETATM   11  H   UNL     1      63.648  10.522   6.439  1.00  0.00     0.217 HD
ENDBRANCH   2  10
TORSDOF 3
ENDMDL
MODEL 6
REMARK VINA RESULT:      -3.6      1.742      2.229
REMARK  3 active torsions:
REMARK  status: ('A' for Active; 'I' for Inactive)
REMARK    1  A    between atoms: C_1  and  C_3 
REMARK    2  A    between atoms: C_2  and  O_8 
REMARK    3  A    between atoms: C_3  and  O_9 
ROOT
HETATM    1  C   UNL     1      62.954   8.888   4.796  1.00  0.00     0.113 A 
HETATM    2  C   UNL     1      62.714  10.204   5.143  1.00  0.00     0.089 A 
HETATM    3  S   UNL     1      62.569   8.628   3.134  1.00  0.00    -0.093 SA
HETATM    4  C   UNL     1      62.216  10.988   4.063  1.00  0.00     0.045 A 
HETATM    5  C   UNL     1      62.092  10.249   2.909  1.00  0.00     0.053 A 
ENDROOT
BRANCH   1   6
HETATM    6  C   UNL     1      63.448   7.745   5.545  1.00  0.00     0.302 C 
HETATM    7  O   UNL     1      64.434   7.071   5.243  1.00  0.00    -0.259 OA
BRANCH   6   8
HETATM    8  O   UNL     1      62.684   7.488   6.646  1.00  0.00    -0.322 OA
HETATM    9  C   UNL     1      61.623   6.566   6.391  1.00  0.00     0.213 C 
ENDBRANCH   6   8
ENDBRANCH   1   6
BRANCH   2  10
HETATM   10  O   UNL     1      62.931  10.685   6.382  1.00  0.00    -0.359 OA
HETATM   11  H   UNL     1      62.231  10.709   7.004  1.00  0.00     0.217 HD
ENDBRANCH   2  10
TORSDOF 3
ENDMDL
MODEL 7
REMARK VINA RESULT:      -3.5      3.026      4.014
REMARK  3 active torsions:
REMARK  status: ('A' for Active; 'I' for Inactive)
REMARK    1  A    between atoms: C_1  and  C_3 
REMARK    2  A    between atoms: C_2  and  O_8 
REMARK    3  A    between atoms: C_3  and  O_9 
ROOT
HETATM    1  C   UNL     1      62.570   9.373   3.471  1.00  0.00     0.113 A 
HETATM    2  C   UNL     1      61.984  10.622   3.371  1.00  0.00     0.089 A 
HETATM    3  S   UNL     1      63.380   9.213   4.987  1.00  0.00    -0.093 SA
HETATM    4  C   UNL     1      62.200  11.437   4.518  1.00  0.00     0.045 A 
HETATM    5  C   UNL     1      62.946  10.787   5.475  1.00  0.00     0.053 A 
ENDROOT
BRANCH   1   6
HETATM    6  C   UNL     1      62.620   8.233   2.572  1.00  0.00     0.302 C 
HETATM    7  O   UNL     1      63.425   7.304   2.649  1.00  0.00    -0.259 OA
BRANCH   6   8
HETATM    8  O   UNL     1      61.658   8.302   1.608  1.00  0.00    -0.322 OA
HETATM    9  C   UNL     1      62.180   8.187   0.283  1.00  0.00     0.213 C 
ENDBRANCH   6   8
ENDBRANCH   1   6
BRANCH   2  10
HETATM   10  O   UNL     1      61.282  11.016   2.292  1.00  0.00    -0.359 OA
HETATM   11  H   UNL     1      61.305  11.913   2.021  1.00  0.00     0.217 HD
ENDBRANCH   2  10
TORSDOF 3
ENDMDL
MODEL 8
REMARK VINA RESULT:      -3.5      1.533      2.239
REMARK  3 active torsions:
REMARK  status: ('A' for Active; 'I' for Inactive)
REMARK    1  A    between atoms: C_1  and  C_3 
REMARK    2  A    between atoms: C_2  and  O_8 
REMARK    3  A    between atoms: C_3  and  O_9 
ROOT
HETATM    1  C   UNL     1      63.514   9.033   4.638  1.00  0.00     0.113 A 
HETATM    2  C   UNL     1      62.991   8.713   3.399  1.00  0.00     0.089 A 
HETATM    3  S   UNL     1      62.906  10.560   5.167  1.00  0.00    -0.093 SA
HETATM    4  C   UNL     1      62.110   9.707   2.887  1.00  0.00     0.045 A 
HETATM    5  C   UNL     1      61.975  10.767   3.754  1.00  0.00     0.053 A 
ENDROOT
BRANCH   1   6
HETATM    6  C   UNL     1      64.435   8.347   5.527  1.00  0.00     0.302 C 
HETATM    7  O   UNL     1      64.113   7.523   6.385  1.00  0.00    -0.259 OA
BRANCH   6   8
HETATM    8  O   UNL     1      65.729   8.721   5.308  1.00  0.00    -0.322 OA
HETATM    9  C   UNL     1      66.654   8.089   6.194  1.00  0.00     0.213 C 
ENDBRANCH   6   8
ENDBRANCH   1   6
BRANCH   2  10
HETATM   10  O   UNL     1      63.295   7.573   2.750  1.00  0.00    -0.359 OA
HETATM   11  H   UNL     1      63.324   7.561   1.813  1.00  0.00     0.217 HD
ENDBRANCH   2  10
TORSDOF 3
ENDMDL
MODEL 9
REMARK VINA RESULT:      -3.5      1.945      2.297
REMARK  3 active torsions:
REMARK  status: ('A' for Active; 'I' for Inactive)
REMARK    1  A    between atoms: C_1  and  C_3 
REMARK    2  A    between atoms: C_2  and  O_8 
REMARK    3  A    between atoms: C_3  and  O_9 
ROOT
HETATM    1  C   UNL     1      63.700   7.285   5.542  1.00  0.00     0.113 A 
HETATM    2  C   UNL     1      63.991   8.578   5.148  1.00  0.00     0.089 A 
HETATM    3  S   UNL     1      62.301   6.707   4.713  1.00  0.00    -0.093 SA
HETATM    4  C   UNL     1      63.076   9.089   4.183  1.00  0.00     0.045 A 
HETATM    5  C   UNL     1      62.106   8.169   3.858  1.00  0.00     0.053 A 
ENDROOT
BRANCH   1   6
HETATM    6  C   UNL     1      64.332   6.375   6.482  1.00  0.00     0.302 C 
HETATM    7  O   UNL     1      64.401   5.153   6.349  1.00  0.00    -0.259 OA
BRANCH   6   8
HETATM    8  O   UNL     1      64.855   7.035   7.556  1.00  0.00    -0.322 OA
HETATM    9  C   UNL     1      66.212   6.679   7.827  1.00  0.00     0.213 C 
ENDBRANCH   6   8
ENDBRANCH   1   6
BRANCH   2  10
HETATM   10  O   UNL     1      65.035   9.274   5.634  1.00  0.00    -0.359 OA
HETATM   11  H   UNL     1      65.287  10.082   5.233  1.00  0.00     0.217 HD
ENDBRANCH   2  10
TORSDOF 3
ENDMDL
