MODEL 1
REMARK VINA RESULT:      -4.5      0.000      0.000
REMARK  1 active torsions:
REMARK  status: ('A' for Active; 'I' for Inactive)
REMARK    1  A    between atoms: C_5  and  O_9 
ROOT
HETATM    1  C   UNL     1      62.225   9.775   2.515  1.00  0.00     0.075 A 
HETATM    2  C   UNL     1      62.758   8.959   3.513  1.00  0.00     0.063 A 
HETATM    3  C   UNL     1      61.872  11.093   2.803  1.00  0.00     0.138 A 
HETATM    4  C   UNL     1      62.053  11.611   4.084  1.00  0.00     0.047 A 
HETATM    5  C   UNL     1      62.929   9.480   4.793  1.00  0.00     0.067 A 
HETATM    6 CL   UNL     1      62.001   9.135   0.931  1.00  0.00    -0.081 Cl
HETATM    7  F   UNL     1      61.354  11.889   1.857  1.00  0.00    -0.204 F 
HETATM    8  C   UNL     1      62.584  10.797   5.085  1.00  0.00     0.039 A 
ENDROOT
BRANCH   5   9
HETATM    9  O   UNL     1      63.432   8.720   5.807  1.00  0.00    -0.361 OA
HETATM   10  H   UNL     1      64.204   8.207   5.671  1.00  0.00     0.217 HD
ENDBRANCH   5   9
TORSDOF 1
ENDMDL
MODEL 2
REMARK VINA RESULT:      -4.4      2.215      2.734
REMARK  1 active torsions:
REMARK  status: ('A' for Active; 'I' for Inactive)
REMARK    1  A    between atoms: C_5  and  O_9 
ROOT
HETATM    1  C   UNL     1      62.278   9.408   2.364  1.00  0.00     0.075 A 
HETATM    2  C   UNL     1      61.923  10.679   2.817  1.00  0.00     0.063 A 
HETATM    3  C   UNL     1      62.933   8.520   3.217  1.00  0.00     0.138 A 
HETATM    4  C   UNL     1      63.234   8.887   4.528  1.00  0.00     0.047 A 
HETATM    5  C   UNL     1      62.233  11.043   4.124  1.00  0.00     0.067 A 
HETATM    6 CL   UNL     1      61.907   8.953   0.744  1.00  0.00    -0.081 Cl
HETATM    7  F   UNL     1      63.286   7.296   2.797  1.00  0.00    -0.204 F 
HETATM    8  C   UNL     1      62.882  10.158   4.982  1.00  0.00     0.039 A 
ENDROOT
BRANCH   5   9
HETATM    9  O   UNL     1      61.921  12.278   4.611  1.00  0.00    -0.361 OA
HETATM   10  H   UNL     1      61.414  12.872   4.092  1.00  0.00     0.217 HD
ENDBRANCH   5   9
TORSDOF 1
ENDMDL
MODEL 3
REMARK VINA RESULT:      -4.4      1.527      1.830
REMARK  1 active torsions:
REMARK  status: ('A' for Active; 'I' for Inactive)
REMARK    1  A    between atoms: C_5  and  O_9 
ROOT
HETATM    1  C   UNL     1      62.857   8.913   3.395  1.00  0.00     0.075 A 
HETATM    2  C   UNL     1      63.157   9.287   4.706  1.00  0.00     0.063 A 
HETATM    3  C   UNL     1      62.196   9.802   2.548  1.00  0.00     0.138 A 
HETATM    4  C   UNL     1      61.833  11.071   2.996  1.00  0.00     0.047 A 
HETATM    5  C   UNL     1      62.785  10.553   5.150  1.00  0.00     0.067 A 
HETATM    6 CL   UNL     1      63.305   7.344   2.841  1.00  0.00    -0.081 Cl
HETATM    7  F   UNL     1      61.896   9.456   1.288  1.00  0.00    -0.204 F 
HETATM    8  C   UNL     1      62.129  11.447   4.306  1.00  0.00     0.039 A 
ENDROOT
BRANCH   5   9
HETATM    9  O   UNL     1      63.041  10.962   6.425  1.00  0.00    -0.361 OA
HETATM   10  H   UNL     1      63.755  10.588   6.903  1.00  0.00     0.217 HD
ENDBRANCH   5   9
TORSDOF 1
ENDMDL
MODEL 4
REMARK VINA RESULT:      -4.3      1.575      2.282
REMARK  1 active torsions:
REMARK  status: ('A' for Active; 'I' for Inactive)
REMARK    1  A    between atoms: C_5  and  O_9 
ROOT
HETATM    1  C   UNL     1      62.044  10.655   2.750  1.00  0.00     0.075 A 
HETATM    2  C   UNL     1      62.246  10.746   4.127  1.00  0.00     0.063 A 
HETATM    3  C   UNL     1      62.234   9.439   2.094  1.00  0.00     0.138 A 
HETATM    4  C   UNL     1      62.621   8.304   2.804  1.00  0.00     0.047 A 
HETATM    5  C   UNL     1      62.639   9.611   4.830  1.00  0.00     0.067 A 
HETATM    6 CL   UNL     1      61.567  12.058   1.871  1.00  0.00    -0.081 Cl
HETATM    7  F   UNL     1      62.049   9.336   0.770  1.00  0.00    -0.204 F 
HETATM    8  C   UNL     1      62.825   8.392   4.181  1.00  0.00     0.039 A 
ENDROOT
BRANCH   5   9
HETATM    9  O   UNL     1      62.864   9.649   6.174  1.00  0.00    -0.361 OA
HETATM   10  H   UNL     1      62.581  10.388   6.676  1.00  0.00     0.217 HD
ENDBRANCH   5   9
TORSDOF 1
ENDMDL
MODEL 5
REMARK VINA RESULT:      -4.1      2.127      2.622
REMARK  1 active torsions:
REMARK  status: ('A' for Active; 'I' for Inactive)
REMARK    1  A    between atoms: C_5  and  O_9 
ROOT
HETATM    1  C   UNL     1      62.022  10.687   2.684  1.00  0.00     0.075 A 
HETATM    2  C   UNL     1      62.126   9.501   1.957  1.00  0.00     0.063 A 
HETATM    3  C   UNL     1      62.299  10.696   4.052  1.00  0.00     0.138 A 
HETATM    4  C   UNL     1      62.688   9.527   4.703  1.00  0.00     0.047 A 
HETATM    5  C   UNL     1      62.507   8.335   2.616  1.00  0.00     0.067 A 
HETATM    6 CL   UNL     1      61.542  12.132   1.879  1.00  0.00    -0.081 Cl
HETATM    7  F   UNL     1      62.199  11.826   4.766  1.00  0.00    -0.204 F 
HETATM    8  C   UNL     1      62.791   8.339   3.980  1.00  0.00     0.039 A 
ENDROOT
BRANCH   5   9
HETATM    9  O   UNL     1      62.609   7.147   1.955  1.00  0.00    -0.361 OA
HETATM   10  H   UNL     1      63.442   6.722   1.881  1.00  0.00     0.217 HD
ENDBRANCH   5   9
TORSDOF 1
ENDMDL
MODEL 6
REMARK VINA RESULT:      -4.1      2.320      2.901
REMARK  1 active torsions:
REMARK  status: ('A' for Active; 'I' for Inactive)
REMARK    1  A    between atoms: C_5  and  O_9 
ROOT
HETATM    1  C   UNL     1      62.587  10.123   4.002  1.00  0.00     0.075 A 
HETATM    2  C   UNL     1      62.947   8.791   3.795  1.00  0.00     0.063 A 
HETATM    3  C   UNL     1      62.026  10.865   2.963  1.00  0.00     0.138 A 
HETATM    4  C   UNL     1      61.813  10.287   1.713  1.00  0.00     0.047 A 
HETATM    5  C   UNL     1      62.739   8.221   2.541  1.00  0.00     0.067 A 
HETATM    6 CL   UNL     1      62.850  10.839   5.547  1.00  0.00    -0.081 Cl
HETATM    7  F   UNL     1      61.679  12.148   3.144  1.00  0.00    -0.204 F 
HETATM    8  C   UNL     1      62.174   8.956   1.502  1.00  0.00     0.039 A 
ENDROOT
BRANCH   5   9
HETATM    9  O   UNL     1      63.087   6.929   2.282  1.00  0.00    -0.361 OA
HETATM   10  H   UNL     1      62.430   6.260   2.268  1.00  0.00     0.217 HD
ENDBRANCH   5   9
TORSDOF 1
ENDMDL
MODEL 7
REMARK VINA RESULT:      -4.0      2.874      3.282
REMARK  1 active torsions:
REMARK  status: ('A' for Active; 'I' for Inactive)
REMARK    1  A    between atoms: C_5  and  O_9 
ROOT
HETATM    1  C   UNL     1      63.177   8.580   3.631  1.00  0.00     0.075 A 
HETATM    2  C   UNL     1      62.362   9.380   2.828  1.00  0.00     0.063 A 
HETATM    3  C   UNL     1      63.581   9.032   4.887  1.00  0.00     0.138 A 
HETATM    4  C   UNL     1      63.173  10.279   5.356  1.00  0.00     0.047 A 
HETATM    5  C   UNL     1      61.965  10.628   3.299  1.00  0.00     0.067 A 
HETATM    6 CL   UNL     1      63.682   7.039   3.050  1.00  0.00    -0.081 Cl
HETATM    7  F   UNL     1      64.368   8.278   5.668  1.00  0.00    -0.204 F 
HETATM    8  C   UNL     1      62.360  11.082   4.556  1.00  0.00     0.039 A 
ENDROOT
BRANCH   5   9
HETATM    9  O   UNL     1      61.182  11.454   2.549  1.00  0.00    -0.361 OA
HETATM   10  H   UNL     1      61.511  11.813   1.748  1.00  0.00     0.217 HD
ENDBRANCH   5   9
TORSDOF 1
ENDMDL
MODEL 8
REMARK VINA RESULT:      -3.5      2.032      2.365
REMARK  1 active torsions:
REMARK  status: ('A' for Active; 'I' for Inactive)
REMARK    1  A    between atoms: C_5  and  O_9 
ROOT
HETATM    1  C   UNL     1      63.422   7.736   3.199  1.00  0.00     0.075 A 
HETATM    2  C   UNL     1      64.443   7.828   4.146  1.00  0.00     0.063 A 
HETATM    3  C   UNL     1      62.386   8.671   3.194  1.00  0.00     0.138 A 
HETATM    4  C   UNL     1      62.363   9.707   4.125  1.00  0.00     0.047 A 
HETATM    5  C   UNL     1      64.409   8.861   5.079  1.00  0.00     0.067 A 
HETATM    6 CL   UNL     1      63.451   6.455   2.048  1.00  0.00    -0.081 Cl
HETATM    7  F   UNL     1      61.396   8.594   2.294  1.00  0.00    -0.204 F 
HETATM    8  C   UNL     1      63.380   9.801   5.075  1.00  0.00     0.039 A 
ENDROOT
BRANCH   5   9
HETATM    9  O   UNL     1      65.373   8.987   6.035  1.00  0.00    -0.361 OA
HETATM   10  H   UNL     1      65.904   9.759   6.065  1.00  0.00     0.217 HD
ENDBRANCH   5   9
TORSDOF 1
ENDMDL
MODEL 9
REMARK VINA RESULT:      -3.4      6.624      6.836
REMARK  1 active torsions:
REMARK  status: ('A' for Active; 'I' for Inactive)
REMARK    1  A    between atoms: C_5  and  O_9 
ROOT
HETATM    1  C   UNL     1      58.232   6.045   6.086  1.00  0.00     0.075 A 
HETATM    2  C   UNL     1      58.753   5.930   7.375  1.00  0.00     0.063 A 
HETATM    3  C   UNL     1      57.119   6.854   5.851  1.00  0.00     0.138 A 
HETATM    4  C   UNL     1      56.521   7.557   6.895  1.00  0.00     0.047 A 
HETATM    5  C   UNL     1      58.146   6.629   8.415  1.00  0.00     0.067 A 
HETATM    6 CL   UNL     1      58.970   5.175   4.795  1.00  0.00    -0.081 Cl
HETATM    7  F   UNL     1      56.603   6.971   4.620  1.00  0.00    -0.204 F 
HETATM    8  C   UNL     1      57.039   7.442   8.186  1.00  0.00     0.039 A 
ENDROOT
BRANCH   5   9
HETATM    9  O   UNL     1      58.607   6.539   9.695  1.00  0.00    -0.361 OA
HETATM   10  H   UNL     1      59.216   5.866   9.928  1.00  0.00     0.217 HD
ENDBRANCH   5   9
TORSDOF 1
ENDMDL
