MODEL 1
REMARK VINA RESULT:      -4.4      0.000      0.000
REMARK  0 active torsions:
REMARK  status: ('A' for Active; 'I' for Inactive)
ROOT
HETATM    1  N   UNL     1      59.434   8.056   1.642  1.00  0.00    -0.376 N 
ATOM      2  HN  UNL     1      58.567   8.043   1.106  1.00  0.00     0.164 HD
HETATM    3  N   UNL     1      60.831   8.755   2.938  1.00  0.00    -0.379 N 
ATOM      4  HN  UNL     1      59.867   9.025   2.744  1.00  0.00     0.164 HD
HETATM    5  C   UNL     1      63.676   7.728   3.753  1.00  0.00     0.036 A 
HETATM    6  C   UNL     1      62.412   7.960   3.476  1.00  0.00     0.014 A 
HETATM    7  C   UNL     1      60.841   8.829   0.975  1.00  0.00     0.084 A 
HETATM    8  C   UNL     1      61.419   7.069   2.188  1.00  0.00     0.067 C 
HETATM    9  C   UNL     1      59.483   7.300   3.220  1.00  0.00     0.084 A 
HETATM   10  C   UNL     1      61.735   9.828   3.876  1.00  0.00     0.083 C 
HETATM   11  C   UNL     1      60.919   7.208   4.229  1.00  0.00     0.005 A 
HETATM   12  C   UNL     1      62.398   8.831   1.781  1.00  0.00     0.005 A 
HETATM   13  C   UNL     1      62.940   6.591   2.716  1.00  0.00     0.050 A 
HETATM   14  C   UNL     1      63.218   9.297   4.256  1.00  0.00    -0.003 C 
ENDROOT
TORSDOF 0
ENDMDL
MODEL 2
REMARK VINA RESULT:      -4.2      5.398      6.827
REMARK  0 active torsions:
REMARK  status: ('A' for Active; 'I' for Inactive)
ROOT
HETATM    1  N   UNL     1      64.870   7.784   6.078  1.00  0.00    -0.376 N 
ATOM      2  HN  UNL     1      64.249   8.496   5.693  1.00  0.00     0.164 HD
HETATM    3  N   UNL     1      65.912   6.766   7.490  1.00  0.00    -0.379 N 
ATOM      4  HN  UNL     1      65.170   7.462   7.544  1.00  0.00     0.164 HD
HETATM    5  C   UNL     1      67.966   4.405   7.326  1.00  0.00     0.036 A 
HETATM    6  C   UNL     1      66.966   5.258   7.289  1.00  0.00     0.014 A 
HETATM    7  C   UNL     1      66.569   8.122   6.230  1.00  0.00     0.084 A 
HETATM    8  C   UNL     1      66.237   5.987   5.747  1.00  0.00     0.067 C 
HETATM    9  C   UNL     1      64.208   6.241   6.575  1.00  0.00     0.084 A 
HETATM   10  C   UNL     1      66.720   6.421   8.932  1.00  0.00     0.083 C 
HETATM   11  C   UNL     1      65.167   4.912   7.208  1.00  0.00     0.005 A 
HETATM   12  C   UNL     1      67.727   6.935   6.800  1.00  0.00     0.005 A 
HETATM   13  C   UNL     1      67.325   4.707   5.773  1.00  0.00     0.050 A 
HETATM   14  C   UNL     1      67.806   5.224   8.819  1.00  0.00    -0.003 C 
ENDROOT
TORSDOF 0
ENDMDL
MODEL 3
REMARK VINA RESULT:      -4.2      0.873      2.634
REMARK  0 active torsions:
REMARK  status: ('A' for Active; 'I' for Inactive)
ROOT
HETATM    1  N   UNL     1      59.587   7.974   2.275  1.00  0.00    -0.376 N 
ATOM      2  HN  UNL     1      58.635   7.888   1.918  1.00  0.00     0.164 HD
HETATM    3  N   UNL     1      61.521   7.461   2.606  1.00  0.00    -0.379 N 
ATOM      4  HN  UNL     1      60.808   7.104   1.971  1.00  0.00     0.164 HD
HETATM    5  C   UNL     1      63.799   8.756   4.325  1.00  0.00     0.036 A 
HETATM    6  C   UNL     1      62.833   8.409   3.503  1.00  0.00     0.014 A 
HETATM    7  C   UNL     1      59.986   7.281   3.819  1.00  0.00     0.084 A 
HETATM    8  C   UNL     1      61.132   9.145   3.480  1.00  0.00     0.067 C 
HETATM    9  C   UNL     1      60.791   8.817   1.325  1.00  0.00     0.084 A 
HETATM   10  C   UNL     1      62.910   6.517   2.778  1.00  0.00     0.083 C 
HETATM   11  C   UNL     1      62.450   9.079   1.839  1.00  0.00     0.005 A 
HETATM   12  C   UNL     1      61.569   7.447   4.555  1.00  0.00     0.005 A 
HETATM   13  C   UNL     1      62.428   9.771   4.345  1.00  0.00     0.050 A 
HETATM   14  C   UNL     1      64.062   7.185   3.701  1.00  0.00    -0.003 C 
ENDROOT
TORSDOF 0
ENDMDL
MODEL 4
REMARK VINA RESULT:      -4.2     12.364     13.381
REMARK  0 active torsions:
REMARK  status: ('A' for Active; 'I' for Inactive)
ROOT
HETATM    1  N   UNL     1      55.009   1.414  14.441  1.00  0.00    -0.376 N 
ATOM      2  HN  UNL     1      54.119   1.579  14.912  1.00  0.00     0.164 HD
HETATM    3  N   UNL     1      57.023   1.369  14.194  1.00  0.00    -0.379 N 
ATOM      4  HN  UNL     1      56.426   1.499  15.011  1.00  0.00     0.164 HD
HETATM    5  C   UNL     1      58.848   0.657  11.749  1.00  0.00     0.036 A 
HETATM    6  C   UNL     1      57.998   0.753  12.748  1.00  0.00     0.014 A 
HETATM    7  C   UNL     1      55.740   2.697  13.523  1.00  0.00     0.084 A 
HETATM    8  C   UNL     1      56.151   0.734  12.585  1.00  0.00     0.067 C 
HETATM    9  C   UNL     1      55.775  -0.154  14.570  1.00  0.00     0.084 A 
HETATM   10  C   UNL     1      58.659   1.730  14.396  1.00  0.00     0.083 C 
HETATM   11  C   UNL     1      57.281  -0.587  13.773  1.00  0.00     0.005 A 
HETATM   12  C   UNL     1      57.223   2.489  12.611  1.00  0.00     0.005 A 
HETATM   13  C   UNL     1      57.219   0.346  11.348  1.00  0.00     0.050 A 
HETATM   14  C   UNL     1      59.582   1.392  13.108  1.00  0.00    -0.003 C 
ENDROOT
TORSDOF 0
ENDMDL
MODEL 5
REMARK VINA RESULT:      -4.1      1.402      3.385
REMARK  0 active torsions:
REMARK  status: ('A' for Active; 'I' for Inactive)
ROOT
HETATM    1  N   UNL     1      64.162   8.459   4.444  1.00  0.00    -0.376 N 
ATOM      2  HN  UNL     1      64.991   8.621   5.017  1.00  0.00     0.164 HD
HETATM    3  N   UNL     1      62.957   8.555   2.815  1.00  0.00    -0.379 N 
ATOM      4  HN  UNL     1      63.943   8.769   2.963  1.00  0.00     0.164 HD
HETATM    5  C   UNL     1      60.020   7.600   2.284  1.00  0.00     0.036 A 
HETATM    6  C   UNL     1      61.292   7.789   2.560  1.00  0.00     0.014 A 
HETATM    7  C   UNL     1      62.873   9.626   4.459  1.00  0.00     0.084 A 
HETATM    8  C   UNL     1      62.068   7.576   4.230  1.00  0.00     0.067 C 
HETATM    9  C   UNL     1      64.059   7.012   3.465  1.00  0.00     0.084 A 
HETATM   10  C   UNL     1      62.284   9.092   1.363  1.00  0.00     0.083 C 
HETATM   11  C   UNL     1      62.673   6.587   2.472  1.00  0.00     0.005 A 
HETATM   12  C   UNL     1      61.374   9.398   3.577  1.00  0.00     0.005 A 
HETATM   13  C   UNL     1      60.514   7.079   3.832  1.00  0.00     0.050 A 
HETATM   14  C   UNL     1      60.752   8.622   1.123  1.00  0.00    -0.003 C 
ENDROOT
TORSDOF 0
ENDMDL
MODEL 6
REMARK VINA RESULT:      -4.1      1.366      2.637
REMARK  0 active torsions:
REMARK  status: ('A' for Active; 'I' for Inactive)
ROOT
HETATM    1  N   UNL     1      61.334   6.538   4.835  1.00  0.00    -0.376 N 
ATOM      2  HN  UNL     1      61.100   5.907   5.602  1.00  0.00     0.164 HD
HETATM    3  N   UNL     1      61.678   8.303   3.894  1.00  0.00    -0.379 N 
ATOM      4  HN  UNL     1      61.583   8.047   4.877  1.00  0.00     0.164 HD
HETATM    5  C   UNL     1      62.283   9.036   0.909  1.00  0.00     0.036 A 
HETATM    6  C   UNL     1      62.208   8.598   2.146  1.00  0.00     0.014 A 
HETATM    7  C   UNL     1      60.061   7.188   3.845  1.00  0.00     0.084 A 
HETATM    8  C   UNL     1      61.887   6.840   2.642  1.00  0.00     0.067 C 
HETATM    9  C   UNL     1      63.009   6.949   4.538  1.00  0.00     0.084 A 
HETATM   10  C   UNL     1      61.636   9.953   3.543  1.00  0.00     0.083 C 
HETATM   11  C   UNL     1      63.556   7.984   3.227  1.00  0.00     0.005 A 
HETATM   12  C   UNL     1      60.367   8.213   2.455  1.00  0.00     0.005 A 
HETATM   13  C   UNL     1      62.244   7.338   1.078  1.00  0.00     0.050 A 
HETATM   14  C   UNL     1      61.913  10.311   1.987  1.00  0.00    -0.003 C 
ENDROOT
TORSDOF 0
ENDMDL
MODEL 7
REMARK VINA RESULT:      -4.1      5.070      6.781
REMARK  0 active torsions:
REMARK  status: ('A' for Active; 'I' for Inactive)
ROOT
HETATM    1  N   UNL     1      66.365   4.550   8.456  1.00  0.00    -0.376 N 
ATOM      2  HN  UNL     1      66.449   3.864   9.207  1.00  0.00     0.164 HD
HETATM    3  N   UNL     1      65.480   5.943   7.276  1.00  0.00    -0.379 N 
ATOM      4  HN  UNL     1      65.216   5.516   8.164  1.00  0.00     0.164 HD
HETATM    5  C   UNL     1      66.439   7.482   4.721  1.00  0.00     0.036 A 
HETATM    6  C   UNL     1      66.216   6.922   5.889  1.00  0.00     0.014 A 
HETATM    7  C   UNL     1      65.795   4.042   6.895  1.00  0.00     0.084 A 
HETATM    8  C   UNL     1      67.303   5.651   6.691  1.00  0.00     0.067 C 
HETATM    9  C   UNL     1      66.797   6.218   8.762  1.00  0.00     0.084 A 
HETATM   10  C   UNL     1      64.280   6.827   6.484  1.00  0.00     0.083 C 
HETATM   11  C   UNL     1      66.746   7.491   7.550  1.00  0.00     0.005 A 
HETATM   12  C   UNL     1      65.696   5.127   5.520  1.00  0.00     0.005 A 
HETATM   13  C   UNL     1      67.728   6.548   5.335  1.00  0.00     0.050 A 
HETATM   14  C   UNL     1      64.784   7.584   5.143  1.00  0.00    -0.003 C 
ENDROOT
TORSDOF 0
ENDMDL
MODEL 8
REMARK VINA RESULT:      -4.1      5.146      6.681
REMARK  0 active torsions:
REMARK  status: ('A' for Active; 'I' for Inactive)
ROOT
HETATM    1  N   UNL     1      66.249   5.097   8.597  1.00  0.00    -0.376 N 
ATOM      2  HN  UNL     1      66.342   4.623   9.496  1.00  0.00     0.164 HD
HETATM    3  N   UNL     1      66.775   5.723   6.740  1.00  0.00    -0.379 N 
ATOM      4  HN  UNL     1      67.166   5.027   7.374  1.00  0.00     0.164 HD
HETATM    5  C   UNL     1      65.396   7.628   4.669  1.00  0.00     0.036 A 
HETATM    6  C   UNL     1      65.787   6.712   5.528  1.00  0.00     0.014 A 
HETATM    7  C   UNL     1      66.825   6.728   8.427  1.00  0.00     0.084 A 
HETATM    8  C   UNL     1      65.019   6.405   7.188  1.00  0.00     0.067 C 
HETATM    9  C   UNL     1      65.510   4.256   7.252  1.00  0.00     0.084 A 
HETATM   10  C   UNL     1      67.732   6.150   5.416  1.00  0.00     0.083 C 
HETATM   11  C   UNL     1      65.243   4.966   5.667  1.00  0.00     0.005 A 
HETATM   12  C   UNL     1      66.634   7.655   6.950  1.00  0.00     0.005 A 
HETATM   13  C   UNL     1      64.353   7.386   5.998  1.00  0.00     0.050 A 
HETATM   14  C   UNL     1      67.017   7.166   4.376  1.00  0.00    -0.003 C 
ENDROOT
TORSDOF 0
ENDMDL
MODEL 9
REMARK VINA RESULT:      -3.9     10.881     12.347
REMARK  0 active torsions:
REMARK  status: ('A' for Active; 'I' for Inactive)
ROOT
HETATM    1  N   UNL     1      56.874   1.713  14.384  1.00  0.00    -0.376 N 
ATOM      2  HN  UNL     1      56.354   1.897  15.243  1.00  0.00     0.164 HD
HETATM    3  N   UNL     1      57.814   2.124  12.634  1.00  0.00    -0.379 N 
ATOM      4  HN  UNL     1      57.483   2.712  13.398  1.00  0.00     0.164 HD
HETATM    5  C   UNL     1      59.112   0.303  10.439  1.00  0.00     0.036 A 
HETATM    6  C   UNL     1      58.707   0.967  11.499  1.00  0.00     0.014 A 
HETATM    7  C   UNL     1      56.006   1.409  12.908  1.00  0.00     0.084 A 
HETATM    8  C   UNL     1      57.871   0.219  12.976  1.00  0.00     0.067 C 
HETATM    9  C   UNL     1      58.624   1.708  14.419  1.00  0.00     0.084 A 
HETATM   10  C   UNL     1      58.253   2.922  11.212  1.00  0.00     0.083 C 
HETATM   11  C   UNL     1      59.640   1.361  13.028  1.00  0.00     0.005 A 
HETATM   12  C   UNL     1      56.805   1.002  11.401  1.00  0.00     0.005 A 
HETATM   13  C   UNL     1      58.618  -0.663  11.756  1.00  0.00     0.050 A 
HETATM   14  C   UNL     1      58.886   1.959  10.074  1.00  0.00    -0.003 C 
ENDROOT
TORSDOF 0
ENDMDL
