MODEL 1
REMARK VINA RESULT:      -5.1      0.000      0.000
REMARK  2 active torsions:
REMARK  status: ('A' for Active; 'I' for Inactive)
REMARK    1  A    between atoms: C_1  and  C_2 
REMARK    2  A    between atoms: C_5  and  N_6 
ROOT
HETATM    1  C   UNL     1      62.421   9.120   3.099  1.00  0.00    -0.051 A 
HETATM    2  C   UNL     1      63.341   8.648   4.048  1.00  0.00     0.010 A 
HETATM    3  C   UNL     1      61.882  10.402   3.318  1.00  0.00     0.010 A 
HETATM    4  C   UNL     1      63.148  10.675   5.375  1.00  0.00     0.025 A 
HETATM    5  C   UNL     1      62.260  11.174   4.426  1.00  0.00     0.029 A 
HETATM    6  C   UNL     1      63.714   9.423   5.153  1.00  0.00     0.029 A 
ENDROOT
BRANCH   1   7
HETATM    7  C   UNL     1      62.033   8.312   1.849  1.00  0.00    -0.024 C 
HETATM    8  C   UNL     1      62.339   9.044   0.522  1.00  0.00     0.019 C 
HETATM    9  C   UNL     1      60.517   8.020   1.862  1.00  0.00     0.019 C 
HETATM   10  C   UNL     1      62.805   6.977   1.828  1.00  0.00     0.019 C 
ENDBRANCH   1   7
BRANCH   4  11
HETATM   11  N   UNL     1      63.641  11.501   6.394  1.00  0.00    -0.399 N 
HETATM   12  H   UNL     1      63.591  11.208   7.331  1.00  0.00     0.156 HD
HETATM   13  H   UNL     1      64.036  12.374   6.171  1.00  0.00     0.156 HD
ENDBRANCH   4  11
TORSDOF 2
ENDMDL
MODEL 2
REMARK VINA RESULT:      -4.6      2.053      3.542
REMARK  2 active torsions:
REMARK  status: ('A' for Active; 'I' for Inactive)
REMARK    1  A    between atoms: C_1  and  C_2 
REMARK    2  A    between atoms: C_5  and  N_6 
ROOT
HETATM    1  C   UNL     1      63.108   8.755   4.240  1.00  0.00    -0.051 A 
HETATM    2  C   UNL     1      62.810   9.992   4.833  1.00  0.00     0.010 A 
HETATM    3  C   UNL     1      62.770   8.603   2.882  1.00  0.00     0.010 A 
HETATM    4  C   UNL     1      61.858  10.854   2.769  1.00  0.00     0.025 A 
HETATM    5  C   UNL     1      62.177   9.646   2.154  1.00  0.00     0.029 A 
HETATM    6  C   UNL     1      62.216  11.029   4.103  1.00  0.00     0.029 A 
ENDROOT
BRANCH   1   7
HETATM    7  C   UNL     1      63.805   7.617   5.004  1.00  0.00    -0.024 C 
HETATM    8  C   UNL     1      64.001   6.337   4.159  1.00  0.00     0.019 C 
HETATM    9  C   UNL     1      62.964   7.219   6.236  1.00  0.00     0.019 C 
HETATM   10  C   UNL     1      65.200   8.079   5.473  1.00  0.00     0.019 C 
ENDBRANCH   1   7
BRANCH   4  11
HETATM   11  N   UNL     1      61.410  11.942   2.011  1.00  0.00    -0.399 N 
HETATM   12  H   UNL     1      60.453  12.169   1.994  1.00  0.00     0.156 HD
HETATM   13  H   UNL     1      62.052  12.480   1.494  1.00  0.00     0.156 HD
ENDBRANCH   4  11
TORSDOF 2
ENDMDL
MODEL 3
REMARK VINA RESULT:      -4.4      2.054      3.707
REMARK  2 active torsions:
REMARK  status: ('A' for Active; 'I' for Inactive)
REMARK    1  A    between atoms: C_1  and  C_2 
REMARK    2  A    between atoms: C_5  and  N_6 
ROOT
HETATM    1  C   UNL     1      63.427   8.684   4.456  1.00  0.00    -0.051 A 
HETATM    2  C   UNL     1      63.135   9.921   5.051  1.00  0.00     0.010 A 
HETATM    3  C   UNL     1      62.926   8.468   3.159  1.00  0.00     0.010 A 
HETATM    4  C   UNL     1      61.875  10.659   3.109  1.00  0.00     0.025 A 
HETATM    5  C   UNL     1      62.182   9.451   2.489  1.00  0.00     0.029 A 
HETATM    6  C   UNL     1      62.392  10.899   4.379  1.00  0.00     0.029 A 
ENDROOT
BRANCH   1   7
HETATM    7  C   UNL     1      64.285   7.613   5.152  1.00  0.00    -0.024 C 
HETATM    8  C   UNL     1      65.546   8.185   5.840  1.00  0.00     0.019 C 
HETATM    9  C   UNL     1      64.770   6.574   4.116  1.00  0.00     0.019 C 
HETATM   10  C   UNL     1      63.453   6.897   6.234  1.00  0.00     0.019 C 
ENDBRANCH   1   7
BRANCH   4  11
HETATM   11  N   UNL     1      61.267  11.695   2.388  1.00  0.00    -0.399 N 
HETATM   12  H   UNL     1      61.315  11.705   1.406  1.00  0.00     0.156 HD
HETATM   13  H   UNL     1      60.793  12.414   2.865  1.00  0.00     0.156 HD
ENDBRANCH   4  11
TORSDOF 2
ENDMDL
MODEL 4
REMARK VINA RESULT:      -4.4      2.122      3.585
REMARK  2 active torsions:
REMARK  status: ('A' for Active; 'I' for Inactive)
REMARK    1  A    between atoms: C_1  and  C_2 
REMARK    2  A    between atoms: C_5  and  N_6 
ROOT
HETATM    1  C   UNL     1      63.048   8.623   4.125  1.00  0.00    -0.051 A 
HETATM    2  C   UNL     1      62.750   8.523   2.757  1.00  0.00     0.010 A 
HETATM    3  C   UNL     1      62.774   9.855   4.748  1.00  0.00     0.010 A 
HETATM    4  C   UNL     1      61.957  10.820   2.671  1.00  0.00     0.025 A 
HETATM    5  C   UNL     1      62.215  10.927   4.035  1.00  0.00     0.029 A 
HETATM    6  C   UNL     1      62.193   9.596   2.050  1.00  0.00     0.029 A 
ENDROOT
BRANCH   1   7
HETATM    7  C   UNL     1      63.612   7.445   4.937  1.00  0.00    -0.024 C 
HETATM    8  C   UNL     1      62.794   7.127   6.211  1.00  0.00     0.019 C 
HETATM    9  C   UNL     1      65.052   7.764   5.395  1.00  0.00     0.019 C 
HETATM   10  C   UNL     1      63.628   6.171   4.069  1.00  0.00     0.019 C 
ENDBRANCH   1   7
BRANCH   4  11
HETATM   11  N   UNL     1      61.261  11.830   1.996  1.00  0.00    -0.399 N 
HETATM   12  H   UNL     1      60.814  11.634   1.143  1.00  0.00     0.156 HD
HETATM   13  H   UNL     1      61.220  12.738   2.377  1.00  0.00     0.156 HD
ENDBRANCH   4  11
TORSDOF 2
ENDMDL
MODEL 5
REMARK VINA RESULT:      -4.3      1.639      2.310
REMARK  2 active torsions:
REMARK  status: ('A' for Active; 'I' for Inactive)
REMARK    1  A    between atoms: C_1  and  C_2 
REMARK    2  A    between atoms: C_5  and  N_6 
ROOT
HETATM    1  C   UNL     1      62.792   8.607   3.027  1.00  0.00    -0.051 A 
HETATM    2  C   UNL     1      63.576   7.444   3.091  1.00  0.00     0.010 A 
HETATM    3  C   UNL     1      62.874   9.491   4.119  1.00  0.00     0.010 A 
HETATM    4  C   UNL     1      64.458   8.053   5.272  1.00  0.00     0.025 A 
HETATM    5  C   UNL     1      63.713   9.227   5.212  1.00  0.00     0.029 A 
HETATM    6  C   UNL     1      64.411   7.185   4.185  1.00  0.00     0.029 A 
ENDROOT
BRANCH   1   7
HETATM    7  C   UNL     1      61.905   8.941   1.815  1.00  0.00    -0.024 C 
HETATM    8  C   UNL     1      62.474   8.423   0.474  1.00  0.00     0.019 C 
HETATM    9  C   UNL     1      61.758  10.473   1.678  1.00  0.00     0.019 C 
HETATM   10  C   UNL     1      60.509   8.313   1.998  1.00  0.00     0.019 C 
ENDBRANCH   1   7
BRANCH   4  11
HETATM   11  N   UNL     1      65.407   7.862   6.285  1.00  0.00    -0.399 N 
HETATM   12  H   UNL     1      65.136   7.914   7.229  1.00  0.00     0.156 HD
HETATM   13  H   UNL     1      66.346   7.677   6.051  1.00  0.00     0.156 HD
ENDBRANCH   4  11
TORSDOF 2
ENDMDL
MODEL 6
REMARK VINA RESULT:      -4.2      2.375      3.411
REMARK  2 active torsions:
REMARK  status: ('A' for Active; 'I' for Inactive)
REMARK    1  A    between atoms: C_1  and  C_2 
REMARK    2  A    between atoms: C_5  and  N_6 
ROOT
HETATM    1  C   UNL     1      63.333   8.440   3.696  1.00  0.00    -0.051 A 
HETATM    2  C   UNL     1      64.048   8.964   4.785  1.00  0.00     0.010 A 
HETATM    3  C   UNL     1      63.783   7.215   3.170  1.00  0.00     0.010 A 
HETATM    4  C   UNL     1      65.602   7.095   4.778  1.00  0.00     0.025 A 
HETATM    5  C   UNL     1      64.886   6.544   3.719  1.00  0.00     0.029 A 
HETATM    6  C   UNL     1      65.148   8.291   5.329  1.00  0.00     0.029 A 
ENDROOT
BRANCH   1   7
HETATM    7  C   UNL     1      62.090   9.133   3.112  1.00  0.00    -0.024 C 
HETATM    8  C   UNL     1      62.130   9.274   1.572  1.00  0.00     0.019 C 
HETATM    9  C   UNL     1      61.963  10.560   3.690  1.00  0.00     0.019 C 
HETATM   10  C   UNL     1      60.825   8.328   3.469  1.00  0.00     0.019 C 
ENDBRANCH   1   7
BRANCH   4  11
HETATM   11  N   UNL     1      66.602   6.357   5.422  1.00  0.00    -0.399 N 
HETATM   12  H   UNL     1      66.408   5.905   6.274  1.00  0.00     0.156 HD
HETATM   13  H   UNL     1      67.500   6.291   5.023  1.00  0.00     0.156 HD
ENDBRANCH   4  11
TORSDOF 2
ENDMDL
MODEL 7
REMARK VINA RESULT:      -4.2      2.371      3.477
REMARK  2 active torsions:
REMARK  status: ('A' for Active; 'I' for Inactive)
REMARK    1  A    between atoms: C_1  and  C_2 
REMARK    2  A    between atoms: C_5  and  N_6 
ROOT
HETATM    1  C   UNL     1      63.271   8.374   3.620  1.00  0.00    -0.051 A 
HETATM    2  C   UNL     1      63.756   7.179   3.065  1.00  0.00     0.010 A 
HETATM    3  C   UNL     1      63.998   8.918   4.695  1.00  0.00     0.010 A 
HETATM    4  C   UNL     1      65.608   7.097   4.638  1.00  0.00     0.025 A 
HETATM    5  C   UNL     1      65.161   8.300   5.179  1.00  0.00     0.029 A 
HETATM    6  C   UNL     1      64.917   6.566   3.552  1.00  0.00     0.029 A 
ENDROOT
BRANCH   1   7
HETATM    7  C   UNL     1      62.028   9.096   3.071  1.00  0.00    -0.024 C 
HETATM    8  C   UNL     1      60.701   8.369   3.395  1.00  0.00     0.019 C 
HETATM    9  C   UNL     1      62.118   9.203   1.533  1.00  0.00     0.019 C 
HETATM   10  C   UNL     1      61.937  10.512   3.673  1.00  0.00     0.019 C 
ENDBRANCH   1   7
BRANCH   4  11
HETATM   11  N   UNL     1      66.846   6.563   5.015  1.00  0.00    -0.399 N 
HETATM   12  H   UNL     1      66.886   5.817   5.655  1.00  0.00     0.156 HD
HETATM   13  H   UNL     1      67.677   6.935   4.639  1.00  0.00     0.156 HD
ENDBRANCH   4  11
TORSDOF 2
ENDMDL
MODEL 8
REMARK VINA RESULT:      -3.9      2.983      4.045
REMARK  2 active torsions:
REMARK  status: ('A' for Active; 'I' for Inactive)
REMARK    1  A    between atoms: C_1  and  C_2 
REMARK    2  A    between atoms: C_5  and  N_6 
ROOT
HETATM    1  C   UNL     1      64.140   7.696   5.233  1.00  0.00    -0.051 A 
HETATM    2  C   UNL     1      65.366   8.370   5.124  1.00  0.00     0.010 A 
HETATM    3  C   UNL     1      64.010   6.779   6.293  1.00  0.00     0.010 A 
HETATM    4  C   UNL     1      66.276   7.214   7.059  1.00  0.00     0.025 A 
HETATM    5  C   UNL     1      65.055   6.561   7.203  1.00  0.00     0.029 A 
HETATM    6  C   UNL     1      66.406   8.148   6.035  1.00  0.00     0.029 A 
ENDROOT
BRANCH   1   7
HETATM    7  C   UNL     1      62.963   7.958   4.277  1.00  0.00    -0.024 C 
HETATM    8  C   UNL     1      62.586   9.453   4.160  1.00  0.00     0.019 C 
HETATM    9  C   UNL     1      61.705   7.215   4.776  1.00  0.00     0.019 C 
HETATM   10  C   UNL     1      63.318   7.459   2.862  1.00  0.00     0.019 C 
ENDBRANCH   1   7
BRANCH   4  11
HETATM   11  N   UNL     1      67.259   7.113   8.051  1.00  0.00    -0.399 N 
HETATM   12  H   UNL     1      67.134   6.496   8.806  1.00  0.00     0.156 HD
HETATM   13  H   UNL     1      68.075   7.660   7.992  1.00  0.00     0.156 HD
ENDBRANCH   4  11
TORSDOF 2
ENDMDL
MODEL 9
REMARK VINA RESULT:      -3.8      1.342      2.067
REMARK  2 active torsions:
REMARK  status: ('A' for Active; 'I' for Inactive)
REMARK    1  A    between atoms: C_1  and  C_2 
REMARK    2  A    between atoms: C_5  and  N_6 
ROOT
HETATM    1  C   UNL     1      63.215   7.632   3.351  1.00  0.00    -0.051 A 
HETATM    2  C   UNL     1      64.202   7.727   4.344  1.00  0.00     0.010 A 
HETATM    3  C   UNL     1      62.304   8.701   3.256  1.00  0.00     0.010 A 
HETATM    4  C   UNL     1      63.355   9.873   5.108  1.00  0.00     0.025 A 
HETATM    5  C   UNL     1      62.390   9.813   4.106  1.00  0.00     0.029 A 
HETATM    6  C   UNL     1      64.283   8.839   5.191  1.00  0.00     0.029 A 
ENDROOT
BRANCH   1   7
HETATM    7  C   UNL     1      63.135   6.446   2.374  1.00  0.00    -0.024 C 
HETATM    8  C   UNL     1      64.441   5.622   2.297  1.00  0.00     0.019 C 
HETATM    9  C   UNL     1      62.843   6.960   0.947  1.00  0.00     0.019 C 
HETATM   10  C   UNL     1      62.009   5.487   2.807  1.00  0.00     0.019 C 
ENDBRANCH   1   7
BRANCH   4  11
HETATM   11  N   UNL     1      63.537  11.046   5.852  1.00  0.00    -0.399 N 
HETATM   12  H   UNL     1      63.078  11.156   6.715  1.00  0.00     0.156 HD
HETATM   13  H   UNL     1      64.124  11.759   5.511  1.00  0.00     0.156 HD
ENDBRANCH   4  11
TORSDOF 2
ENDMDL
