MODEL 1
REMARK VINA RESULT:      -4.3      0.000      0.000
REMARK  1 active torsions:
REMARK  status: ('A' for Active; 'I' for Inactive)
REMARK    1  A    between atoms: C_1  and  C_4 
ROOT
HETATM    1  C   UNL     1      61.705   9.528   3.767  1.00  0.00     0.100 A 
HETATM    2  N   UNL     1      60.526   9.009   3.304  1.00  0.00    -0.360 N 
ATOM      3  HN  UNL     1      59.837   9.589   2.823  1.00  0.00     0.165 HD
HETATM    4  C   UNL     1      62.647   8.728   4.423  1.00  0.00     0.035 A 
HETATM    5  N   UNL     1      62.409   7.395   4.622  1.00  0.00    -0.366 N 
ATOM      6  HN  UNL     1      63.087   6.800   5.100  1.00  0.00     0.165 HD
HETATM    7  C   UNL     1      60.320   7.693   3.515  1.00  0.00     0.105 A 
HETATM    8  C   UNL     1      61.242   6.900   4.160  1.00  0.00     0.105 A 
HETATM    9  C   UNL     1      63.963   9.173   4.979  1.00  0.00     0.070 C 
ENDROOT
BRANCH   1  10
HETATM   10  C   UNL     1      61.861  10.994   3.500  1.00  0.00     0.173 C 
HETATM   11  O   UNL     1      61.984  11.823   4.398  1.00  0.00    -0.291 OA
HETATM   12  C   UNL     1      61.859  11.435   2.055  1.00  0.00     0.098 C 
ENDBRANCH   1  10
TORSDOF 1
ENDMDL
MODEL 2
REMARK VINA RESULT:      -4.3      4.106      5.695
REMARK  1 active torsions:
REMARK  status: ('A' for Active; 'I' for Inactive)
REMARK    1  A    between atoms: C_1  and  C_4 
ROOT
HETATM    1  C   UNL     1      65.920   7.571   6.292  1.00  0.00     0.100 A 
HETATM    2  N   UNL     1      65.307   7.016   7.383  1.00  0.00    -0.360 N 
ATOM      3  HN  UNL     1      64.311   7.147   7.563  1.00  0.00     0.165 HD
HETATM    4  C   UNL     1      67.285   7.386   6.049  1.00  0.00     0.035 A 
HETATM    5  N   UNL     1      68.050   6.641   6.906  1.00  0.00    -0.366 N 
ATOM      6  HN  UNL     1      69.047   6.498   6.741  1.00  0.00     0.165 HD
HETATM    7  C   UNL     1      66.086   6.287   8.209  1.00  0.00     0.105 A 
HETATM    8  C   UNL     1      67.430   6.102   7.977  1.00  0.00     0.105 A 
HETATM    9  C   UNL     1      68.071   7.941   4.903  1.00  0.00     0.070 C 
ENDROOT
BRANCH   1  10
HETATM   10  C   UNL     1      64.994   8.368   5.424  1.00  0.00     0.173 C 
HETATM   11  O   UNL     1      64.758   9.556   5.621  1.00  0.00    -0.291 OA
HETATM   12  C   UNL     1      64.339   7.645   4.271  1.00  0.00     0.098 C 
ENDBRANCH   1  10
TORSDOF 1
ENDMDL
MODEL 3
REMARK VINA RESULT:      -4.0      2.116      3.399
REMARK  1 active torsions:
REMARK  status: ('A' for Active; 'I' for Inactive)
REMARK    1  A    between atoms: C_1  and  C_4 
ROOT
HETATM    1  C   UNL     1      62.991   9.075   3.873  1.00  0.00     0.100 A 
HETATM    2  N   UNL     1      63.025   8.106   2.907  1.00  0.00    -0.360 N 
ATOM      3  HN  UNL     1      63.520   7.225   3.048  1.00  0.00     0.165 HD
HETATM    4  C   UNL     1      62.307  10.280   3.676  1.00  0.00     0.035 A 
HETATM    5  N   UNL     1      61.651  10.522   2.498  1.00  0.00    -0.366 N 
ATOM      6  HN  UNL     1      61.150  11.397   2.340  1.00  0.00     0.165 HD
HETATM    7  C   UNL     1      62.369   8.373   1.759  1.00  0.00     0.105 A 
HETATM    8  C   UNL     1      61.696   9.557   1.557  1.00  0.00     0.105 A 
HETATM    9  C   UNL     1      62.201  11.415   4.644  1.00  0.00     0.070 C 
ENDROOT
BRANCH   1  10
HETATM   10  C   UNL     1      63.742   8.710   5.117  1.00  0.00     0.173 C 
HETATM   11  O   UNL     1      64.763   9.292   5.471  1.00  0.00    -0.291 OA
HETATM   12  C   UNL     1      63.195   7.568   5.941  1.00  0.00     0.098 C 
ENDBRANCH   1  10
TORSDOF 1
ENDMDL
MODEL 4
REMARK VINA RESULT:      -4.0      5.713      6.835
REMARK  1 active torsions:
REMARK  status: ('A' for Active; 'I' for Inactive)
REMARK    1  A    between atoms: C_1  and  C_4 
ROOT
HETATM    1  C   UNL     1      66.733   6.770   7.099  1.00  0.00     0.100 A 
HETATM    2  N   UNL     1      67.905   6.749   7.806  1.00  0.00    -0.360 N 
ATOM      3  HN  UNL     1      68.619   7.467   7.682  1.00  0.00     0.165 HD
HETATM    4  C   UNL     1      65.756   5.784   7.275  1.00  0.00     0.035 A 
HETATM    5  N   UNL     1      65.951   4.762   8.166  1.00  0.00    -0.366 N 
ATOM      6  HN  UNL     1      65.248   4.036   8.304  1.00  0.00     0.165 HD
HETATM    7  C   UNL     1      68.068   5.731   8.676  1.00  0.00     0.105 A 
HETATM    8  C   UNL     1      67.112   4.756   8.854  1.00  0.00     0.105 A 
HETATM    9  C   UNL     1      64.444   5.690   6.563  1.00  0.00     0.070 C 
ENDROOT
BRANCH   1  10
HETATM   10  C   UNL     1      66.624   7.925   6.152  1.00  0.00     0.173 C 
HETATM   11  O   UNL     1      66.001   8.948   6.420  1.00  0.00    -0.291 OA
HETATM   12  C   UNL     1      67.319   7.789   4.817  1.00  0.00     0.098 C 
ENDBRANCH   1  10
TORSDOF 1
ENDMDL
MODEL 5
REMARK VINA RESULT:      -4.0      2.528      4.073
REMARK  1 active torsions:
REMARK  status: ('A' for Active; 'I' for Inactive)
REMARK    1  A    between atoms: C_1  and  C_4 
ROOT
HETATM    1  C   UNL     1      63.817   8.919   4.994  1.00  0.00     0.100 A 
HETATM    2  N   UNL     1      63.591  10.080   5.684  1.00  0.00    -0.360 N 
ATOM      3  HN  UNL     1      64.057  10.276   6.570  1.00  0.00     0.165 HD
HETATM    4  C   UNL     1      63.177   8.656   3.777  1.00  0.00     0.035 A 
HETATM    5  N   UNL     1      62.299   9.561   3.243  1.00  0.00    -0.366 N 
ATOM      6  HN  UNL     1      61.825   9.382   2.358  1.00  0.00     0.165 HD
HETATM    7  C   UNL     1      62.722  10.951   5.132  1.00  0.00     0.105 A 
HETATM    8  C   UNL     1      62.088  10.699   3.937  1.00  0.00     0.105 A 
HETATM    9  C   UNL     1      63.332   7.430   2.934  1.00  0.00     0.070 C 
ENDROOT
BRANCH   1  10
HETATM   10  C   UNL     1      64.789   8.000   5.667  1.00  0.00     0.173 C 
HETATM   11  O   UNL     1      64.481   7.288   6.618  1.00  0.00    -0.291 OA
HETATM   12  C   UNL     1      66.201   7.978   5.130  1.00  0.00     0.098 C 
ENDBRANCH   1  10
TORSDOF 1
ENDMDL
MODEL 6
REMARK VINA RESULT:      -3.7      2.161      2.985
REMARK  1 active torsions:
REMARK  status: ('A' for Active; 'I' for Inactive)
REMARK    1  A    between atoms: C_1  and  C_4 
ROOT
HETATM    1  C   UNL     1      63.026   8.689   3.880  1.00  0.00     0.100 A 
HETATM    2  N   UNL     1      63.679   7.543   3.512  1.00  0.00    -0.360 N 
ATOM      3  HN  UNL     1      63.336   6.951   2.755  1.00  0.00     0.165 HD
HETATM    4  C   UNL     1      63.502   9.499   4.917  1.00  0.00     0.035 A 
HETATM    5  N   UNL     1      64.641   9.162   5.597  1.00  0.00    -0.366 N 
ATOM      6  HN  UNL     1      64.999   9.743   6.356  1.00  0.00     0.165 HD
HETATM    7  C   UNL     1      64.798   7.238   4.200  1.00  0.00     0.105 A 
HETATM    8  C   UNL     1      65.272   8.029   5.221  1.00  0.00     0.105 A 
HETATM    9  C   UNL     1      62.880  10.765   5.418  1.00  0.00     0.070 C 
ENDROOT
BRANCH   1  10
HETATM   10  C   UNL     1      61.792   8.962   3.077  1.00  0.00     0.173 C 
HETATM   11  O   UNL     1      60.687   8.524   3.386  1.00  0.00    -0.291 OA
HETATM   12  C   UNL     1      61.951   9.811   1.837  1.00  0.00     0.098 C 
ENDBRANCH   1  10
TORSDOF 1
ENDMDL
MODEL 7
REMARK VINA RESULT:      -3.7      0.987      2.705
REMARK  1 active torsions:
REMARK  status: ('A' for Active; 'I' for Inactive)
REMARK    1  A    between atoms: C_1  and  C_4 
ROOT
HETATM    1  C   UNL     1      62.218   8.799   4.281  1.00  0.00     0.100 A 
HETATM    2  N   UNL     1      61.837   7.543   4.670  1.00  0.00    -0.360 N 
ATOM      3  HN  UNL     1      62.281   7.068   5.456  1.00  0.00     0.165 HD
HETATM    4  C   UNL     1      61.604   9.448   3.204  1.00  0.00     0.035 A 
HETATM    5  N   UNL     1      60.598   8.835   2.505  1.00  0.00    -0.366 N 
ATOM      6  HN  UNL     1      60.142   9.296   1.717  1.00  0.00     0.165 HD
HETATM    7  C   UNL     1      60.843   6.966   3.963  1.00  0.00     0.105 A 
HETATM    8  C   UNL     1      60.235   7.598   2.902  1.00  0.00     0.105 A 
HETATM    9  C   UNL     1      61.932  10.809   2.677  1.00  0.00     0.070 C 
ENDROOT
BRANCH   1  10
HETATM   10  C   UNL     1      63.327   9.373   5.108  1.00  0.00     0.173 C 
HETATM   11  O   UNL     1      63.178  10.357   5.827  1.00  0.00    -0.291 OA
HETATM   12  C   UNL     1      64.672   8.690   5.026  1.00  0.00     0.098 C 
ENDBRANCH   1  10
TORSDOF 1
ENDMDL
MODEL 8
REMARK VINA RESULT:      -3.7      1.165      2.363
REMARK  1 active torsions:
REMARK  status: ('A' for Active; 'I' for Inactive)
REMARK    1  A    between atoms: C_1  and  C_4 
ROOT
HETATM    1  C   UNL     1      62.491   9.394   4.100  1.00  0.00     0.100 A 
HETATM    2  N   UNL     1      63.739   9.446   4.660  1.00  0.00    -0.360 N 
ATOM      3  HN  UNL     1      64.279  10.312   4.687  1.00  0.00     0.165 HD
HETATM    4  C   UNL     1      61.754   8.205   4.069  1.00  0.00     0.035 A 
HETATM    5  N   UNL     1      62.268   7.053   4.601  1.00  0.00    -0.366 N 
ATOM      6  HN  UNL     1      61.742   6.179   4.585  1.00  0.00     0.165 HD
HETATM    7  C   UNL     1      64.219   8.296   5.177  1.00  0.00     0.105 A 
HETATM    8  C   UNL     1      63.500   7.123   5.149  1.00  0.00     0.105 A 
HETATM    9  C   UNL     1      60.390   8.016   3.483  1.00  0.00     0.070 C 
ENDROOT
BRANCH   1  10
HETATM   10  C   UNL     1      62.027  10.706   3.545  1.00  0.00     0.173 C 
HETATM   11  O   UNL     1      61.736  11.662   4.256  1.00  0.00    -0.291 OA
HETATM   12  C   UNL     1      61.921  10.818   2.042  1.00  0.00     0.098 C 
ENDBRANCH   1  10
TORSDOF 1
ENDMDL
MODEL 9
REMARK VINA RESULT:      -3.7      2.430      3.977
REMARK  1 active torsions:
REMARK  status: ('A' for Active; 'I' for Inactive)
REMARK    1  A    between atoms: C_1  and  C_4 
ROOT
HETATM    1  C   UNL     1      62.317   9.023   3.349  1.00  0.00     0.100 A 
HETATM    2  N   UNL     1      62.459   9.809   4.461  1.00  0.00    -0.360 N 
ATOM      3  HN  UNL     1      62.741   9.419   5.360  1.00  0.00     0.165 HD
HETATM    4  C   UNL     1      61.932   9.563   2.117  1.00  0.00     0.035 A 
HETATM    5  N   UNL     1      61.684  10.904   1.992  1.00  0.00    -0.366 N 
ATOM      6  HN  UNL     1      61.402  11.312   1.100  1.00  0.00     0.165 HD
HETATM    7  C   UNL     1      62.208  11.125   4.306  1.00  0.00     0.105 A 
HETATM    8  C   UNL     1      61.829  11.664   3.098  1.00  0.00     0.105 A 
HETATM    9  C   UNL     1      61.736   8.815   0.836  1.00  0.00     0.070 C 
ENDROOT
BRANCH   1  10
HETATM   10  C   UNL     1      62.608   7.574   3.597  1.00  0.00     0.173 C 
HETATM   11  O   UNL     1      61.756   6.785   3.994  1.00  0.00    -0.291 OA
HETATM   12  C   UNL     1      64.019   7.102   3.340  1.00  0.00     0.098 C 
ENDBRANCH   1  10
TORSDOF 1
ENDMDL
