MODEL 1
REMARK VINA RESULT:      -5.2      0.000      0.000
REMARK  2 active torsions:
REMARK  status: ('A' for Active; 'I' for Inactive)
REMARK    1  A    between atoms: C_2  and  C_7 
REMARK    2  A    between atoms: C_5  and  C_7 
ROOT
HETATM    1  C   UNL     1      62.338   9.500   2.395  1.00  0.00     0.056 A 
HETATM    2  C   UNL     1      62.068  10.778   2.896  1.00  0.00     0.055 A 
HETATM    3  C   UNL     1      62.843   8.509   3.246  1.00  0.00     0.033 A 
HETATM    4  C   UNL     1      63.077   8.783   4.602  1.00  0.00    -0.046 A 
HETATM    5  C   UNL     1      62.297  11.055   4.246  1.00  0.00     0.026 A 
HETATM    6 CL   UNL     1      62.077   9.080   0.740  1.00  0.00    -0.083 Cl
HETATM    7  C   UNL     1      62.799  10.065   5.095  1.00  0.00     0.009 A 
HETATM    8 CL   UNL     1      61.458  12.054   1.904  1.00  0.00    -0.083 Cl
ENDROOT
BRANCH   4   9
HETATM    9  C   UNL     1      63.671   7.728   5.507  1.00  0.00     0.151 C 
BRANCH   9  10
HETATM   10  C   UNL     1      65.133   7.950   5.808  1.00  0.00     0.176 C 
HETATM   11  O   UNL     1      65.970   8.500   5.112  1.00  0.00    -0.648 OA
HETATM   12  O   UNL     1      65.481   7.452   7.014  1.00  0.00    -0.648 OA
ENDBRANCH   9  10
ENDBRANCH   4   9
TORSDOF 2
ENDMDL
MODEL 2
REMARK VINA RESULT:      -4.8      1.366      2.568
REMARK  2 active torsions:
REMARK  status: ('A' for Active; 'I' for Inactive)
REMARK    1  A    between atoms: C_2  and  C_7 
REMARK    2  A    between atoms: C_5  and  C_7 
ROOT
HETATM    1  C   UNL     1      62.727   9.601   3.810  1.00  0.00     0.056 A 
HETATM    2  C   UNL     1      62.449   8.835   2.673  1.00  0.00     0.055 A 
HETATM    3  C   UNL     1      63.625   9.122   4.772  1.00  0.00     0.033 A 
HETATM    4  C   UNL     1      64.255   7.879   4.605  1.00  0.00    -0.046 A 
HETATM    5  C   UNL     1      63.076   7.598   2.501  1.00  0.00     0.026 A 
HETATM    6 CL   UNL     1      61.996  11.142   4.091  1.00  0.00    -0.083 Cl
HETATM    7  C   UNL     1      63.972   7.122   3.461  1.00  0.00     0.009 A 
HETATM    8 CL   UNL     1      61.343   9.355   1.452  1.00  0.00    -0.083 Cl
ENDROOT
BRANCH   4   9
HETATM    9  C   UNL     1      65.183   7.341   5.670  1.00  0.00     0.151 C 
BRANCH   9  10
HETATM   10  C   UNL     1      66.379   8.225   5.926  1.00  0.00     0.176 C 
HETATM   11  O   UNL     1      66.629   8.882   6.921  1.00  0.00    -0.648 OA
HETATM   12  O   UNL     1      67.231   8.236   4.879  1.00  0.00    -0.648 OA
ENDBRANCH   9  10
ENDBRANCH   4   9
TORSDOF 2
ENDMDL
MODEL 3
REMARK VINA RESULT:      -4.7      3.563      4.661
REMARK  2 active torsions:
REMARK  status: ('A' for Active; 'I' for Inactive)
REMARK    1  A    between atoms: C_2  and  C_7 
REMARK    2  A    between atoms: C_5  and  C_7 
ROOT
HETATM    1  C   UNL     1      64.417   6.921   3.469  1.00  0.00     0.056 A 
HETATM    2  C   UNL     1      65.267   7.326   4.504  1.00  0.00     0.055 A 
HETATM    3  C   UNL     1      63.270   7.668   3.175  1.00  0.00     0.033 A 
HETATM    4  C   UNL     1      62.964   8.825   3.908  1.00  0.00    -0.046 A 
HETATM    5  C   UNL     1      64.968   8.479   5.234  1.00  0.00     0.026 A 
HETATM    6 CL   UNL     1      64.722   5.511   2.518  1.00  0.00    -0.083 Cl
HETATM    7  C   UNL     1      63.823   9.224   4.940  1.00  0.00     0.009 A 
HETATM    8 CL   UNL     1      66.692   6.448   4.932  1.00  0.00    -0.083 Cl
ENDROOT
BRANCH   4   9
HETATM    9  C   UNL     1      61.697   9.600   3.624  1.00  0.00     0.151 C 
BRANCH   9  10
HETATM   10  C   UNL     1      61.912  11.092   3.542  1.00  0.00     0.176 C 
HETATM   11  O   UNL     1      61.959  11.896   4.457  1.00  0.00    -0.648 OA
HETATM   12  O   UNL     1      62.064  11.511   2.268  1.00  0.00    -0.648 OA
ENDBRANCH   9  10
ENDBRANCH   4   9
TORSDOF 2
ENDMDL
MODEL 4
REMARK VINA RESULT:      -4.5      3.838      5.148
REMARK  2 active torsions:
REMARK  status: ('A' for Active; 'I' for Inactive)
REMARK    1  A    between atoms: C_2  and  C_7 
REMARK    2  A    between atoms: C_5  and  C_7 
ROOT
HETATM    1  C   UNL     1      65.684   7.663   5.669  1.00  0.00     0.056 A 
HETATM    2  C   UNL     1      65.014   6.744   6.482  1.00  0.00     0.055 A 
HETATM    3  C   UNL     1      64.955   8.591   4.915  1.00  0.00     0.033 A 
HETATM    4  C   UNL     1      63.552   8.611   4.971  1.00  0.00    -0.046 A 
HETATM    5  C   UNL     1      63.618   6.762   6.543  1.00  0.00     0.026 A 
HETATM    6 CL   UNL     1      67.407   7.707   5.545  1.00  0.00    -0.083 Cl
HETATM    7  C   UNL     1      62.891   7.689   5.791  1.00  0.00     0.009 A 
HETATM    8 CL   UNL     1      65.846   5.563   7.429  1.00  0.00    -0.083 Cl
ENDROOT
BRANCH   4   9
HETATM    9  C   UNL     1      62.765   9.578   4.116  1.00  0.00     0.151 C 
BRANCH   9  10
HETATM   10  C   UNL     1      62.499  10.900   4.795  1.00  0.00     0.176 C 
HETATM   11  O   UNL     1      61.927  11.877   4.342  1.00  0.00    -0.648 OA
HETATM   12  O   UNL     1      62.982  10.926   6.055  1.00  0.00    -0.648 OA
ENDBRANCH   9  10
ENDBRANCH   4   9
TORSDOF 2
ENDMDL
MODEL 5
REMARK VINA RESULT:      -4.4      2.723      3.592
REMARK  2 active torsions:
REMARK  status: ('A' for Active; 'I' for Inactive)
REMARK    1  A    between atoms: C_2  and  C_7 
REMARK    2  A    between atoms: C_5  and  C_7 
ROOT
HETATM    1  C   UNL     1      60.749   7.359   2.761  1.00  0.00     0.056 A 
HETATM    2  C   UNL     1      60.697   8.034   1.537  1.00  0.00     0.055 A 
HETATM    3  C   UNL     1      61.531   7.867   3.806  1.00  0.00     0.033 A 
HETATM    4  C   UNL     1      62.264   9.052   3.638  1.00  0.00    -0.046 A 
HETATM    5  C   UNL     1      61.422   9.216   1.367  1.00  0.00     0.026 A 
HETATM    6 CL   UNL     1      59.877   5.896   3.050  1.00  0.00    -0.083 Cl
HETATM    7  C   UNL     1      62.202   9.723   2.410  1.00  0.00     0.009 A 
HETATM    8 CL   UNL     1      59.765   7.461   0.200  1.00  0.00    -0.083 Cl
ENDROOT
BRANCH   4   9
HETATM    9  C   UNL     1      63.149   9.570   4.749  1.00  0.00     0.151 C 
BRANCH   9  10
HETATM   10  C   UNL     1      62.773  10.954   5.220  1.00  0.00     0.176 C 
HETATM   11  O   UNL     1      62.020  11.751   4.688  1.00  0.00    -0.648 OA
HETATM   12  O   UNL     1      63.385  11.275   6.380  1.00  0.00    -0.648 OA
ENDBRANCH   9  10
ENDBRANCH   4   9
TORSDOF 2
ENDMDL
MODEL 6
REMARK VINA RESULT:      -4.1      1.798      2.398
REMARK  2 active torsions:
REMARK  status: ('A' for Active; 'I' for Inactive)
REMARK    1  A    between atoms: C_2  and  C_7 
REMARK    2  A    between atoms: C_5  and  C_7 
ROOT
HETATM    1  C   UNL     1      63.582   7.324   2.974  1.00  0.00     0.056 A 
HETATM    2  C   UNL     1      62.675   8.386   3.040  1.00  0.00     0.055 A 
HETATM    3  C   UNL     1      64.624   7.236   3.905  1.00  0.00     0.033 A 
HETATM    4  C   UNL     1      64.766   8.205   4.911  1.00  0.00    -0.046 A 
HETATM    5  C   UNL     1      62.811   9.352   4.041  1.00  0.00     0.026 A 
HETATM    6 CL   UNL     1      63.476   6.089   1.770  1.00  0.00    -0.083 Cl
HETATM    7  C   UNL     1      63.850   9.263   4.971  1.00  0.00     0.009 A 
HETATM    8 CL   UNL     1      61.373   8.567   1.919  1.00  0.00    -0.083 Cl
ENDROOT
BRANCH   4   9
HETATM    9  C   UNL     1      65.923   8.138   5.882  1.00  0.00     0.151 C 
BRANCH   9  10
HETATM   10  C   UNL     1      65.884   6.924   6.778  1.00  0.00     0.176 C 
HETATM   11  O   UNL     1      66.672   5.994   6.820  1.00  0.00    -0.648 OA
HETATM   12  O   UNL     1      64.818   6.942   7.606  1.00  0.00    -0.648 OA
ENDBRANCH   9  10
ENDBRANCH   4   9
TORSDOF 2
ENDMDL
MODEL 7
REMARK VINA RESULT:      -4.0      3.009      4.241
REMARK  2 active torsions:
REMARK  status: ('A' for Active; 'I' for Inactive)
REMARK    1  A    between atoms: C_2  and  C_7 
REMARK    2  A    between atoms: C_5  and  C_7 
ROOT
HETATM    1  C   UNL     1      63.296   7.058   6.096  1.00  0.00     0.056 A 
HETATM    2  C   UNL     1      63.467   8.128   5.212  1.00  0.00     0.055 A 
HETATM    3  C   UNL     1      64.401   6.529   6.774  1.00  0.00     0.033 A 
HETATM    4  C   UNL     1      65.683   7.066   6.578  1.00  0.00    -0.046 A 
HETATM    5  C   UNL     1      64.741   8.667   5.016  1.00  0.00     0.026 A 
HETATM    6 CL   UNL     1      61.753   6.341   6.395  1.00  0.00    -0.083 Cl
HETATM    7  C   UNL     1      65.843   8.140   5.693  1.00  0.00     0.009 A 
HETATM    8 CL   UNL     1      62.154   8.823   4.331  1.00  0.00    -0.083 Cl
ENDROOT
BRANCH   4   9
HETATM    9  C   UNL     1      66.882   6.459   7.271  1.00  0.00     0.151 C 
BRANCH   9  10
HETATM   10  C   UNL     1      66.542   5.783   8.577  1.00  0.00     0.176 C 
HETATM   11  O   UNL     1      66.324   4.600   8.777  1.00  0.00    -0.648 OA
HETATM   12  O   UNL     1      66.492   6.660   9.601  1.00  0.00    -0.648 OA
ENDBRANCH   9  10
ENDBRANCH   4   9
TORSDOF 2
ENDMDL
MODEL 8
REMARK VINA RESULT:      -3.8      1.693      2.480
REMARK  2 active torsions:
REMARK  status: ('A' for Active; 'I' for Inactive)
REMARK    1  A    between atoms: C_2  and  C_7 
REMARK    2  A    between atoms: C_5  and  C_7 
ROOT
HETATM    1  C   UNL     1      61.815   8.738   2.325  1.00  0.00     0.056 A 
HETATM    2  C   UNL     1      60.652   7.962   2.291  1.00  0.00     0.055 A 
HETATM    3  C   UNL     1      62.681   8.651   3.421  1.00  0.00     0.033 A 
HETATM    4  C   UNL     1      62.396   7.785   4.489  1.00  0.00    -0.046 A 
HETATM    5  C   UNL     1      60.366   7.097   3.350  1.00  0.00     0.026 A 
HETATM    6 CL   UNL     1      62.240   9.826   1.051  1.00  0.00    -0.083 Cl
HETATM    7  C   UNL     1      61.231   7.009   4.443  1.00  0.00     0.009 A 
HETATM    8 CL   UNL     1      59.531   8.027   0.978  1.00  0.00    -0.083 Cl
ENDROOT
BRANCH   4   9
HETATM    9  C   UNL     1      63.305   7.731   5.696  1.00  0.00     0.151 C 
BRANCH   9  10
HETATM   10  C   UNL     1      64.706   8.220   5.414  1.00  0.00     0.176 C 
HETATM   11  O   UNL     1      65.195   9.301   5.693  1.00  0.00    -0.648 OA
HETATM   12  O   UNL     1      65.445   7.291   4.773  1.00  0.00    -0.648 OA
ENDBRANCH   9  10
ENDBRANCH   4   9
TORSDOF 2
ENDMDL
MODEL 9
REMARK VINA RESULT:      -3.8      3.874      4.788
REMARK  2 active torsions:
REMARK  status: ('A' for Active; 'I' for Inactive)
REMARK    1  A    between atoms: C_2  and  C_7 
REMARK    2  A    between atoms: C_5  and  C_7 
ROOT
HETATM    1  C   UNL     1      61.091   6.291   5.404  1.00  0.00     0.056 A 
HETATM    2  C   UNL     1      59.980   6.232   4.557  1.00  0.00     0.055 A 
HETATM    3  C   UNL     1      62.035   7.313   5.250  1.00  0.00     0.033 A 
HETATM    4  C   UNL     1      61.875   8.288   4.252  1.00  0.00    -0.046 A 
HETATM    5  C   UNL     1      59.815   7.202   3.564  1.00  0.00     0.026 A 
HETATM    6 CL   UNL     1      61.362   5.133   6.658  1.00  0.00    -0.083 Cl
HETATM    7  C   UNL     1      60.757   8.223   3.410  1.00  0.00     0.009 A 
HETATM    8 CL   UNL     1      58.783   4.993   4.680  1.00  0.00    -0.083 Cl
ENDROOT
BRANCH   4   9
HETATM    9  C   UNL     1      62.922   9.360   4.052  1.00  0.00     0.151 C 
BRANCH   9  10
HETATM   10  C   UNL     1      62.675  10.600   4.877  1.00  0.00     0.176 C 
HETATM   11  O   UNL     1      63.084  10.851   5.998  1.00  0.00    -0.648 OA
HETATM   12  O   UNL     1      61.900  11.493   4.226  1.00  0.00    -0.648 OA
ENDBRANCH   9  10
ENDBRANCH   4   9
TORSDOF 2
ENDMDL
