MODEL 1
REMARK VINA RESULT:      -4.0      0.000      0.000
REMARK  2 active torsions:
REMARK  status: ('A' for Active; 'I' for Inactive)
REMARK    1  A    between atoms: C_2  and  N_4 
REMARK    2  A    between atoms: C_3  and  O_5 
ROOT
HETATM    1  C   UNL     1      63.466   9.381   5.036  1.00  0.00     0.065 A 
HETATM    2  C   UNL     1      63.016  10.693   5.232  1.00  0.00     0.028 A 
HETATM    3  C   UNL     1      63.161   8.687   3.862  1.00  0.00     0.070 A 
HETATM    4  C   UNL     1      61.859  10.582   3.104  1.00  0.00     0.005 A 
HETATM    5  C   UNL     1      62.171  11.267   4.279  1.00  0.00     0.029 A 
HETATM    6  C   UNL     1      62.359   9.298   2.896  1.00  0.00     0.037 A 
ENDROOT
BRANCH   2   7
HETATM    7  N   UNL     1      63.214  11.326   6.467  1.00  0.00    -0.399 N 
HETATM    8  H   UNL     1      62.984  12.277   6.576  1.00  0.00     0.156 HD
HETATM    9  H   UNL     1      63.585  10.819   7.226  1.00  0.00     0.156 HD
ENDBRANCH   2   7
BRANCH   3  10
HETATM   10  O   UNL     1      63.566   7.417   3.550  1.00  0.00    -0.356 OA
HETATM   11  C   UNL     1      64.841   7.016   4.036  1.00  0.00     0.210 C 
ENDBRANCH   3  10
TORSDOF 2
ENDMDL
MODEL 2
REMARK VINA RESULT:      -4.0      1.554      2.683
REMARK  2 active torsions:
REMARK  status: ('A' for Active; 'I' for Inactive)
REMARK    1  A    between atoms: C_2  and  N_4 
REMARK    2  A    between atoms: C_3  and  O_5 
ROOT
HETATM    1  C   UNL     1      62.221  10.656   3.950  1.00  0.00     0.065 A 
HETATM    2  C   UNL     1      62.973  10.375   5.097  1.00  0.00     0.028 A 
HETATM    3  C   UNL     1      62.131   9.729   2.908  1.00  0.00     0.070 A 
HETATM    4  C   UNL     1      63.635   8.262   4.109  1.00  0.00     0.005 A 
HETATM    5  C   UNL     1      63.716   9.193   5.145  1.00  0.00     0.029 A 
HETATM    6  C   UNL     1      62.839   8.529   2.998  1.00  0.00     0.037 A 
ENDROOT
BRANCH   2   7
HETATM    7  N   UNL     1      63.164  11.365   6.071  1.00  0.00    -0.399 N 
HETATM    8  H   UNL     1      62.518  11.463   6.807  1.00  0.00     0.156 HD
HETATM    9  H   UNL     1      63.944  11.963   6.018  1.00  0.00     0.156 HD
ENDBRANCH   2   7
BRANCH   3  10
HETATM   10  O   UNL     1      61.409   9.883   1.755  1.00  0.00    -0.356 OA
HETATM   11  C   UNL     1      61.277   8.737   0.925  1.00  0.00     0.210 C 
ENDBRANCH   3  10
TORSDOF 2
ENDMDL
MODEL 3
REMARK VINA RESULT:      -4.0      2.159      2.779
REMARK  2 active torsions:
REMARK  status: ('A' for Active; 'I' for Inactive)
REMARK    1  A    between atoms: C_2  and  N_4 
REMARK    2  A    between atoms: C_3  and  O_5 
ROOT
HETATM    1  C   UNL     1      62.210  10.481   3.969  1.00  0.00     0.065 A 
HETATM    2  C   UNL     1      61.978  10.666   2.600  1.00  0.00     0.028 A 
HETATM    3  C   UNL     1      62.631   9.243   4.462  1.00  0.00     0.070 A 
HETATM    4  C   UNL     1      62.496   8.327   2.226  1.00  0.00     0.005 A 
HETATM    5  C   UNL     1      62.078   9.567   1.743  1.00  0.00     0.029 A 
HETATM    6  C   UNL     1      62.777   8.170   3.581  1.00  0.00     0.037 A 
ENDROOT
BRANCH   2   7
HETATM    7  N   UNL     1      61.428  11.870   2.138  1.00  0.00    -0.399 N 
HETATM    8  H   UNL     1      60.758  12.345   2.680  1.00  0.00     0.156 HD
HETATM    9  H   UNL     1      61.712  12.239   1.271  1.00  0.00     0.156 HD
ENDBRANCH   2   7
BRANCH   3  10
HETATM   10  O   UNL     1      62.913   8.953   5.771  1.00  0.00    -0.356 OA
HETATM   11  C   UNL     1      62.766   7.597   6.170  1.00  0.00     0.210 C 
ENDBRANCH   3  10
TORSDOF 2
ENDMDL
MODEL 4
REMARK VINA RESULT:      -4.0      2.069      3.317
REMARK  2 active torsions:
REMARK  status: ('A' for Active; 'I' for Inactive)
REMARK    1  A    between atoms: C_2  and  N_4 
REMARK    2  A    between atoms: C_3  and  O_5 
ROOT
HETATM    1  C   UNL     1      62.905   9.708   4.890  1.00  0.00     0.065 A 
HETATM    2  C   UNL     1      63.452   8.423   4.996  1.00  0.00     0.028 A 
HETATM    3  C   UNL     1      62.285  10.127   3.710  1.00  0.00     0.070 A 
HETATM    4  C   UNL     1      62.845   8.006   2.686  1.00  0.00     0.005 A 
HETATM    5  C   UNL     1      63.459   7.597   3.870  1.00  0.00     0.029 A 
HETATM    6  C   UNL     1      62.255   9.265   2.611  1.00  0.00     0.037 A 
ENDROOT
BRANCH   2   7
HETATM    7  N   UNL     1      64.188   8.065   6.135  1.00  0.00    -0.399 N 
HETATM    8  H   UNL     1      64.648   8.757   6.662  1.00  0.00     0.156 HD
HETATM    9  H   UNL     1      64.244   7.121   6.407  1.00  0.00     0.156 HD
ENDBRANCH   2   7
BRANCH   3  10
HETATM   10  O   UNL     1      61.695  11.344   3.500  1.00  0.00    -0.356 OA
HETATM   11  C   UNL     1      61.714  11.843   2.169  1.00  0.00     0.210 C 
ENDBRANCH   3  10
TORSDOF 2
ENDMDL
MODEL 5
REMARK VINA RESULT:      -4.0      2.162      2.689
REMARK  2 active torsions:
REMARK  status: ('A' for Active; 'I' for Inactive)
REMARK    1  A    between atoms: C_2  and  N_4 
REMARK    2  A    between atoms: C_3  and  O_5 
ROOT
HETATM    1  C   UNL     1      62.977   8.865   3.581  1.00  0.00     0.065 A 
HETATM    2  C   UNL     1      62.207   9.671   2.733  1.00  0.00     0.028 A 
HETATM    3  C   UNL     1      63.315   9.297   4.867  1.00  0.00     0.070 A 
HETATM    4  C   UNL     1      62.196  11.399   4.433  1.00  0.00     0.005 A 
HETATM    5  C   UNL     1      61.862  10.958   3.153  1.00  0.00     0.029 A 
HETATM    6  C   UNL     1      62.914  10.566   5.288  1.00  0.00     0.037 A 
ENDROOT
BRANCH   2   7
HETATM    7  N   UNL     1      61.991   9.284   1.402  1.00  0.00    -0.399 N 
HETATM    8  H   UNL     1      61.076   9.124   1.078  1.00  0.00     0.156 HD
HETATM    9  H   UNL     1      62.756   9.173   0.792  1.00  0.00     0.156 HD
ENDBRANCH   2   7
BRANCH   3  10
HETATM   10  O   UNL     1      64.037   8.588   5.789  1.00  0.00    -0.356 OA
HETATM   11  C   UNL     1      65.348   8.194   5.408  1.00  0.00     0.210 C 
ENDBRANCH   3  10
TORSDOF 2
ENDMDL
MODEL 6
REMARK VINA RESULT:      -3.9      2.645      3.595
REMARK  2 active torsions:
REMARK  status: ('A' for Active; 'I' for Inactive)
REMARK    1  A    between atoms: C_2  and  N_4 
REMARK    2  A    between atoms: C_3  and  O_5 
ROOT
HETATM    1  C   UNL     1      62.824   8.952   3.736  1.00  0.00     0.065 A 
HETATM    2  C   UNL     1      62.919   8.010   2.704  1.00  0.00     0.028 A 
HETATM    3  C   UNL     1      62.218  10.192   3.519  1.00  0.00     0.070 A 
HETATM    4  C   UNL     1      61.883   9.601   1.196  1.00  0.00     0.005 A 
HETATM    5  C   UNL     1      62.487   8.365   1.424  1.00  0.00     0.029 A 
HETATM    6  C   UNL     1      61.744  10.508   2.245  1.00  0.00     0.037 A 
ENDROOT
BRANCH   2   7
HETATM    7  N   UNL     1      63.647   6.827   2.898  1.00  0.00    -0.399 N 
HETATM    8  H   UNL     1      63.998   6.606   3.790  1.00  0.00     0.156 HD
HETATM    9  H   UNL     1      63.807   6.219   2.141  1.00  0.00     0.156 HD
ENDBRANCH   2   7
BRANCH   3  10
HETATM   10  O   UNL     1      62.045  11.177   4.455  1.00  0.00    -0.356 OA
HETATM   11  C   UNL     1      62.895  11.134   5.593  1.00  0.00     0.210 C 
ENDBRANCH   3  10
TORSDOF 2
ENDMDL
MODEL 7
REMARK VINA RESULT:      -3.9      1.904      2.618
REMARK  2 active torsions:
REMARK  status: ('A' for Active; 'I' for Inactive)
REMARK    1  A    between atoms: C_2  and  N_4 
REMARK    2  A    between atoms: C_3  and  O_5 
ROOT
HETATM    1  C   UNL     1      62.758   8.963   3.604  1.00  0.00     0.065 A 
HETATM    2  C   UNL     1      63.262   9.320   4.861  1.00  0.00     0.028 A 
HETATM    3  C   UNL     1      62.059   9.888   2.823  1.00  0.00     0.070 A 
HETATM    4  C   UNL     1      62.273  11.519   4.599  1.00  0.00     0.005 A 
HETATM    5  C   UNL     1      62.971  10.589   5.370  1.00  0.00     0.029 A 
HETATM    6  C   UNL     1      61.826  11.169   3.327  1.00  0.00     0.037 A 
ENDROOT
BRANCH   2   7
HETATM    7  N   UNL     1      63.840   8.347   5.688  1.00  0.00    -0.399 N 
HETATM    8  H   UNL     1      63.690   7.392   5.505  1.00  0.00     0.156 HD
HETATM    9  H   UNL     1      64.397   8.620   6.453  1.00  0.00     0.156 HD
ENDBRANCH   2   7
BRANCH   3  10
HETATM   10  O   UNL     1      61.546   9.661   1.575  1.00  0.00    -0.356 OA
HETATM   11  C   UNL     1      62.306   8.823   0.714  1.00  0.00     0.210 C 
ENDBRANCH   3  10
TORSDOF 2
ENDMDL
MODEL 8
REMARK VINA RESULT:      -3.9      2.135      3.046
REMARK  2 active torsions:
REMARK  status: ('A' for Active; 'I' for Inactive)
REMARK    1  A    between atoms: C_2  and  N_4 
REMARK    2  A    between atoms: C_3  and  O_5 
ROOT
HETATM    1  C   UNL     1      63.382   9.524   4.801  1.00  0.00     0.065 A 
HETATM    2  C   UNL     1      62.508   9.131   3.780  1.00  0.00     0.028 A 
HETATM    3  C   UNL     1      64.529   8.779   5.088  1.00  0.00     0.070 A 
HETATM    4  C   UNL     1      63.885   7.173   3.395  1.00  0.00     0.005 A 
HETATM    5  C   UNL     1      62.744   7.926   3.114  1.00  0.00     0.029 A 
HETATM    6  C   UNL     1      64.776   7.604   4.375  1.00  0.00     0.037 A 
ENDROOT
BRANCH   2   7
HETATM    7  N   UNL     1      61.295   9.811   3.593  1.00  0.00    -0.399 N 
HETATM    8  H   UNL     1      60.450   9.308   3.552  1.00  0.00     0.156 HD
HETATM    9  H   UNL     1      61.290  10.791   3.504  1.00  0.00     0.156 HD
ENDBRANCH   2   7
BRANCH   3  10
HETATM   10  O   UNL     1      65.465   9.079   6.040  1.00  0.00    -0.356 OA
HETATM   11  C   UNL     1      66.432   8.077   6.324  1.00  0.00     0.210 C 
ENDBRANCH   3  10
TORSDOF 2
ENDMDL
MODEL 9
REMARK VINA RESULT:      -3.9      1.483      2.111
REMARK  2 active torsions:
REMARK  status: ('A' for Active; 'I' for Inactive)
REMARK    1  A    between atoms: C_2  and  N_4 
REMARK    2  A    between atoms: C_3  and  O_5 
ROOT
HETATM    1  C   UNL     1      62.845   9.018   3.733  1.00  0.00     0.065 A 
HETATM    2  C   UNL     1      62.716  10.172   4.516  1.00  0.00     0.028 A 
HETATM    3  C   UNL     1      62.463   9.019   2.389  1.00  0.00     0.070 A 
HETATM    4  C   UNL     1      61.718  11.310   2.622  1.00  0.00     0.005 A 
HETATM    5  C   UNL     1      62.105  11.300   3.963  1.00  0.00     0.029 A 
HETATM    6  C   UNL     1      61.903  10.174   1.839  1.00  0.00     0.037 A 
ENDROOT
BRANCH   2   7
HETATM    7  N   UNL     1      62.976  10.118   5.893  1.00  0.00    -0.399 N 
HETATM    8  H   UNL     1      63.182  10.944   6.388  1.00  0.00     0.156 HD
HETATM    9  H   UNL     1      62.954   9.254   6.364  1.00  0.00     0.156 HD
ENDBRANCH   2   7
BRANCH   3  10
HETATM   10  O   UNL     1      62.567   7.964   1.523  1.00  0.00    -0.356 OA
HETATM   11  C   UNL     1      61.675   7.955   0.416  1.00  0.00     0.210 C 
ENDBRANCH   3  10
TORSDOF 2
ENDMDL
