MODEL 1
REMARK VINA RESULT:      -4.9      0.000      0.000
REMARK  3 active torsions:
REMARK  status: ('A' for Active; 'I' for Inactive)
REMARK    1  A    between atoms: C_1  and  O_2 
REMARK    2  A    between atoms: O_2  and  C_3 
REMARK    3  A    between atoms: C_4  and  N_8 
ROOT
HETATM    1  C   UNL     1      63.118   9.254   4.875  1.00  0.00     0.104 A 
HETATM    2  C   UNL     1      62.850  10.612   5.141  1.00  0.00     0.059 A 
HETATM    3  C   UNL     1      62.764   8.702   3.642  1.00  0.00     0.039 A 
HETATM    4  C   UNL     1      62.210  11.384   4.166  1.00  0.00     0.032 A 
HETATM    5  C   UNL     1      62.083   9.472   2.701  1.00  0.00     0.003 A 
HETATM    6  C   UNL     1      61.790  10.809   2.967  1.00  0.00     0.002 A 
ENDROOT
BRANCH   1   7
HETATM    7  O   UNL     1      63.723   8.570   5.899  1.00  0.00    -0.253 OA
BRANCH   7   8
HETATM    8  C   UNL     1      64.909   7.855   5.590  1.00  0.00     0.530 C 
HETATM    9  F   UNL     1      64.677   6.661   5.007  1.00  0.00    -0.144 F 
HETATM   10  F   UNL     1      65.575   7.620   6.744  1.00  0.00    -0.144 F 
HETATM   11  F   UNL     1      65.702   8.596   4.789  1.00  0.00    -0.144 F 
ENDBRANCH   7   8
ENDBRANCH   1   7
BRANCH   2  12
HETATM   12  N   UNL     1      63.398  11.248   6.269  1.00  0.00    -0.397 N 
HETATM   13  H   UNL     1      62.903  11.256   7.119  1.00  0.00     0.156 HD
HETATM   14  H   UNL     1      64.278  11.686   6.207  1.00  0.00     0.156 HD
ENDBRANCH   2  12
TORSDOF 3
ENDMDL
MODEL 2
REMARK VINA RESULT:      -4.9      1.054      1.314
REMARK  3 active torsions:
REMARK  status: ('A' for Active; 'I' for Inactive)
REMARK    1  A    between atoms: C_1  and  O_2 
REMARK    2  A    between atoms: O_2  and  C_3 
REMARK    3  A    between atoms: C_4  and  N_8 
ROOT
HETATM    1  C   UNL     1      63.405   9.298   4.789  1.00  0.00     0.104 A 
HETATM    2  C   UNL     1      63.005  10.598   5.155  1.00  0.00     0.059 A 
HETATM    3  C   UNL     1      63.013   8.768   3.558  1.00  0.00     0.039 A 
HETATM    4  C   UNL     1      62.197  11.334   4.282  1.00  0.00     0.032 A 
HETATM    5  C   UNL     1      62.168   9.494   2.722  1.00  0.00     0.003 A 
HETATM    6  C   UNL     1      61.746  10.772   3.089  1.00  0.00     0.002 A 
ENDROOT
BRANCH   1   7
HETATM    7  O   UNL     1      64.172   8.643   5.720  1.00  0.00    -0.253 OA
BRANCH   7   8
HETATM    8  C   UNL     1      63.705   7.383   6.175  1.00  0.00     0.530 C 
HETATM    9  F   UNL     1      62.424   7.407   6.595  1.00  0.00    -0.144 F 
HETATM   10  F   UNL     1      64.468   7.002   7.225  1.00  0.00    -0.144 F 
HETATM   11  F   UNL     1      63.839   6.460   5.200  1.00  0.00    -0.144 F 
ENDBRANCH   7   8
ENDBRANCH   1   7
BRANCH   2  12
HETATM   12  N   UNL     1      63.571  11.241   6.271  1.00  0.00    -0.397 N 
HETATM   13  H   UNL     1      64.506  11.062   6.519  1.00  0.00     0.156 HD
HETATM   14  H   UNL     1      63.031  11.869   6.803  1.00  0.00     0.156 HD
ENDBRANCH   2  12
TORSDOF 3
ENDMDL
MODEL 3
REMARK VINA RESULT:      -4.5      1.974      2.697
REMARK  3 active torsions:
REMARK  status: ('A' for Active; 'I' for Inactive)
REMARK    1  A    between atoms: C_1  and  O_2 
REMARK    2  A    between atoms: O_2  and  C_3 
REMARK    3  A    between atoms: C_4  and  N_8 
ROOT
HETATM    1  C   UNL     1      62.469   9.207   3.808  1.00  0.00     0.104 A 
HETATM    2  C   UNL     1      62.390   8.885   2.438  1.00  0.00     0.059 A 
HETATM    3  C   UNL     1      62.178  10.503   4.237  1.00  0.00     0.039 A 
HETATM    4  C   UNL     1      62.041   9.883   1.522  1.00  0.00     0.032 A 
HETATM    5  C   UNL     1      61.880  11.497   3.307  1.00  0.00     0.003 A 
HETATM    6  C   UNL     1      61.826  11.193   1.948  1.00  0.00     0.002 A 
ENDROOT
BRANCH   1   7
HETATM    7  O   UNL     1      62.845   8.172   4.627  1.00  0.00    -0.253 OA
BRANCH   7   8
HETATM    8  C   UNL     1      64.196   8.144   5.058  1.00  0.00     0.530 C 
HETATM    9  F   UNL     1      64.714   9.371   5.273  1.00  0.00    -0.144 F 
HETATM   10  F   UNL     1      64.938   7.555   4.092  1.00  0.00    -0.144 F 
HETATM   11  F   UNL     1      64.308   7.409   6.183  1.00  0.00    -0.144 F 
ENDBRANCH   7   8
ENDBRANCH   1   7
BRANCH   2  12
HETATM   12  N   UNL     1      62.448   7.547   2.006  1.00  0.00    -0.397 N 
HETATM   13  H   UNL     1      63.230   7.226   1.504  1.00  0.00     0.156 HD
HETATM   14  H   UNL     1      61.704   6.933   2.208  1.00  0.00     0.156 HD
ENDBRANCH   2  12
TORSDOF 3
ENDMDL
MODEL 4
REMARK VINA RESULT:      -4.3      2.668      4.702
REMARK  3 active torsions:
REMARK  status: ('A' for Active; 'I' for Inactive)
REMARK    1  A    between atoms: C_1  and  O_2 
REMARK    2  A    between atoms: O_2  and  C_3 
REMARK    3  A    between atoms: C_4  and  N_8 
ROOT
HETATM    1  C   UNL     1      66.004   7.812   5.066  1.00  0.00     0.104 A 
HETATM    2  C   UNL     1      66.898   7.631   6.140  1.00  0.00     0.059 A 
HETATM    3  C   UNL     1      65.838   6.800   4.118  1.00  0.00     0.039 A 
HETATM    4  C   UNL     1      67.627   6.440   6.226  1.00  0.00     0.032 A 
HETATM    5  C   UNL     1      66.607   5.641   4.192  1.00  0.00     0.003 A 
HETATM    6  C   UNL     1      67.514   5.465   5.236  1.00  0.00     0.002 A 
ENDROOT
BRANCH   1   7
HETATM    7  O   UNL     1      65.355   9.021   5.049  1.00  0.00    -0.253 OA
BRANCH   7   8
HETATM    8  C   UNL     1      63.936   8.996   5.041  1.00  0.00     0.530 C 
HETATM    9  F   UNL     1      63.412   8.781   3.818  1.00  0.00    -0.144 F 
HETATM   10  F   UNL     1      63.489  10.199   5.468  1.00  0.00    -0.144 F 
HETATM   11  F   UNL     1      63.486   8.052   5.893  1.00  0.00    -0.144 F 
ENDBRANCH   7   8
ENDBRANCH   1   7
BRANCH   2  12
HETATM   12  N   UNL     1      66.913   8.525   7.226  1.00  0.00    -0.397 N 
HETATM   13  H   UNL     1      67.318   9.416   7.124  1.00  0.00     0.156 HD
HETATM   14  H   UNL     1      66.518   8.258   8.087  1.00  0.00     0.156 HD
ENDBRANCH   2  12
TORSDOF 3
ENDMDL
MODEL 5
REMARK VINA RESULT:      -4.2      3.484      4.322
REMARK  3 active torsions:
REMARK  status: ('A' for Active; 'I' for Inactive)
REMARK    1  A    between atoms: C_1  and  O_2 
REMARK    2  A    between atoms: O_2  and  C_3 
REMARK    3  A    between atoms: C_4  and  N_8 
ROOT
HETATM    1  C   UNL     1      62.396   9.400   2.896  1.00  0.00     0.104 A 
HETATM    2  C   UNL     1      62.049  10.744   3.140  1.00  0.00     0.059 A 
HETATM    3  C   UNL     1      62.948   8.625   3.918  1.00  0.00     0.039 A 
HETATM    4  C   UNL     1      62.287  11.289   4.407  1.00  0.00     0.032 A 
HETATM    5  C   UNL     1      63.223   9.197   5.157  1.00  0.00     0.003 A 
HETATM    6  C   UNL     1      62.908  10.533   5.400  1.00  0.00     0.002 A 
ENDROOT
BRANCH   1   7
HETATM    7  O   UNL     1      62.152   8.961   1.618  1.00  0.00    -0.253 OA
BRANCH   7   8
HETATM    8  C   UNL     1      61.117   8.006   1.447  1.00  0.00     0.530 C 
HETATM    9  F   UNL     1      61.554   6.731   1.489  1.00  0.00    -0.144 F 
HETATM   10  F   UNL     1      60.556   8.202   0.232  1.00  0.00    -0.144 F 
HETATM   11  F   UNL     1      60.163   8.183   2.384  1.00  0.00    -0.144 F 
ENDBRANCH   7   8
ENDBRANCH   1   7
BRANCH   2  12
HETATM   12  N   UNL     1      61.285  11.473   2.212  1.00  0.00    -0.397 N 
HETATM   13  H   UNL     1      61.576  12.371   1.933  1.00  0.00     0.156 HD
HETATM   14  H   UNL     1      60.459  11.085   1.842  1.00  0.00     0.156 HD
ENDBRANCH   2  12
TORSDOF 3
ENDMDL
MODEL 6
REMARK VINA RESULT:      -4.2      3.253      4.308
REMARK  3 active torsions:
REMARK  status: ('A' for Active; 'I' for Inactive)
REMARK    1  A    between atoms: C_1  and  O_2 
REMARK    2  A    between atoms: O_2  and  C_3 
REMARK    3  A    between atoms: C_4  and  N_8 
ROOT
HETATM    1  C   UNL     1      62.711   9.430   3.713  1.00  0.00     0.104 A 
HETATM    2  C   UNL     1      63.540   9.736   4.811  1.00  0.00     0.059 A 
HETATM    3  C   UNL     1      62.828   8.195   3.073  1.00  0.00     0.039 A 
HETATM    4  C   UNL     1      64.488   8.797   5.230  1.00  0.00     0.032 A 
HETATM    5  C   UNL     1      63.810   7.292   3.472  1.00  0.00     0.003 A 
HETATM    6  C   UNL     1      64.653   7.597   4.540  1.00  0.00     0.002 A 
ENDROOT
BRANCH   1   7
HETATM    7  O   UNL     1      61.831  10.422   3.357  1.00  0.00    -0.253 OA
BRANCH   7   8
HETATM    8  C   UNL     1      61.713  10.719   1.974  1.00  0.00     0.530 C 
HETATM    9  F   UNL     1      62.880  10.625   1.306  1.00  0.00    -0.144 F 
HETATM   10  F   UNL     1      61.276  11.993   1.850  1.00  0.00    -0.144 F 
HETATM   11  F   UNL     1      60.803   9.904   1.402  1.00  0.00    -0.144 F 
ENDBRANCH   7   8
ENDBRANCH   1   7
BRANCH   2  12
HETATM   12  N   UNL     1      63.290  10.864   5.613  1.00  0.00    -0.397 N 
HETATM   13  H   UNL     1      64.038  11.420   5.926  1.00  0.00     0.156 HD
HETATM   14  H   UNL     1      62.365  11.095   5.861  1.00  0.00     0.156 HD
ENDBRANCH   2  12
TORSDOF 3
ENDMDL
MODEL 7
REMARK VINA RESULT:      -4.1      3.143      5.500
REMARK  3 active torsions:
REMARK  status: ('A' for Active; 'I' for Inactive)
REMARK    1  A    between atoms: C_1  and  O_2 
REMARK    2  A    between atoms: O_2  and  C_3 
REMARK    3  A    between atoms: C_4  and  N_8 
ROOT
HETATM    1  C   UNL     1      66.600   7.562   5.989  1.00  0.00     0.104 A 
HETATM    2  C   UNL     1      67.098   6.511   5.193  1.00  0.00     0.059 A 
HETATM    3  C   UNL     1      66.699   7.490   7.380  1.00  0.00     0.039 A 
HETATM    4  C   UNL     1      67.667   5.395   5.816  1.00  0.00     0.032 A 
HETATM    5  C   UNL     1      67.222   6.350   7.985  1.00  0.00     0.003 A 
HETATM    6  C   UNL     1      67.693   5.294   7.206  1.00  0.00     0.002 A 
ENDROOT
BRANCH   1   7
HETATM    7  O   UNL     1      66.036   8.601   5.292  1.00  0.00    -0.253 OA
BRANCH   7   8
HETATM    8  C   UNL     1      64.623   8.605   5.163  1.00  0.00     0.530 C 
HETATM    9  F   UNL     1      64.007   7.754   6.009  1.00  0.00    -0.144 F 
HETATM   10  F   UNL     1      64.312   8.221   3.904  1.00  0.00    -0.144 F 
HETATM   11  F   UNL     1      64.144   9.851   5.355  1.00  0.00    -0.144 F 
ENDBRANCH   7   8
ENDBRANCH   1   7
BRANCH   2  12
HETATM   12  N   UNL     1      67.224   6.658   3.800  1.00  0.00    -0.397 N 
HETATM   13  H   UNL     1      67.546   5.906   3.253  1.00  0.00     0.156 HD
HETATM   14  H   UNL     1      66.991   7.514   3.373  1.00  0.00     0.156 HD
ENDBRANCH   2  12
TORSDOF 3
ENDMDL
MODEL 8
REMARK VINA RESULT:      -4.1      3.572      4.428
REMARK  3 active torsions:
REMARK  status: ('A' for Active; 'I' for Inactive)
REMARK    1  A    between atoms: C_1  and  O_2 
REMARK    2  A    between atoms: O_2  and  C_3 
REMARK    3  A    between atoms: C_4  and  N_8 
ROOT
HETATM    1  C   UNL     1      62.371   9.422   2.906  1.00  0.00     0.104 A 
HETATM    2  C   UNL     1      63.159   8.759   3.868  1.00  0.00     0.059 A 
HETATM    3  C   UNL     1      61.915  10.718   3.151  1.00  0.00     0.039 A 
HETATM    4  C   UNL     1      63.454   9.410   5.071  1.00  0.00     0.032 A 
HETATM    5  C   UNL     1      62.177  11.332   4.373  1.00  0.00     0.003 A 
HETATM    6  C   UNL     1      62.933  10.674   5.342  1.00  0.00     0.002 A 
ENDROOT
BRANCH   1   7
HETATM    7  O   UNL     1      62.110   8.696   1.770  1.00  0.00    -0.253 OA
BRANCH   7   8
HETATM    8  C   UNL     1      60.817   8.124   1.649  1.00  0.00     0.530 C 
HETATM    9  F   UNL     1      60.160   8.032   2.823  1.00  0.00    -0.144 F 
HETATM   10  F   UNL     1      60.952   6.870   1.161  1.00  0.00    -0.144 F 
HETATM   11  F   UNL     1      60.075   8.838   0.777  1.00  0.00    -0.144 F 
ENDBRANCH   7   8
ENDBRANCH   1   7
BRANCH   2  12
HETATM   12  N   UNL     1      63.821   7.558   3.557  1.00  0.00    -0.397 N 
HETATM   13  H   UNL     1      63.502   6.999   2.813  1.00  0.00     0.156 HD
HETATM   14  H   UNL     1      64.603   7.277   4.085  1.00  0.00     0.156 HD
ENDBRANCH   2  12
TORSDOF 3
ENDMDL
MODEL 9
REMARK VINA RESULT:      -3.9      4.391      5.240
REMARK  3 active torsions:
REMARK  status: ('A' for Active; 'I' for Inactive)
REMARK    1  A    between atoms: C_1  and  O_2 
REMARK    2  A    between atoms: O_2  and  C_3 
REMARK    3  A    between atoms: C_4  and  N_8 
ROOT
HETATM    1  C   UNL     1      66.202   6.282   6.657  1.00  0.00     0.104 A 
HETATM    2  C   UNL     1      66.010   7.357   5.767  1.00  0.00     0.059 A 
HETATM    3  C   UNL     1      66.874   5.135   6.230  1.00  0.00     0.039 A 
HETATM    4  C   UNL     1      66.480   7.247   4.454  1.00  0.00     0.032 A 
HETATM    5  C   UNL     1      67.292   5.021   4.906  1.00  0.00     0.003 A 
HETATM    6  C   UNL     1      67.081   6.070   4.012  1.00  0.00     0.002 A 
ENDROOT
BRANCH   1   7
HETATM    7  O   UNL     1      65.684   6.469   7.914  1.00  0.00    -0.253 OA
BRANCH   7   8
HETATM    8  C   UNL     1      66.557   6.259   9.014  1.00  0.00     0.530 C 
HETATM    9  F   UNL     1      67.772   6.818   8.845  1.00  0.00    -0.144 F 
HETATM   10  F   UNL     1      66.740   4.928   9.161  1.00  0.00    -0.144 F 
HETATM   11  F   UNL     1      65.999   6.736  10.145  1.00  0.00    -0.144 F 
ENDBRANCH   7   8
ENDBRANCH   1   7
BRANCH   2  12
HETATM   12  N   UNL     1      65.550   8.603   6.229  1.00  0.00    -0.397 N 
HETATM   13  H   UNL     1      64.584   8.771   6.313  1.00  0.00     0.156 HD
HETATM   14  H   UNL     1      66.195   9.307   6.469  1.00  0.00     0.156 HD
ENDBRANCH   2  12
TORSDOF 3
ENDMDL
