MODEL 1
REMARK VINA RESULT:      -5.0      0.000      0.000
REMARK  3 active torsions:
REMARK  status: ('A' for Active; 'I' for Inactive)
REMARK    1  A    between atoms: C_1  and  C_3 
REMARK       I    between atoms: C_1  and  N_4 
REMARK    2  A    between atoms: C_3  and  C_5 
REMARK    3  A    between atoms: C_6  and  O_11 
ROOT
HETATM    1  C   UNL     1      62.347   8.844   3.774  1.00  0.00    -0.049 A 
HETATM    2  C   UNL     1      61.934  11.218   2.359  1.00  0.00     0.065 A 
HETATM    3  C   UNL     1      62.242  10.066   4.453  1.00  0.00     0.010 A 
HETATM    4  C   UNL     1      62.249   8.831   2.374  1.00  0.00     0.010 A 
HETATM    5  C   UNL     1      62.038  10.017   1.666  1.00  0.00     0.037 A 
HETATM    6  C   UNL     1      62.035  11.251   3.745  1.00  0.00     0.037 A 
ENDROOT
BRANCH   1   7
HETATM    7  C   UNL     1      62.583   7.561   4.537  1.00  0.00     0.141 C 
BRANCH   7   8
HETATM    8  C   UNL     1      63.231   7.774   5.891  1.00  0.00     0.219 C 
HETATM    9  O   UNL     1      62.609   7.737   6.950  1.00  0.00    -0.273 OA
HETATM   10  N   UNL     1      64.582   7.964   5.881  1.00  0.00    -0.370 N 
HETATM   11  H   UNL     1      65.066   8.109   6.725  1.00  0.00     0.159 HD
HETATM   12  H   UNL     1      65.073   7.956   5.027  1.00  0.00     0.159 HD
ENDBRANCH   7   8
ENDBRANCH   1   7
BRANCH   2  13
HETATM   13  O   UNL     1      61.735  12.400   1.709  1.00  0.00    -0.361 OA
HETATM   14  H   UNL     1      60.864  12.687   1.516  1.00  0.00     0.217 HD
ENDBRANCH   2  13
TORSDOF 3
ENDMDL
MODEL 2
REMARK VINA RESULT:      -4.9      2.994      4.094
REMARK  3 active torsions:
REMARK  status: ('A' for Active; 'I' for Inactive)
REMARK    1  A    between atoms: C_1  and  C_3 
REMARK       I    between atoms: C_1  and  N_4 
REMARK    2  A    between atoms: C_3  and  C_5 
REMARK    3  A    between atoms: C_6  and  O_11 
ROOT
HETATM    1  C   UNL     1      62.229   9.714   2.543  1.00  0.00    -0.049 A 
HETATM    2  C   UNL     1      62.758  10.543   5.158  1.00  0.00     0.065 A 
HETATM    3  C   UNL     1      61.845  10.992   2.975  1.00  0.00     0.010 A 
HETATM    4  C   UNL     1      62.875   8.855   3.445  1.00  0.00     0.010 A 
HETATM    5  C   UNL     1      63.144   9.270   4.752  1.00  0.00     0.037 A 
HETATM    6  C   UNL     1      62.111  11.404   4.281  1.00  0.00     0.037 A 
ENDROOT
BRANCH   1   7
HETATM    7  C   UNL     1      61.932   9.261   1.132  1.00  0.00     0.141 C 
BRANCH   7   8
HETATM    8  C   UNL     1      60.855   8.196   1.054  1.00  0.00     0.219 C 
HETATM    9  O   UNL     1      61.097   6.996   0.959  1.00  0.00    -0.273 OA
HETATM   10  N   UNL     1      59.569   8.644   1.145  1.00  0.00    -0.370 N 
HETATM   11  H   UNL     1      58.820   8.006   1.101  1.00  0.00     0.159 HD
HETATM   12  H   UNL     1      59.389   9.606   1.256  1.00  0.00     0.159 HD
ENDBRANCH   7   8
ENDBRANCH   1   7
BRANCH   2  13
HETATM   13  O   UNL     1      62.995  10.986   6.426  1.00  0.00    -0.361 OA
HETATM   14  H   UNL     1      63.774  10.724   6.876  1.00  0.00     0.217 HD
ENDBRANCH   2  13
TORSDOF 3
ENDMDL
MODEL 3
REMARK VINA RESULT:      -4.8      3.088      4.076
REMARK  3 active torsions:
REMARK  status: ('A' for Active; 'I' for Inactive)
REMARK    1  A    between atoms: C_1  and  C_3 
REMARK       I    between atoms: C_1  and  N_4 
REMARK    2  A    between atoms: C_3  and  C_5 
REMARK    3  A    between atoms: C_6  and  O_11 
ROOT
HETATM    1  C   UNL     1      62.112   9.680   2.513  1.00  0.00    -0.049 A 
HETATM    2  C   UNL     1      62.772  10.787   4.993  1.00  0.00     0.065 A 
HETATM    3  C   UNL     1      62.810   8.923   3.466  1.00  0.00     0.010 A 
HETATM    4  C   UNL     1      61.758  11.003   2.820  1.00  0.00     0.010 A 
HETATM    5  C   UNL     1      62.083  11.556   4.060  1.00  0.00     0.037 A 
HETATM    6  C   UNL     1      63.137   9.478   4.704  1.00  0.00     0.037 A 
ENDROOT
BRANCH   1   7
HETATM    7  C   UNL     1      61.767   9.086   1.167  1.00  0.00     0.141 C 
BRANCH   7   8
HETATM    8  C   UNL     1      60.633   8.080   1.223  1.00  0.00     0.219 C 
HETATM    9  O   UNL     1      60.804   6.881   1.430  1.00  0.00    -0.273 OA
HETATM   10  N   UNL     1      59.377   8.591   1.078  1.00  0.00    -0.370 N 
HETATM   11  H   UNL     1      58.595   7.994   1.104  1.00  0.00     0.159 HD
HETATM   12  H   UNL     1      59.251   9.560   0.948  1.00  0.00     0.159 HD
ENDBRANCH   7   8
ENDBRANCH   1   7
BRANCH   2  13
HETATM   13  O   UNL     1      63.115  11.288   6.213  1.00  0.00    -0.361 OA
HETATM   14  H   UNL     1      63.983  11.165   6.543  1.00  0.00     0.217 HD
ENDBRANCH   2  13
TORSDOF 3
ENDMDL
MODEL 4
REMARK VINA RESULT:      -4.8      1.917      2.526
REMARK  3 active torsions:
REMARK  status: ('A' for Active; 'I' for Inactive)
REMARK    1  A    between atoms: C_1  and  C_3 
REMARK       I    between atoms: C_1  and  N_4 
REMARK    2  A    between atoms: C_3  and  C_5 
REMARK    3  A    between atoms: C_6  and  O_11 
ROOT
HETATM    1  C   UNL     1      63.500   8.749   4.803  1.00  0.00    -0.049 A 
HETATM    2  C   UNL     1      62.001  10.641   3.395  1.00  0.00     0.065 A 
HETATM    3  C   UNL     1      63.014   8.458   3.520  1.00  0.00     0.010 A 
HETATM    4  C   UNL     1      63.216  10.000   5.372  1.00  0.00     0.010 A 
HETATM    5  C   UNL     1      62.471  10.948   4.668  1.00  0.00     0.037 A 
HETATM    6  C   UNL     1      62.267   9.405   2.819  1.00  0.00     0.037 A 
ENDROOT
BRANCH   1   7
HETATM    7  C   UNL     1      64.300   7.722   5.571  1.00  0.00     0.141 C 
BRANCH   7   8
HETATM    8  C   UNL     1      65.765   8.083   5.718  1.00  0.00     0.219 C 
HETATM    9  O   UNL     1      66.461   8.475   4.785  1.00  0.00    -0.273 OA
HETATM   10  N   UNL     1      66.275   7.997   6.981  1.00  0.00    -0.370 N 
HETATM   11  H   UNL     1      67.220   8.217   7.147  1.00  0.00     0.159 HD
HETATM   12  H   UNL     1      65.697   7.715   7.727  1.00  0.00     0.159 HD
ENDBRANCH   7   8
ENDBRANCH   1   7
BRANCH   2  13
HETATM   13  O   UNL     1      61.265  11.533   2.675  1.00  0.00    -0.361 OA
HETATM   14  H   UNL     1      60.391  11.317   2.413  1.00  0.00     0.217 HD
ENDBRANCH   2  13
TORSDOF 3
ENDMDL
MODEL 5
REMARK VINA RESULT:      -4.3      2.241      4.977
REMARK  3 active torsions:
REMARK  status: ('A' for Active; 'I' for Inactive)
REMARK    1  A    between atoms: C_1  and  C_3 
REMARK       I    between atoms: C_1  and  N_4 
REMARK    2  A    between atoms: C_3  and  C_5 
REMARK    3  A    between atoms: C_6  and  O_11 
ROOT
HETATM    1  C   UNL     1      63.279   8.633   5.011  1.00  0.00    -0.049 A 
HETATM    2  C   UNL     1      65.044   6.879   6.283  1.00  0.00     0.065 A 
HETATM    3  C   UNL     1      64.654   8.688   4.741  1.00  0.00     0.010 A 
HETATM    4  C   UNL     1      62.803   7.689   5.935  1.00  0.00     0.010 A 
HETATM    5  C   UNL     1      63.684   6.809   6.568  1.00  0.00     0.037 A 
HETATM    6  C   UNL     1      65.533   7.811   5.377  1.00  0.00     0.037 A 
ENDROOT
BRANCH   1   7
HETATM    7  C   UNL     1      62.326   9.590   4.333  1.00  0.00     0.141 C 
BRANCH   7   8
HETATM    8  C   UNL     1      62.502  11.031   4.771  1.00  0.00     0.219 C 
HETATM    9  O   UNL     1      62.058  11.987   4.141  1.00  0.00    -0.273 OA
HETATM   10  N   UNL     1      63.153  11.216   5.956  1.00  0.00    -0.370 N 
HETATM   11  H   UNL     1      63.302  12.126   6.299  1.00  0.00     0.159 HD
HETATM   12  H   UNL     1      63.473  10.438   6.469  1.00  0.00     0.159 HD
ENDBRANCH   7   8
ENDBRANCH   1   7
BRANCH   2  13
HETATM   13  O   UNL     1      65.939   6.044   6.883  1.00  0.00    -0.361 OA
HETATM   14  H   UNL     1      66.480   6.360   7.579  1.00  0.00     0.217 HD
ENDBRANCH   2  13
TORSDOF 3
ENDMDL
MODEL 6
REMARK VINA RESULT:      -4.1      2.864      4.583
REMARK  3 active torsions:
REMARK  status: ('A' for Active; 'I' for Inactive)
REMARK    1  A    between atoms: C_1  and  C_3 
REMARK       I    between atoms: C_1  and  N_4 
REMARK    2  A    between atoms: C_3  and  C_5 
REMARK    3  A    between atoms: C_6  and  O_11 
ROOT
HETATM    1  C   UNL     1      63.106   7.773   3.219  1.00  0.00    -0.049 A 
HETATM    2  C   UNL     1      64.915   8.519   5.214  1.00  0.00     0.065 A 
HETATM    3  C   UNL     1      62.870   8.912   4.002  1.00  0.00     0.010 A 
HETATM    4  C   UNL     1      64.259   7.009   3.456  1.00  0.00     0.010 A 
HETATM    5  C   UNL     1      65.167   7.383   4.451  1.00  0.00     0.037 A 
HETATM    6  C   UNL     1      63.774   9.283   4.997  1.00  0.00     0.037 A 
ENDROOT
BRANCH   1   7
HETATM    7  C   UNL     1      62.122   7.361   2.148  1.00  0.00     0.141 C 
BRANCH   7   8
HETATM    8  C   UNL     1      61.644   8.517   1.290  1.00  0.00     0.219 C 
HETATM    9  O   UNL     1      62.377   9.137   0.524  1.00  0.00    -0.273 OA
HETATM   10  N   UNL     1      60.315   8.811   1.375  1.00  0.00    -0.370 N 
HETATM   11  H   UNL     1      59.938   9.549   0.845  1.00  0.00     0.159 HD
HETATM   12  H   UNL     1      59.731   8.283   1.967  1.00  0.00     0.159 HD
ENDBRANCH   7   8
ENDBRANCH   1   7
BRANCH   2  13
HETATM   13  O   UNL     1      65.769   8.917   6.199  1.00  0.00    -0.361 OA
HETATM   14  H   UNL     1      66.357   9.631   6.049  1.00  0.00     0.217 HD
ENDBRANCH   2  13
TORSDOF 3
ENDMDL
MODEL 7
REMARK VINA RESULT:      -4.1      2.119      2.615
REMARK  3 active torsions:
REMARK  status: ('A' for Active; 'I' for Inactive)
REMARK    1  A    between atoms: C_1  and  C_3 
REMARK       I    between atoms: C_1  and  N_4 
REMARK    2  A    between atoms: C_3  and  C_5 
REMARK    3  A    between atoms: C_6  and  O_11 
ROOT
HETATM    1  C   UNL     1      62.071   8.282   3.182  1.00  0.00    -0.049 A 
HETATM    2  C   UNL     1      61.952  10.929   2.293  1.00  0.00     0.065 A 
HETATM    3  C   UNL     1      62.035   8.570   1.810  1.00  0.00     0.010 A 
HETATM    4  C   UNL     1      62.038   9.342   4.102  1.00  0.00     0.010 A 
HETATM    5  C   UNL     1      61.983  10.665   3.659  1.00  0.00     0.037 A 
HETATM    6  C   UNL     1      61.976   9.892   1.369  1.00  0.00     0.037 A 
ENDROOT
BRANCH   1   7
HETATM    7  C   UNL     1      62.122   6.851   3.664  1.00  0.00     0.141 C 
BRANCH   7   8
HETATM    8  C   UNL     1      60.862   6.410   4.384  1.00  0.00     0.219 C 
HETATM    9  O   UNL     1      60.743   6.424   5.606  1.00  0.00    -0.273 OA
HETATM   10  N   UNL     1      59.822   6.033   3.585  1.00  0.00    -0.370 N 
HETATM   11  H   UNL     1      58.974   5.735   3.987  1.00  0.00     0.159 HD
HETATM   12  H   UNL     1      59.919   6.059   2.605  1.00  0.00     0.159 HD
ENDBRANCH   7   8
ENDBRANCH   1   7
BRANCH   2  13
HETATM   13  O   UNL     1      61.892  12.205   1.817  1.00  0.00    -0.361 OA
HETATM   14  H   UNL     1      62.679  12.653   1.577  1.00  0.00     0.217 HD
ENDBRANCH   2  13
TORSDOF 3
ENDMDL
MODEL 8
REMARK VINA RESULT:      -4.1      1.636      2.246
REMARK  3 active torsions:
REMARK  status: ('A' for Active; 'I' for Inactive)
REMARK    1  A    between atoms: C_1  and  C_3 
REMARK       I    between atoms: C_1  and  N_4 
REMARK    2  A    between atoms: C_3  and  C_5 
REMARK    3  A    between atoms: C_6  and  O_11 
ROOT
HETATM    1  C   UNL     1      63.068   8.555   3.990  1.00  0.00    -0.049 A 
HETATM    2  C   UNL     1      62.311  11.227   4.303  1.00  0.00     0.065 A 
HETATM    3  C   UNL     1      62.335   9.208   2.989  1.00  0.00     0.010 A 
HETATM    4  C   UNL     1      63.409   9.261   5.155  1.00  0.00     0.010 A 
HETATM    5  C   UNL     1      63.035  10.597   5.310  1.00  0.00     0.037 A 
HETATM    6  C   UNL     1      61.958  10.542   3.147  1.00  0.00     0.037 A 
ENDROOT
BRANCH   1   7
HETATM    7  C   UNL     1      63.467   7.106   3.828  1.00  0.00     0.141 C 
BRANCH   7   8
HETATM    8  C   UNL     1      63.116   6.245   5.025  1.00  0.00     0.219 C 
HETATM    9  O   UNL     1      61.967   5.913   5.304  1.00  0.00    -0.273 OA
HETATM   10  N   UNL     1      64.170   5.803   5.769  1.00  0.00    -0.370 N 
HETATM   11  H   UNL     1      64.014   5.239   6.561  1.00  0.00     0.159 HD
HETATM   12  H   UNL     1      65.090   6.047   5.513  1.00  0.00     0.159 HD
ENDBRANCH   7   8
ENDBRANCH   1   7
BRANCH   2  13
HETATM   13  O   UNL     1      61.920  12.528   4.416  1.00  0.00    -0.361 OA
HETATM   14  H   UNL     1      62.344  13.190   3.908  1.00  0.00     0.217 HD
ENDBRANCH   2  13
TORSDOF 3
ENDMDL
MODEL 9
REMARK VINA RESULT:      -4.1      4.527      7.500
REMARK  3 active torsions:
REMARK  status: ('A' for Active; 'I' for Inactive)
REMARK    1  A    between atoms: C_1  and  C_3 
REMARK       I    between atoms: C_1  and  N_4 
REMARK    2  A    between atoms: C_3  and  C_5 
REMARK    3  A    between atoms: C_6  and  O_11 
ROOT
HETATM    1  C   UNL     1      67.058   6.723   6.691  1.00  0.00    -0.049 A 
HETATM    2  C   UNL     1      67.238   4.448   8.304  1.00  0.00     0.065 A 
HETATM    3  C   UNL     1      66.505   6.720   7.980  1.00  0.00     0.010 A 
HETATM    4  C   UNL     1      67.696   5.564   6.221  1.00  0.00     0.010 A 
HETATM    5  C   UNL     1      67.790   4.428   7.027  1.00  0.00     0.037 A 
HETATM    6  C   UNL     1      66.597   5.584   8.784  1.00  0.00     0.037 A 
ENDROOT
BRANCH   1   7
HETATM    7  C   UNL     1      66.950   7.948   5.813  1.00  0.00     0.141 C 
BRANCH   7   8
HETATM    8  C   UNL     1      65.524   8.294   5.430  1.00  0.00     0.219 C 
HETATM    9  O   UNL     1      64.988   9.361   5.717  1.00  0.00    -0.273 OA
HETATM   10  N   UNL     1      64.863   7.357   4.691  1.00  0.00    -0.370 N 
HETATM   11  H   UNL     1      63.934   7.517   4.409  1.00  0.00     0.159 HD
HETATM   12  H   UNL     1      65.317   6.519   4.438  1.00  0.00     0.159 HD
ENDBRANCH   7   8
ENDBRANCH   1   7
BRANCH   2  13
HETATM   13  O   UNL     1      67.301   3.360   9.123  1.00  0.00    -0.361 OA
HETATM   14  H   UNL     1      66.593   3.170   9.705  1.00  0.00     0.217 HD
ENDBRANCH   2  13
TORSDOF 3
ENDMDL
