MODEL 1
REMARK VINA RESULT:      -4.6      0.000      0.000
REMARK  3 active torsions:
REMARK  status: ('A' for Active; 'I' for Inactive)
REMARK    1  A    between atoms: C_1  and  O_2 
REMARK    2  A    between atoms: O_2  and  C_3 
REMARK    3  A    between atoms: C_8  and  N_9 
ROOT
HETATM    1  C   UNL     1      62.256   8.950   3.570  1.00  0.00     0.080 C 
HETATM    2  C   UNL     1      62.347  10.077   4.393  1.00  0.00     0.066 C 
HETATM    3  C   UNL     1      63.356  10.175   5.359  1.00  0.00     0.028 C 
HETATM    4  C   UNL     1      64.314   8.110   4.526  1.00  0.00     0.005 C 
HETATM    5  C   UNL     1      63.260   7.979   3.628  1.00  0.00     0.037 C 
HETATM    6  C   UNL     1      64.364   9.206   5.383  1.00  0.00     0.029 C 
ENDROOT
BRANCH   1   7
HETATM    7  O   UNL     1      61.288   8.722   2.642  1.00  0.00    -0.255 OA
BRANCH   7   8
HETATM    8  C   UNL     1      61.530   9.116   1.298  1.00  0.00     0.530 C 
HETATM    9  F   UNL     1      62.582   8.496   0.719  1.00  0.00    -0.144 F 
HETATM   10  F   UNL     1      61.779  10.446   1.280  1.00  0.00    -0.144 F 
HETATM   11  F   UNL     1      60.425   8.885   0.556  1.00  0.00    -0.144 F 
ENDBRANCH   7   8
ENDBRANCH   1   7
BRANCH   3  12
HETATM   12  N   UNL     1      63.479  11.336   6.133  1.00  0.00    -0.399 N 
HETATM   13  H   UNL     1      64.258  11.454   6.724  1.00  0.00     0.156 HD
HETATM   14  H   UNL     1      62.787  12.034   6.086  1.00  0.00     0.156 HD
ENDBRANCH   3  12
TORSDOF 3
ENDMDL
MODEL 2
REMARK VINA RESULT:      -4.5      1.194      2.116
REMARK  3 active torsions:
REMARK  status: ('A' for Active; 'I' for Inactive)
REMARK    1  A    between atoms: C_1  and  O_2 
REMARK    2  A    between atoms: O_2  and  C_3 
REMARK    3  A    between atoms: C_8  and  N_9 
ROOT
HETATM    1  C   UNL     1      62.144   9.109   3.378  1.00  0.00     0.080 C 
HETATM    2  C   UNL     1      63.174   8.494   4.095  1.00  0.00     0.066 C 
HETATM    3  C   UNL     1      63.901   9.209   5.055  1.00  0.00     0.028 C 
HETATM    4  C   UNL     1      62.416  11.097   4.730  1.00  0.00     0.005 C 
HETATM    5  C   UNL     1      61.755  10.407   3.719  1.00  0.00     0.037 C 
HETATM    6  C   UNL     1      63.480  10.498   5.399  1.00  0.00     0.029 C 
ENDROOT
BRANCH   1   7
HETATM    7  O   UNL     1      61.413   8.531   2.386  1.00  0.00    -0.255 OA
BRANCH   7   8
HETATM    8  C   UNL     1      61.935   8.542   1.064  1.00  0.00     0.530 C 
HETATM    9  F   UNL     1      62.543   9.698   0.717  1.00  0.00    -0.144 F 
HETATM   10  F   UNL     1      60.912   8.343   0.200  1.00  0.00    -0.144 F 
HETATM   11  F   UNL     1      62.812   7.526   0.918  1.00  0.00    -0.144 F 
ENDBRANCH   7   8
ENDBRANCH   1   7
BRANCH   3  12
HETATM   12  N   UNL     1      64.887   8.567   5.815  1.00  0.00    -0.399 N 
HETATM   13  H   UNL     1      65.241   7.695   5.527  1.00  0.00     0.156 HD
HETATM   14  H   UNL     1      65.226   8.988   6.638  1.00  0.00     0.156 HD
ENDBRANCH   3  12
TORSDOF 3
ENDMDL
MODEL 3
REMARK VINA RESULT:      -4.5      3.586      4.617
REMARK  3 active torsions:
REMARK  status: ('A' for Active; 'I' for Inactive)
REMARK    1  A    between atoms: C_1  and  O_2 
REMARK    2  A    between atoms: O_2  and  C_3 
REMARK    3  A    between atoms: C_8  and  N_9 
ROOT
HETATM    1  C   UNL     1      62.991   9.094   5.070  1.00  0.00     0.080 C 
HETATM    2  C   UNL     1      62.458   8.769   3.820  1.00  0.00     0.066 C 
HETATM    3  C   UNL     1      61.805   9.738   3.048  1.00  0.00     0.028 C 
HETATM    4  C   UNL     1      62.413  11.413   4.691  1.00  0.00     0.005 C 
HETATM    5  C   UNL     1      62.985  10.428   5.489  1.00  0.00     0.037 C 
HETATM    6  C   UNL     1      61.832  11.070   3.473  1.00  0.00     0.029 C 
ENDROOT
BRANCH   1   7
HETATM    7  O   UNL     1      63.592   8.226   5.927  1.00  0.00    -0.255 OA
BRANCH   7   8
HETATM    8  C   UNL     1      64.888   7.740   5.604  1.00  0.00     0.530 C 
HETATM    9  F   UNL     1      65.615   8.572   4.826  1.00  0.00    -0.144 F 
HETATM   10  F   UNL     1      64.752   6.571   4.936  1.00  0.00    -0.144 F 
HETATM   11  F   UNL     1      65.574   7.497   6.742  1.00  0.00    -0.144 F 
ENDBRANCH   7   8
ENDBRANCH   1   7
BRANCH   3  12
HETATM   12  N   UNL     1      61.333   9.419   1.768  1.00  0.00    -0.399 N 
HETATM   13  H   UNL     1      61.955   9.081   1.084  1.00  0.00     0.156 HD
HETATM   14  H   UNL     1      60.379   9.532   1.554  1.00  0.00     0.156 HD
ENDBRANCH   3  12
TORSDOF 3
ENDMDL
MODEL 4
REMARK VINA RESULT:      -4.5      3.705      4.600
REMARK  3 active torsions:
REMARK  status: ('A' for Active; 'I' for Inactive)
REMARK    1  A    between atoms: C_1  and  O_2 
REMARK    2  A    between atoms: O_2  and  C_3 
REMARK    3  A    between atoms: C_8  and  N_9 
ROOT
HETATM    1  C   UNL     1      63.408   9.271   4.895  1.00  0.00     0.080 C 
HETATM    2  C   UNL     1      62.847   8.999   3.644  1.00  0.00     0.066 C 
HETATM    3  C   UNL     1      61.980   9.915   3.035  1.00  0.00     0.028 C 
HETATM    4  C   UNL     1      62.411  11.475   4.839  1.00  0.00     0.005 C 
HETATM    5  C   UNL     1      63.202  10.525   5.477  1.00  0.00     0.037 C 
HETATM    6  C   UNL     1      61.808  11.173   3.621  1.00  0.00     0.029 C 
ENDROOT
BRANCH   1   7
HETATM    7  O   UNL     1      64.212   8.434   5.603  1.00  0.00    -0.255 OA
BRANCH   7   8
HETATM    8  C   UNL     1      63.646   7.250   6.151  1.00  0.00     0.530 C 
HETATM    9  F   UNL     1      63.498   6.243   5.262  1.00  0.00    -0.144 F 
HETATM   10  F   UNL     1      62.420   7.549   6.638  1.00  0.00    -0.144 F 
HETATM   11  F   UNL     1      64.412   6.818   7.176  1.00  0.00    -0.144 F 
ENDBRANCH   7   8
ENDBRANCH   1   7
BRANCH   3  12
HETATM   12  N   UNL     1      61.476   9.663   1.753  1.00  0.00    -0.399 N 
HETATM   13  H   UNL     1      62.078   9.355   1.038  1.00  0.00     0.156 HD
HETATM   14  H   UNL     1      60.518   9.795   1.567  1.00  0.00     0.156 HD
ENDBRANCH   3  12
TORSDOF 3
ENDMDL
MODEL 5
REMARK VINA RESULT:      -4.5      3.251      4.232
REMARK  3 active torsions:
REMARK  status: ('A' for Active; 'I' for Inactive)
REMARK    1  A    between atoms: C_1  and  O_2 
REMARK    2  A    between atoms: O_2  and  C_3 
REMARK    3  A    between atoms: C_8  and  N_9 
ROOT
HETATM    1  C   UNL     1      62.719   8.590   3.701  1.00  0.00     0.080 C 
HETATM    2  C   UNL     1      62.293   9.912   3.539  1.00  0.00     0.066 C 
HETATM    3  C   UNL     1      61.982  10.411   2.268  1.00  0.00     0.028 C 
HETATM    4  C   UNL     1      62.316   8.193   1.349  1.00  0.00     0.005 C 
HETATM    5  C   UNL     1      62.705   7.728   2.601  1.00  0.00     0.037 C 
HETATM    6  C   UNL     1      61.950   9.527   1.185  1.00  0.00     0.029 C 
ENDROOT
BRANCH   1   7
HETATM    7  O   UNL     1      63.101   8.018   4.875  1.00  0.00    -0.255 OA
BRANCH   7   8
HETATM    8  C   UNL     1      64.471   8.089   5.250  1.00  0.00     0.530 C 
HETATM    9  F   UNL     1      65.325   7.587   4.332  1.00  0.00    -0.144 F 
HETATM   10  F   UNL     1      64.637   7.383   6.393  1.00  0.00    -0.144 F 
HETATM   11  F   UNL     1      64.803   9.374   5.499  1.00  0.00    -0.144 F 
ENDBRANCH   7   8
ENDBRANCH   1   7
BRANCH   3  12
HETATM   12  N   UNL     1      61.493  11.715   2.124  1.00  0.00    -0.399 N 
HETATM   13  H   UNL     1      61.641  12.207   1.284  1.00  0.00     0.156 HD
HETATM   14  H   UNL     1      61.001  12.141   2.863  1.00  0.00     0.156 HD
ENDBRANCH   3  12
TORSDOF 3
ENDMDL
MODEL 6
REMARK VINA RESULT:      -4.4      4.216      5.115
REMARK  3 active torsions:
REMARK  status: ('A' for Active; 'I' for Inactive)
REMARK    1  A    between atoms: C_1  and  O_2 
REMARK    2  A    between atoms: O_2  and  C_3 
REMARK    3  A    between atoms: C_8  and  N_9 
ROOT
HETATM    1  C   UNL     1      66.309   7.824   5.603  1.00  0.00     0.080 C 
HETATM    2  C   UNL     1      66.706   7.696   6.937  1.00  0.00     0.066 C 
HETATM    3  C   UNL     1      67.347   6.533   7.383  1.00  0.00     0.028 C 
HETATM    4  C   UNL     1      67.385   5.716   5.101  1.00  0.00     0.005 C 
HETATM    5  C   UNL     1      66.674   6.836   4.684  1.00  0.00     0.037 C 
HETATM    6  C   UNL     1      67.725   5.568   6.443  1.00  0.00     0.029 C 
ENDROOT
BRANCH   1   7
HETATM    7  O   UNL     1      65.632   8.879   5.075  1.00  0.00    -0.255 OA
BRANCH   7   8
HETATM    8  C   UNL     1      64.212   8.823   5.035  1.00  0.00     0.530 C 
HETATM    9  F   UNL     1      63.668   7.914   5.875  1.00  0.00    -0.144 F 
HETATM   10  F   UNL     1      63.832   8.496   3.778  1.00  0.00    -0.144 F 
HETATM   11  F   UNL     1      63.705  10.041   5.324  1.00  0.00    -0.144 F 
ENDBRANCH   7   8
ENDBRANCH   1   7
BRANCH   3  12
HETATM   12  N   UNL     1      67.800   6.440   8.705  1.00  0.00    -0.399 N 
HETATM   13  H   UNL     1      68.752   6.584   8.911  1.00  0.00     0.156 HD
HETATM   14  H   UNL     1      67.166   6.232   9.429  1.00  0.00     0.156 HD
ENDBRANCH   3  12
TORSDOF 3
ENDMDL
MODEL 7
REMARK VINA RESULT:      -4.3      2.545      3.350
REMARK  3 active torsions:
REMARK  status: ('A' for Active; 'I' for Inactive)
REMARK    1  A    between atoms: C_1  and  O_2 
REMARK    2  A    between atoms: O_2  and  C_3 
REMARK    3  A    between atoms: C_8  and  N_9 
ROOT
HETATM    1  C   UNL     1      63.078   8.803   3.852  1.00  0.00     0.080 C 
HETATM    2  C   UNL     1      63.374   9.445   5.058  1.00  0.00     0.066 C 
HETATM    3  C   UNL     1      62.990  10.775   5.272  1.00  0.00     0.028 C 
HETATM    4  C   UNL     1      61.820  10.747   3.150  1.00  0.00     0.005 C 
HETATM    5  C   UNL     1      62.278   9.455   2.910  1.00  0.00     0.037 C 
HETATM    6  C   UNL     1      62.170  11.400   4.328  1.00  0.00     0.029 C 
ENDROOT
BRANCH   1   7
HETATM    7  O   UNL     1      63.451   7.539   3.514  1.00  0.00    -0.255 OA
BRANCH   7   8
HETATM    8  C   UNL     1      62.719   6.447   4.056  1.00  0.00     0.530 C 
HETATM    9  F   UNL     1      61.585   6.804   4.698  1.00  0.00    -0.144 F 
HETATM   10  F   UNL     1      63.509   5.805   4.947  1.00  0.00    -0.144 F 
HETATM   11  F   UNL     1      62.408   5.580   3.069  1.00  0.00    -0.144 F 
ENDBRANCH   7   8
ENDBRANCH   1   7
BRANCH   3  12
HETATM   12  N   UNL     1      63.233  11.388   6.507  1.00  0.00    -0.399 N 
HETATM   13  H   UNL     1      64.124  11.327   6.921  1.00  0.00     0.156 HD
HETATM   14  H   UNL     1      62.512  11.881   6.962  1.00  0.00     0.156 HD
ENDBRANCH   3  12
TORSDOF 3
ENDMDL
MODEL 8
REMARK VINA RESULT:      -4.1      4.248      5.241
REMARK  3 active torsions:
REMARK  status: ('A' for Active; 'I' for Inactive)
REMARK    1  A    between atoms: C_1  and  O_2 
REMARK    2  A    between atoms: O_2  and  C_3 
REMARK    3  A    between atoms: C_8  and  N_9 
ROOT
HETATM    1  C   UNL     1      66.096   8.004   5.734  1.00  0.00     0.080 C 
HETATM    2  C   UNL     1      66.467   7.240   4.624  1.00  0.00     0.066 C 
HETATM    3  C   UNL     1      67.238   6.081   4.780  1.00  0.00     0.028 C 
HETATM    4  C   UNL     1      67.079   6.336   7.185  1.00  0.00     0.005 C 
HETATM    5  C   UNL     1      66.387   7.531   7.017  1.00  0.00     0.037 C 
HETATM    6  C   UNL     1      67.497   5.612   6.072  1.00  0.00     0.029 C 
ENDROOT
BRANCH   1   7
HETATM    7  O   UNL     1      65.402   9.173   5.696  1.00  0.00    -0.255 OA
BRANCH   7   8
HETATM    8  C   UNL     1      64.036   9.140   5.300  1.00  0.00     0.530 C 
HETATM    9  F   UNL     1      63.344  10.260   5.603  1.00  0.00    -0.144 F 
HETATM   10  F   UNL     1      63.434   8.104   5.930  1.00  0.00    -0.144 F 
HETATM   11  F   UNL     1      63.959   8.926   3.970  1.00  0.00    -0.144 F 
ENDBRANCH   7   8
ENDBRANCH   1   7
BRANCH   3  12
HETATM   12  N   UNL     1      67.549   5.287   3.669  1.00  0.00    -0.399 N 
HETATM   13  H   UNL     1      68.428   5.370   3.235  1.00  0.00     0.156 HD
HETATM   14  H   UNL     1      66.887   4.646   3.322  1.00  0.00     0.156 HD
ENDBRANCH   3  12
TORSDOF 3
ENDMDL
MODEL 9
REMARK VINA RESULT:      -4.1      1.568      1.802
REMARK  3 active torsions:
REMARK  status: ('A' for Active; 'I' for Inactive)
REMARK    1  A    between atoms: C_1  and  O_2 
REMARK    2  A    between atoms: O_2  and  C_3 
REMARK    3  A    between atoms: C_8  and  N_9 
ROOT
HETATM    1  C   UNL     1      62.226   8.865   4.039  1.00  0.00     0.080 C 
HETATM    2  C   UNL     1      63.486   9.103   4.597  1.00  0.00     0.066 C 
HETATM    3  C   UNL     1      64.059   8.186   5.486  1.00  0.00     0.028 C 
HETATM    4  C   UNL     1      62.198   6.684   5.088  1.00  0.00     0.005 C 
HETATM    5  C   UNL     1      61.598   7.638   4.273  1.00  0.00     0.037 C 
HETATM    6  C   UNL     1      63.426   6.955   5.686  1.00  0.00     0.029 C 
ENDROOT
BRANCH   1   7
HETATM    7  O   UNL     1      61.551   9.709   3.214  1.00  0.00    -0.255 OA
BRANCH   7   8
HETATM    8  C   UNL     1      61.820   9.653   1.819  1.00  0.00     0.530 C 
HETATM    9  F   UNL     1      62.823   8.815   1.480  1.00  0.00    -0.144 F 
HETATM   10  F   UNL     1      62.164  10.894   1.401  1.00  0.00    -0.144 F 
HETATM   11  F   UNL     1      60.701   9.283   1.160  1.00  0.00    -0.144 F 
ENDBRANCH   7   8
ENDBRANCH   1   7
BRANCH   3  12
HETATM   12  N   UNL     1      65.348   8.402   5.987  1.00  0.00    -0.399 N 
HETATM   13  H   UNL     1      65.629   9.307   6.253  1.00  0.00     0.156 HD
HETATM   14  H   UNL     1      65.975   7.647   6.074  1.00  0.00     0.156 HD
ENDBRANCH   3  12
TORSDOF 3
ENDMDL
