MODEL 1
REMARK VINA RESULT:      -4.6      0.000      0.000
REMARK  4 active torsions:
REMARK  status: ('A' for Active; 'I' for Inactive)
REMARK    1  A    between atoms: N_1  and  C_4 
REMARK    2  A    between atoms: C_4  and  C_11 
REMARK    3  A    between atoms: C_5  and  O_12 
REMARK    4  A    between atoms: C_6  and  C_11 
ROOT
HETATM    1  C   UNL     1      64.182   7.995   5.290  1.00  0.00     0.068 A 
HETATM    2  C   UNL     1      62.663   8.840   3.070  1.00  0.00    -0.046 A 
HETATM    3  C   UNL     1      63.475   9.197   5.332  1.00  0.00     0.037 A 
HETATM    4  C   UNL     1      64.137   7.217   4.136  1.00  0.00     0.037 A 
HETATM    5  C   UNL     1      62.718   9.617   4.237  1.00  0.00     0.011 A 
HETATM    6  C   UNL     1      63.385   7.636   3.032  1.00  0.00     0.011 A 
ENDROOT
BRANCH   2   7
HETATM    7  C   UNL     1      61.925   9.335   1.848  1.00  0.00     0.142 C 
BRANCH   7   8
HETATM    8  C   UNL     1      61.852  10.853   1.849  1.00  0.00    -0.073 C 
BRANCH   8   9
HETATM    9  N   UNL     1      61.791  12.113   1.851  1.00  0.00    -0.369 N 
ATOM     10  HN2 UNL     1      61.875  11.097   1.847  1.00  0.00     0.165 HD
ATOM     11  HN1 UNL     1      61.742  13.132   1.853  1.00  0.00     0.165 HD
ENDBRANCH   8   9
ENDBRANCH   7   8
ENDBRANCH   2   7
BRANCH   1  12
HETATM   12  O   UNL     1      64.913   7.711   6.408  1.00  0.00    -0.356 OA
HETATM   13  C   UNL     1      66.309   7.980   6.322  1.00  0.00     0.210 C 
ENDBRANCH   1  12
TORSDOF 4
ENDMDL
MODEL 2
REMARK VINA RESULT:      -4.5      3.105      4.959
REMARK  4 active torsions:
REMARK  status: ('A' for Active; 'I' for Inactive)
REMARK    1  A    between atoms: N_1  and  C_4 
REMARK    2  A    between atoms: C_4  and  C_11 
REMARK    3  A    between atoms: C_5  and  O_12 
REMARK    4  A    between atoms: C_6  and  C_11 
ROOT
HETATM    1  C   UNL     1      62.269  10.228   3.834  1.00  0.00     0.068 A 
HETATM    2  C   UNL     1      64.138   8.306   4.706  1.00  0.00    -0.046 A 
HETATM    3  C   UNL     1      62.501   9.074   3.084  1.00  0.00     0.037 A 
HETATM    4  C   UNL     1      62.977  10.426   5.017  1.00  0.00     0.037 A 
HETATM    5  C   UNL     1      63.422   8.118   3.514  1.00  0.00     0.011 A 
HETATM    6  C   UNL     1      63.907   9.474   5.450  1.00  0.00     0.011 A 
ENDROOT
BRANCH   2   7
HETATM    7  C   UNL     1      65.205   7.323   5.127  1.00  0.00     0.142 C 
BRANCH   7   8
HETATM    8  C   UNL     1      66.127   7.949   6.161  1.00  0.00    -0.073 C 
BRANCH   8   9
HETATM    9  N   UNL     1      66.893   8.468   7.019  1.00  0.00    -0.369 N 
ATOM     10  HN2 UNL     1      66.271   8.021   6.345  1.00  0.00     0.165 HD
ATOM     11  HN1 UNL     1      67.512   8.888   7.712  1.00  0.00     0.165 HD
ENDBRANCH   8   9
ENDBRANCH   7   8
ENDBRANCH   2   7
BRANCH   1  12
HETATM   12  O   UNL     1      61.373  11.105   3.291  1.00  0.00    -0.356 OA
HETATM   13  C   UNL     1      61.761  11.708   2.061  1.00  0.00     0.210 C 
ENDBRANCH   1  12
TORSDOF 4
ENDMDL
MODEL 3
REMARK VINA RESULT:      -4.5      3.163      3.986
REMARK  4 active torsions:
REMARK  status: ('A' for Active; 'I' for Inactive)
REMARK    1  A    between atoms: N_1  and  C_4 
REMARK    2  A    between atoms: C_4  and  C_11 
REMARK    3  A    between atoms: C_5  and  O_12 
REMARK    4  A    between atoms: C_6  and  C_11 
ROOT
HETATM    1  C   UNL     1      62.164  10.830   3.691  1.00  0.00     0.068 A 
HETATM    2  C   UNL     1      62.161   8.994   1.551  1.00  0.00    -0.046 A 
HETATM    3  C   UNL     1      62.523   9.497   3.899  1.00  0.00     0.037 A 
HETATM    4  C   UNL     1      61.796  11.245   2.413  1.00  0.00     0.037 A 
HETATM    5  C   UNL     1      62.527   8.586   2.842  1.00  0.00     0.011 A 
HETATM    6  C   UNL     1      61.792  10.334   1.350  1.00  0.00     0.011 A 
ENDROOT
BRANCH   2   7
HETATM    7  C   UNL     1      62.070   7.993   0.423  1.00  0.00     0.142 C 
BRANCH   7   8
HETATM    8  C   UNL     1      62.921   6.771   0.727  1.00  0.00    -0.073 C 
BRANCH   8   9
HETATM    9  N   UNL     1      63.627   5.756   0.978  1.00  0.00    -0.369 N 
ATOM     10  HN2 UNL     1      63.068   6.576   0.743  1.00  0.00     0.165 HD
ATOM     11  HN1 UNL     1      64.197   4.936   1.181  1.00  0.00     0.165 HD
ENDBRANCH   8   9
ENDBRANCH   7   8
ENDBRANCH   2   7
BRANCH   1  12
HETATM   12  O   UNL     1      62.164  11.614   4.809  1.00  0.00    -0.356 OA
HETATM   13  C   UNL     1      63.023  11.193   5.863  1.00  0.00     0.210 C 
ENDBRANCH   1  12
TORSDOF 4
ENDMDL
MODEL 4
REMARK VINA RESULT:      -4.4      3.094      4.052
REMARK  4 active torsions:
REMARK  status: ('A' for Active; 'I' for Inactive)
REMARK    1  A    between atoms: N_1  and  C_4 
REMARK    2  A    between atoms: C_4  and  C_11 
REMARK    3  A    between atoms: C_5  and  O_12 
REMARK    4  A    between atoms: C_6  and  C_11 
ROOT
HETATM    1  C   UNL     1      62.312   7.329   1.526  1.00  0.00     0.068 A 
HETATM    2  C   UNL     1      62.101   9.810   2.849  1.00  0.00    -0.046 A 
HETATM    3  C   UNL     1      62.083   8.500   0.803  1.00  0.00     0.037 A 
HETATM    4  C   UNL     1      62.428   7.396   2.913  1.00  0.00     0.037 A 
HETATM    5  C   UNL     1      61.982   9.732   1.453  1.00  0.00     0.011 A 
HETATM    6  C   UNL     1      62.321   8.626   3.571  1.00  0.00     0.011 A 
ENDROOT
BRANCH   2   7
HETATM    7  C   UNL     1      61.896  11.123   3.567  1.00  0.00     0.142 C 
BRANCH   7   8
HETATM    8  C   UNL     1      62.639  11.126   4.893  1.00  0.00    -0.073 C 
BRANCH   8   9
HETATM    9  N   UNL     1      63.254  11.128   5.995  1.00  0.00    -0.369 N 
ATOM     10  HN2 UNL     1      62.784  11.111   5.090  1.00  0.00     0.165 HD
ATOM     11  HN1 UNL     1      63.751  11.130   6.885  1.00  0.00     0.165 HD
ENDBRANCH   8   9
ENDBRANCH   7   8
ENDBRANCH   2   7
BRANCH   1  12
HETATM   12  O   UNL     1      62.355   6.184   0.782  1.00  0.00    -0.356 OA
HETATM   13  C   UNL     1      63.654   5.673   0.504  1.00  0.00     0.210 C 
ENDBRANCH   1  12
TORSDOF 4
ENDMDL
MODEL 5
REMARK VINA RESULT:      -4.3      3.112      4.646
REMARK  4 active torsions:
REMARK  status: ('A' for Active; 'I' for Inactive)
REMARK    1  A    between atoms: N_1  and  C_4 
REMARK    2  A    between atoms: C_4  and  C_11 
REMARK    3  A    between atoms: C_5  and  O_12 
REMARK    4  A    between atoms: C_6  and  C_11 
ROOT
HETATM    1  C   UNL     1      62.394   9.972   3.645  1.00  0.00     0.068 A 
HETATM    2  C   UNL     1      63.944   7.650   4.041  1.00  0.00    -0.046 A 
HETATM    3  C   UNL     1      63.172   9.827   4.794  1.00  0.00     0.037 A 
HETATM    4  C   UNL     1      62.383   8.952   2.696  1.00  0.00     0.037 A 
HETATM    5  C   UNL     1      63.945   8.682   4.992  1.00  0.00     0.011 A 
HETATM    6  C   UNL     1      63.150   7.798   2.892  1.00  0.00     0.011 A 
ENDROOT
BRANCH   2   7
HETATM    7  C   UNL     1      64.701   6.368   4.294  1.00  0.00     0.142 C 
BRANCH   7   8
HETATM    8  C   UNL     1      66.194   6.586   4.110  1.00  0.00    -0.073 C 
BRANCH   8   9
HETATM    9  N   UNL     1      67.433   6.767   3.958  1.00  0.00    -0.369 N 
ATOM     10  HN2 UNL     1      66.433   6.637   4.111  1.00  0.00     0.165 HD
ATOM     11  HN1 UNL     1      68.434   6.914   3.834  1.00  0.00     0.165 HD
ENDBRANCH   8   9
ENDBRANCH   7   8
ENDBRANCH   2   7
BRANCH   1  12
HETATM   12  O   UNL     1      61.655  11.119   3.582  1.00  0.00    -0.356 OA
HETATM   13  C   UNL     1      61.692  11.814   2.340  1.00  0.00     0.210 C 
ENDBRANCH   1  12
TORSDOF 4
ENDMDL
MODEL 6
REMARK VINA RESULT:      -4.2      1.725      2.298
REMARK  4 active torsions:
REMARK  status: ('A' for Active; 'I' for Inactive)
REMARK    1  A    between atoms: N_1  and  C_4 
REMARK    2  A    between atoms: C_4  and  C_11 
REMARK    3  A    between atoms: C_5  and  O_12 
REMARK    4  A    between atoms: C_6  and  C_11 
ROOT
HETATM    1  C   UNL     1      63.376   8.198   5.191  1.00  0.00     0.068 A 
HETATM    2  C   UNL     1      62.629   8.706   2.520  1.00  0.00    -0.046 A 
HETATM    3  C   UNL     1      63.597   7.241   4.199  1.00  0.00     0.037 A 
HETATM    4  C   UNL     1      62.774   9.407   4.850  1.00  0.00     0.037 A 
HETATM    5  C   UNL     1      63.233   7.490   2.874  1.00  0.00     0.011 A 
HETATM    6  C   UNL     1      62.401   9.660   3.525  1.00  0.00     0.011 A 
ENDROOT
BRANCH   2   7
HETATM    7  C   UNL     1      62.145   8.943   1.109  1.00  0.00     0.142 C 
BRANCH   7   8
HETATM    8  C   UNL     1      60.655   8.661   1.002  1.00  0.00    -0.073 C 
BRANCH   8   9
HETATM    9  N   UNL     1      59.418   8.428   0.914  1.00  0.00    -0.369 N 
ATOM     10  HN2 UNL     1      60.425   8.585   0.972  1.00  0.00     0.165 HD
ATOM     11  HN1 UNL     1      58.419   8.240   0.842  1.00  0.00     0.165 HD
ENDBRANCH   8   9
ENDBRANCH   7   8
ENDBRANCH   2   7
BRANCH   1  12
HETATM   12  O   UNL     1      63.741   7.824   6.452  1.00  0.00    -0.356 OA
HETATM   13  C   UNL     1      64.785   6.858   6.536  1.00  0.00     0.210 C 
ENDBRANCH   1  12
TORSDOF 4
ENDMDL
MODEL 7
REMARK VINA RESULT:      -4.2      1.637      2.343
REMARK  4 active torsions:
REMARK  status: ('A' for Active; 'I' for Inactive)
REMARK    1  A    between atoms: N_1  and  C_4 
REMARK    2  A    between atoms: C_4  and  C_11 
REMARK    3  A    between atoms: C_5  and  O_12 
REMARK    4  A    between atoms: C_6  and  C_11 
ROOT
HETATM    1  C   UNL     1      65.099   6.903   3.959  1.00  0.00     0.068 A 
HETATM    2  C   UNL     1      63.341   9.079   4.307  1.00  0.00    -0.046 A 
HETATM    3  C   UNL     1      63.972   7.040   3.147  1.00  0.00     0.037 A 
HETATM    4  C   UNL     1      65.344   7.849   4.951  1.00  0.00     0.037 A 
HETATM    5  C   UNL     1      63.102   8.119   3.313  1.00  0.00     0.011 A 
HETATM    6  C   UNL     1      64.471   8.929   5.127  1.00  0.00     0.011 A 
ENDROOT
BRANCH   2   7
HETATM    7  C   UNL     1      62.352  10.193   4.556  1.00  0.00     0.142 C 
BRANCH   7   8
HETATM    8  C   UNL     1      61.942  10.843   3.244  1.00  0.00    -0.073 C 
BRANCH   8   9
HETATM    9  N   UNL     1      61.600  11.383   2.156  1.00  0.00    -0.369 N 
ATOM     10  HN2 UNL     1      61.893  10.975   3.044  1.00  0.00     0.165 HD
ATOM     11  HN1 UNL     1      61.324  11.819   1.277  1.00  0.00     0.165 HD
ENDBRANCH   8   9
ENDBRANCH   7   8
ENDBRANCH   2   7
BRANCH   1  12
HETATM   12  O   UNL     1      65.853   5.788   3.723  1.00  0.00    -0.356 OA
HETATM   13  C   UNL     1      67.039   5.666   4.502  1.00  0.00     0.210 C 
ENDBRANCH   1  12
TORSDOF 4
ENDMDL
MODEL 8
REMARK VINA RESULT:      -4.0      2.564      3.628
REMARK  4 active torsions:
REMARK  status: ('A' for Active; 'I' for Inactive)
REMARK    1  A    between atoms: N_1  and  C_4 
REMARK    2  A    between atoms: C_4  and  C_11 
REMARK    3  A    between atoms: C_5  and  O_12 
REMARK    4  A    between atoms: C_6  and  C_11 
ROOT
HETATM    1  C   UNL     1      66.796   6.632   6.795  1.00  0.00     0.068 A 
HETATM    2  C   UNL     1      64.668   7.887   5.438  1.00  0.00    -0.046 A 
HETATM    3  C   UNL     1      65.473   6.362   7.148  1.00  0.00     0.037 A 
HETATM    4  C   UNL     1      67.057   7.536   5.768  1.00  0.00     0.037 A 
HETATM    5  C   UNL     1      64.416   6.978   6.476  1.00  0.00     0.011 A 
HETATM    6  C   UNL     1      66.002   8.162   5.094  1.00  0.00     0.011 A 
ENDROOT
BRANCH   2   7
HETATM    7  C   UNL     1      63.533   8.630   4.772  1.00  0.00     0.142 C 
BRANCH   7   8
HETATM    8  C   UNL     1      63.389  10.023   5.362  1.00  0.00    -0.073 C 
BRANCH   8   9
HETATM    9  N   UNL     1      63.269  11.179   5.852  1.00  0.00    -0.369 N 
ATOM     10  HN2 UNL     1      63.395  10.240   5.474  1.00  0.00     0.165 HD
ATOM     11  HN1 UNL     1      63.171  12.114   6.248  1.00  0.00     0.165 HD
ENDBRANCH   8   9
ENDBRANCH   7   8
ENDBRANCH   2   7
BRANCH   1  12
HETATM   12  O   UNL     1      67.741   5.996   7.549  1.00  0.00    -0.356 OA
HETATM   13  C   UNL     1      67.572   6.085   8.960  1.00  0.00     0.210 C 
ENDBRANCH   1  12
TORSDOF 4
ENDMDL
MODEL 9
REMARK VINA RESULT:      -3.9      2.967      4.673
REMARK  4 active torsions:
REMARK  status: ('A' for Active; 'I' for Inactive)
REMARK    1  A    between atoms: N_1  and  C_4 
REMARK    2  A    between atoms: C_4  and  C_11 
REMARK    3  A    between atoms: C_5  and  O_12 
REMARK    4  A    between atoms: C_6  and  C_11 
ROOT
HETATM    1  C   UNL     1      61.386   8.092   1.301  1.00  0.00     0.068 A 
HETATM    2  C   UNL     1      63.076   8.606   3.497  1.00  0.00    -0.046 A 
HETATM    3  C   UNL     1      61.480   9.377   1.836  1.00  0.00     0.037 A 
HETATM    4  C   UNL     1      62.130   7.060   1.868  1.00  0.00     0.037 A 
HETATM    5  C   UNL     1      62.320   9.637   2.921  1.00  0.00     0.011 A 
HETATM    6  C   UNL     1      62.969   7.313   2.960  1.00  0.00     0.011 A 
ENDROOT
BRANCH   2   7
HETATM    7  C   UNL     1      63.911   8.860   4.730  1.00  0.00     0.142 C 
BRANCH   7   8
HETATM    8  C   UNL     1      63.509  10.172   5.385  1.00  0.00    -0.073 C 
BRANCH   8   9
HETATM    9  N   UNL     1      63.174  11.260   5.928  1.00  0.00    -0.369 N 
ATOM     10  HN2 UNL     1      63.450  10.397   5.459  1.00  0.00     0.165 HD
ATOM     11  HN1 UNL     1      62.904  12.140   6.367  1.00  0.00     0.165 HD
ENDBRANCH   8   9
ENDBRANCH   7   8
ENDBRANCH   2   7
BRANCH   1  12
HETATM   12  O   UNL     1      60.505   7.956   0.265  1.00  0.00    -0.356 OA
HETATM   13  C   UNL     1      59.141   7.775   0.631  1.00  0.00     0.210 C 
ENDBRANCH   1  12
TORSDOF 4
ENDMDL
