MODEL 1
REMARK VINA RESULT:      -4.8      0.000      0.000
REMARK  1 active torsions:
REMARK  status: ('A' for Active; 'I' for Inactive)
REMARK    1  A    between atoms: C_1  and  C_2 
ROOT
HETATM    1  C   UNL     1      62.544   9.612   3.907  1.00  0.00     0.012 A 
HETATM    2  C   UNL     1      62.141  10.877   3.470  1.00  0.00     0.057 A 
HETATM    3  C   UNL     1      61.845  11.073   2.125  1.00  0.00     0.117 A 
HETATM    4  F   UNL     1      61.459  12.286   1.711  1.00  0.00    -0.206 F 
HETATM    5  C   UNL     1      62.642   8.561   2.981  1.00  0.00     0.015 A 
HETATM    6  C   UNL     1      62.341   8.772   1.633  1.00  0.00     0.004 A 
HETATM    7  C   UNL     1      61.941  10.036   1.204  1.00  0.00     0.042 A 
ENDROOT
BRANCH   1   8
HETATM    8  C   UNL     1      62.880   9.338   5.336  1.00  0.00     0.155 C 
HETATM    9  O   UNL     1      63.087  10.274   6.106  1.00  0.00    -0.293 OA
HETATM   10  C   UNL     1      62.956   7.909   5.805  1.00  0.00     0.096 C 
ENDBRANCH   1   8
TORSDOF 1
ENDMDL
MODEL 2
REMARK VINA RESULT:      -4.7      1.596      1.964
REMARK  1 active torsions:
REMARK  status: ('A' for Active; 'I' for Inactive)
REMARK    1  A    between atoms: C_1  and  C_2 
ROOT
HETATM    1  C   UNL     1      63.079   8.913   4.711  1.00  0.00     0.012 A 
HETATM    2  C   UNL     1      62.833  10.224   5.128  1.00  0.00     0.057 A 
HETATM    3  C   UNL     1      62.249  11.125   4.243  1.00  0.00     0.117 A 
HETATM    4  F   UNL     1      62.015  12.380   4.647  1.00  0.00    -0.206 F 
HETATM    5  C   UNL     1      62.732   8.528   3.406  1.00  0.00     0.015 A 
HETATM    6  C   UNL     1      62.145   9.443   2.528  1.00  0.00     0.004 A 
HETATM    7  C   UNL     1      61.904  10.749   2.950  1.00  0.00     0.042 A 
ENDROOT
BRANCH   1   8
HETATM    8  C   UNL     1      63.706   7.900   5.611  1.00  0.00     0.155 C 
HETATM    9  O   UNL     1      63.215   7.677   6.716  1.00  0.00    -0.293 OA
HETATM   10  C   UNL     1      64.934   7.167   5.140  1.00  0.00     0.096 C 
ENDBRANCH   1   8
TORSDOF 1
ENDMDL
MODEL 3
REMARK VINA RESULT:      -4.7      1.509      2.148
REMARK  1 active torsions:
REMARK  status: ('A' for Active; 'I' for Inactive)
REMARK    1  A    between atoms: C_1  and  C_2 
ROOT
HETATM    1  C   UNL     1      62.851   9.305   4.092  1.00  0.00     0.012 A 
HETATM    2  C   UNL     1      62.713   8.795   2.799  1.00  0.00     0.057 A 
HETATM    3  C   UNL     1      62.155   9.593   1.805  1.00  0.00     0.117 A 
HETATM    4  F   UNL     1      62.023   9.100   0.567  1.00  0.00    -0.206 F 
HETATM    5  C   UNL     1      62.426  10.615   4.366  1.00  0.00     0.015 A 
HETATM    6  C   UNL     1      61.869  11.406   3.358  1.00  0.00     0.004 A 
HETATM    7  C   UNL     1      61.732  10.891   2.071  1.00  0.00     0.042 A 
ENDROOT
BRANCH   1   8
HETATM    8  C   UNL     1      63.438   8.498   5.203  1.00  0.00     0.155 C 
HETATM    9  O   UNL     1      62.815   8.361   6.254  1.00  0.00    -0.293 OA
HETATM   10  C   UNL     1      64.790   7.865   5.008  1.00  0.00     0.096 C 
ENDBRANCH   1   8
TORSDOF 1
ENDMDL
MODEL 4
REMARK VINA RESULT:      -4.6      2.499      3.063
REMARK  1 active torsions:
REMARK  status: ('A' for Active; 'I' for Inactive)
REMARK    1  A    between atoms: C_1  and  C_2 
ROOT
HETATM    1  C   UNL     1      62.365   9.804   3.080  1.00  0.00     0.012 A 
HETATM    2  C   UNL     1      62.929   8.566   3.400  1.00  0.00     0.057 A 
HETATM    3  C   UNL     1      62.942   7.554   2.444  1.00  0.00     0.117 A 
HETATM    4  F   UNL     1      63.482   6.369   2.755  1.00  0.00    -0.206 F 
HETATM    5  C   UNL     1      61.823  10.006   1.801  1.00  0.00     0.015 A 
HETATM    6  C   UNL     1      61.844   8.981   0.851  1.00  0.00     0.004 A 
HETATM    7  C   UNL     1      62.406   7.749   1.176  1.00  0.00     0.042 A 
ENDROOT
BRANCH   1   8
HETATM    8  C   UNL     1      62.317  10.929   4.062  1.00  0.00     0.155 C 
HETATM    9  O   UNL     1      61.834  12.010   3.729  1.00  0.00    -0.293 OA
HETATM   10  C   UNL     1      62.863  10.711   5.448  1.00  0.00     0.096 C 
ENDBRANCH   1   8
TORSDOF 1
ENDMDL
MODEL 5
REMARK VINA RESULT:      -4.5      2.342      3.587
REMARK  1 active torsions:
REMARK  status: ('A' for Active; 'I' for Inactive)
REMARK    1  A    between atoms: C_1  and  C_2 
ROOT
HETATM    1  C   UNL     1      62.166   9.359   2.556  1.00  0.00     0.012 A 
HETATM    2  C   UNL     1      61.898  10.644   3.034  1.00  0.00     0.057 A 
HETATM    3  C   UNL     1      62.318  10.999   4.312  1.00  0.00     0.117 A 
HETATM    4  F   UNL     1      62.059  12.232   4.766  1.00  0.00    -0.206 F 
HETATM    5  C   UNL     1      62.856   8.448   3.373  1.00  0.00     0.015 A 
HETATM    6  C   UNL     1      63.273   8.819   4.654  1.00  0.00     0.004 A 
HETATM    7  C   UNL     1      63.001  10.102   5.125  1.00  0.00     0.042 A 
ENDROOT
BRANCH   1   8
HETATM    8  C   UNL     1      61.739   8.915   1.195  1.00  0.00     0.155 C 
HETATM    9  O   UNL     1      62.525   8.993   0.252  1.00  0.00    -0.293 OA
HETATM   10  C   UNL     1      60.346   8.375   1.009  1.00  0.00     0.096 C 
ENDBRANCH   1   8
TORSDOF 1
ENDMDL
MODEL 6
REMARK VINA RESULT:      -4.3      2.208      3.616
REMARK  1 active torsions:
REMARK  status: ('A' for Active; 'I' for Inactive)
REMARK    1  A    between atoms: C_1  and  C_2 
ROOT
HETATM    1  C   UNL     1      62.491   9.771   3.404  1.00  0.00     0.012 A 
HETATM    2  C   UNL     1      62.311   8.840   2.378  1.00  0.00     0.057 A 
HETATM    3  C   UNL     1      62.832   7.558   2.518  1.00  0.00     0.117 A 
HETATM    4  F   UNL     1      62.658   6.669   1.532  1.00  0.00    -0.206 F 
HETATM    5  C   UNL     1      63.195   9.395   4.560  1.00  0.00     0.015 A 
HETATM    6  C   UNL     1      63.712   8.103   4.688  1.00  0.00     0.004 A 
HETATM    7  C   UNL     1      63.530   7.181   3.660  1.00  0.00     0.042 A 
ENDROOT
BRANCH   1   8
HETATM    8  C   UNL     1      61.959  11.163   3.313  1.00  0.00     0.155 C 
HETATM    9  O   UNL     1      61.743  11.803   4.341  1.00  0.00    -0.293 OA
HETATM   10  C   UNL     1      61.701  11.757   1.954  1.00  0.00     0.096 C 
ENDBRANCH   1   8
TORSDOF 1
ENDMDL
MODEL 7
REMARK VINA RESULT:      -4.2      2.030      2.920
REMARK  1 active torsions:
REMARK  status: ('A' for Active; 'I' for Inactive)
REMARK    1  A    between atoms: C_1  and  C_2 
ROOT
HETATM    1  C   UNL     1      62.223   8.911   2.776  1.00  0.00     0.012 A 
HETATM    2  C   UNL     1      61.931   9.936   1.873  1.00  0.00     0.057 A 
HETATM    3  C   UNL     1      61.851  11.248   2.331  1.00  0.00     0.117 A 
HETATM    4  F   UNL     1      61.569  12.227   1.462  1.00  0.00    -0.206 F 
HETATM    5  C   UNL     1      62.433   9.222   4.130  1.00  0.00     0.015 A 
HETATM    6  C   UNL     1      62.351  10.544   4.575  1.00  0.00     0.004 A 
HETATM    7  C   UNL     1      62.057  11.561   3.670  1.00  0.00     0.042 A 
ENDROOT
BRANCH   1   8
HETATM    8  C   UNL     1      62.319   7.482   2.350  1.00  0.00     0.155 C 
HETATM    9  O   UNL     1      61.311   6.890   1.968  1.00  0.00    -0.293 OA
HETATM   10  C   UNL     1      63.658   6.797   2.395  1.00  0.00     0.096 C 
ENDBRANCH   1   8
TORSDOF 1
ENDMDL
MODEL 8
REMARK VINA RESULT:      -4.2      2.805      4.158
REMARK  1 active torsions:
REMARK  status: ('A' for Active; 'I' for Inactive)
REMARK    1  A    between atoms: C_1  and  C_2 
ROOT
HETATM    1  C   UNL     1      62.177   9.313   3.099  1.00  0.00     0.012 A 
HETATM    2  C   UNL     1      63.137   8.610   3.833  1.00  0.00     0.057 A 
HETATM    3  C   UNL     1      63.704   9.200   4.958  1.00  0.00     0.117 A 
HETATM    4  F   UNL     1      64.624   8.524   5.657  1.00  0.00    -0.206 F 
HETATM    5  C   UNL     1      61.801  10.601   3.511  1.00  0.00     0.015 A 
HETATM    6  C   UNL     1      62.379  11.182   4.643  1.00  0.00     0.004 A 
HETATM    7  C   UNL     1      63.337  10.477   5.369  1.00  0.00     0.042 A 
ENDROOT
BRANCH   1   8
HETATM    8  C   UNL     1      61.533   8.736   1.881  1.00  0.00     0.155 C 
HETATM    9  O   UNL     1      60.438   8.184   1.972  1.00  0.00    -0.293 OA
HETATM   10  C   UNL     1      62.245   8.848   0.559  1.00  0.00     0.096 C 
ENDBRANCH   1   8
TORSDOF 1
ENDMDL
MODEL 9
REMARK VINA RESULT:      -4.0      1.713      2.247
REMARK  1 active torsions:
REMARK  status: ('A' for Active; 'I' for Inactive)
REMARK    1  A    between atoms: C_1  and  C_2 
ROOT
HETATM    1  C   UNL     1      63.206   8.741   3.787  1.00  0.00     0.012 A 
HETATM    2  C   UNL     1      62.383   9.312   2.813  1.00  0.00     0.057 A 
HETATM    3  C   UNL     1      62.090   8.592   1.658  1.00  0.00     0.117 A 
HETATM    4  F   UNL     1      61.302   9.143   0.727  1.00  0.00    -0.206 F 
HETATM    5  C   UNL     1      63.722   7.451   3.585  1.00  0.00     0.015 A 
HETATM    6  C   UNL     1      63.418   6.739   2.421  1.00  0.00     0.004 A 
HETATM    7  C   UNL     1      62.598   7.314   1.453  1.00  0.00     0.042 A 
ENDROOT
BRANCH   1   8
HETATM    8  C   UNL     1      63.562   9.463   5.045  1.00  0.00     0.155 C 
HETATM    9  O   UNL     1      64.399   8.985   5.808  1.00  0.00    -0.293 OA
HETATM   10  C   UNL     1      62.883  10.771   5.351  1.00  0.00     0.096 C 
ENDBRANCH   1   8
TORSDOF 1
ENDMDL
