MODEL 1
REMARK VINA RESULT:      -3.5      0.000      0.000
REMARK  0 active torsions:
REMARK  status: ('A' for Active; 'I' for Inactive)
ROOT
HETATM    1  C   UNL     1      63.722   9.609   5.164  1.00  0.00     0.131 C 
HETATM    2  O   UNL     1      64.866   9.396   5.565  1.00  0.00    -0.298 OA
HETATM    3  O   UNL     1      61.401  10.337   3.787  1.00  0.00    -0.390 OA
HETATM    4  C   UNL     1      62.960   8.581   4.367  1.00  0.00     0.104 C 
HETATM    5  C   UNL     1      62.959  10.842   5.572  1.00  0.00     0.104 C 
HETATM    6  C   UNL     1      62.198  11.369   4.370  1.00  0.00     0.175 C 
HETATM    7  C   UNL     1      62.215   9.289   3.253  1.00  0.00     0.175 C 
ENDROOT
TORSDOF 0
ENDMDL
MODEL 2
REMARK VINA RESULT:      -3.4      1.797      3.415
REMARK  0 active torsions:
REMARK  status: ('A' for Active; 'I' for Inactive)
ROOT
HETATM    1  C   UNL     1      61.895  10.973   2.610  1.00  0.00     0.131 C 
HETATM    2  O   UNL     1      61.896  12.104   2.122  1.00  0.00    -0.298 OA
HETATM    3  O   UNL     1      62.478   8.438   3.631  1.00  0.00    -0.390 OA
HETATM    4  C   UNL     1      61.970  10.756   4.099  1.00  0.00     0.104 C 
HETATM    5  C   UNL     1      61.665   9.748   1.763  1.00  0.00     0.104 C 
HETATM    6  C   UNL     1      62.604   8.650   2.224  1.00  0.00     0.175 C 
HETATM    7  C   UNL     1      62.897   9.589   4.370  1.00  0.00     0.175 C 
ENDROOT
TORSDOF 0
ENDMDL
MODEL 3
REMARK VINA RESULT:      -3.3      2.024      2.986
REMARK  0 active torsions:
REMARK  status: ('A' for Active; 'I' for Inactive)
ROOT
HETATM    1  C   UNL     1      62.054  10.689   3.452  1.00  0.00     0.131 C 
HETATM    2  O   UNL     1      61.680  11.634   4.146  1.00  0.00    -0.298 OA
HETATM    3  O   UNL     1      62.349   8.343   1.962  1.00  0.00    -0.390 OA
HETATM    4  C   UNL     1      61.970  10.731   1.948  1.00  0.00     0.104 C 
HETATM    5  C   UNL     1      62.755   9.498   4.052  1.00  0.00     0.104 C 
HETATM    6  C   UNL     1      62.242   8.238   3.383  1.00  0.00     0.175 C 
HETATM    7  C   UNL     1      61.504   9.378   1.452  1.00  0.00     0.175 C 
ENDROOT
TORSDOF 0
ENDMDL
MODEL 4
REMARK VINA RESULT:      -2.9      5.222      6.682
REMARK  0 active torsions:
REMARK  status: ('A' for Active; 'I' for Inactive)
ROOT
HETATM    1  C   UNL     1      66.355   7.120   7.588  1.00  0.00     0.131 C 
HETATM    2  O   UNL     1      66.596   8.185   7.020  1.00  0.00    -0.298 OA
HETATM    3  O   UNL     1      66.222   4.487   8.514  1.00  0.00    -0.390 OA
HETATM    4  C   UNL     1      67.056   6.730   8.864  1.00  0.00     0.104 C 
HETATM    5  C   UNL     1      65.241   6.216   7.130  1.00  0.00     0.104 C 
HETATM    6  C   UNL     1      65.712   4.777   7.211  1.00  0.00     0.175 C 
HETATM    7  C   UNL     1      67.395   5.255   8.796  1.00  0.00     0.175 C 
ENDROOT
TORSDOF 0
ENDMDL
MODEL 5
REMARK VINA RESULT:      -2.7     12.429     13.018
REMARK  0 active torsions:
REMARK  status: ('A' for Active; 'I' for Inactive)
ROOT
HETATM    1  C   UNL     1      57.760   2.403  12.077  1.00  0.00     0.131 C 
HETATM    2  O   UNL     1      57.790   3.332  11.270  1.00  0.00    -0.298 OA
HETATM    3  O   UNL     1      57.541   0.718  14.297  1.00  0.00    -0.390 OA
HETATM    4  C   UNL     1      56.521   1.568  12.275  1.00  0.00     0.104 C 
HETATM    5  C   UNL     1      58.999   1.948  12.804  1.00  0.00     0.104 C 
HETATM    6  C   UNL     1      58.637   1.633  14.242  1.00  0.00     0.175 C 
HETATM    7  C   UNL     1      56.351   1.299  13.756  1.00  0.00     0.175 C 
ENDROOT
TORSDOF 0
ENDMDL
MODEL 6
REMARK VINA RESULT:      -2.6      1.929      2.678
REMARK  0 active torsions:
REMARK  status: ('A' for Active; 'I' for Inactive)
ROOT
HETATM    1  C   UNL     1      61.924   9.720   3.766  1.00  0.00     0.131 C 
HETATM    2  O   UNL     1      62.532  10.009   4.796  1.00  0.00    -0.298 OA
HETATM    3  O   UNL     1      61.049   8.791   1.279  1.00  0.00    -0.390 OA
HETATM    4  C   UNL     1      61.058   8.489   3.679  1.00  0.00     0.104 C 
HETATM    5  C   UNL     1      61.884  10.653   2.584  1.00  0.00     0.104 C 
HETATM    6  C   UNL     1      62.019   9.840   1.311  1.00  0.00     0.175 C 
HETATM    7  C   UNL     1      61.273   7.842   2.325  1.00  0.00     0.175 C 
ENDROOT
TORSDOF 0
ENDMDL
MODEL 7
REMARK VINA RESULT:      -2.6      1.579      2.430
REMARK  0 active torsions:
REMARK  status: ('A' for Active; 'I' for Inactive)
ROOT
HETATM    1  C   UNL     1      63.503   8.018   3.732  1.00  0.00     0.131 C 
HETATM    2  O   UNL     1      63.799   6.826   3.654  1.00  0.00    -0.298 OA
HETATM    3  O   UNL     1      62.384  10.528   4.244  1.00  0.00    -0.390 OA
HETATM    4  C   UNL     1      64.100   8.912   4.788  1.00  0.00     0.104 C 
HETATM    5  C   UNL     1      62.649   8.690   2.689  1.00  0.00     0.104 C 
HETATM    6  C   UNL     1      61.683   9.633   3.378  1.00  0.00     0.175 C 
HETATM    7  C   UNL     1      63.013   9.824   5.320  1.00  0.00     0.175 C 
ENDROOT
TORSDOF 0
ENDMDL
MODEL 8
REMARK VINA RESULT:      -2.6     12.684     13.175
REMARK  0 active torsions:
REMARK  status: ('A' for Active; 'I' for Inactive)
ROOT
HETATM    1  C   UNL     1      59.126   1.468  13.273  1.00  0.00     0.131 C 
HETATM    2  O   UNL     1      60.331   1.253  13.136  1.00  0.00    -0.298 OA
HETATM    3  O   UNL     1      56.331   1.439  13.299  1.00  0.00    -0.390 OA
HETATM    4  C   UNL     1      58.385   1.048  14.516  1.00  0.00     0.104 C 
HETATM    5  C   UNL     1      58.354   2.296  12.278  1.00  0.00     0.104 C 
HETATM    6  C   UNL     1      56.998   1.656  12.054  1.00  0.00     0.175 C 
HETATM    7  C   UNL     1      57.035   0.493  14.109  1.00  0.00     0.175 C 
ENDROOT
TORSDOF 0
ENDMDL
MODEL 9
REMARK VINA RESULT:      -2.6     13.266     14.025
REMARK  0 active torsions:
REMARK  status: ('A' for Active; 'I' for Inactive)
ROOT
HETATM    1  C   UNL     1      57.806   0.305  14.128  1.00  0.00     0.131 C 
HETATM    2  O   UNL     1      56.615   0.176  14.410  1.00  0.00    -0.298 OA
HETATM    3  O   UNL     1      60.306   0.685  12.937  1.00  0.00    -0.390 OA
HETATM    4  C   UNL     1      58.503   1.637  14.239  1.00  0.00     0.104 C 
HETATM    5  C   UNL     1      58.674  -0.882  13.803  1.00  0.00     0.104 C 
HETATM    6  C   UNL     1      59.592  -0.519  12.651  1.00  0.00     0.175 C 
HETATM    7  C   UNL     1      59.420   1.803  13.044  1.00  0.00     0.175 C 
ENDROOT
TORSDOF 0
ENDMDL
