MODEL 1
REMARK VINA RESULT:      -6.4      0.000      0.000
REMARK  3 active torsions:
REMARK  status: ('A' for Active; 'I' for Inactive)
REMARK    1  A    between atoms: C_3  and  C_7 
REMARK    2  A    between atoms: C_4  and  C_9 
REMARK    3  A    between atoms: C_7  and  C_8 
REMARK       I    between atoms: C_8  and  N_13 
ROOT
HETATM    1  N   UNL     1      64.103   8.209   5.660  1.00  0.00    -0.352 N 
ATOM      2  HN  UNL     1      64.667   9.050   5.779  1.00  0.00     0.166 HD
HETATM    3  C   UNL     1      64.307   7.065   6.288  1.00  0.00     0.060 A 
HETATM    4  C   UNL     1      63.007   8.099   4.813  1.00  0.00     0.049 A 
HETATM    5  S   UNL     1      63.162   5.828   5.954  1.00  0.00    -0.086 SA
HETATM    6  C   UNL     1      62.358   6.880   4.866  1.00  0.00     0.081 A 
ENDROOT
BRANCH   4   7
HETATM    7  C   UNL     1      62.590   9.210   3.962  1.00  0.00    -0.009 A 
HETATM    8  C   UNL     1      62.403   9.049   2.578  1.00  0.00     0.017 A 
HETATM    9  C   UNL     1      62.006  10.129   1.784  1.00  0.00     0.043 A 
HETATM   10  C   UNL     1      61.798  11.371   2.368  1.00  0.00     0.116 A 
HETATM   11  C   UNL     1      61.985  11.557   3.732  1.00  0.00     0.043 A 
HETATM   12  F   UNL     1      61.415  12.404   1.606  1.00  0.00    -0.206 F 
HETATM   13  C   UNL     1      62.385  10.479   4.526  1.00  0.00     0.017 A 
ENDBRANCH   4   7
BRANCH   3  14
HETATM   14  C   UNL     1      65.444   6.812   7.219  1.00  0.00     0.167 C 
BRANCH  14  15
HETATM   15  C   UNL     1      66.619   7.679   6.831  1.00  0.00     0.221 C 
HETATM   16  O   UNL     1      66.577   8.905   6.822  1.00  0.00    -0.273 OA
HETATM   17  N   UNL     1      67.781   7.020   6.543  1.00  0.00    -0.370 N 
HETATM   18  H   UNL     1      67.804   6.035   6.553  1.00  0.00     0.159 HD
HETATM   19  H   UNL     1      68.594   7.528   6.325  1.00  0.00     0.159 HD
ENDBRANCH  14  15
ENDBRANCH   3  14
TORSDOF 3
ENDMDL
MODEL 2
REMARK VINA RESULT:      -6.4      0.187      1.222
REMARK  3 active torsions:
REMARK  status: ('A' for Active; 'I' for Inactive)
REMARK    1  A    between atoms: C_3  and  C_7 
REMARK    2  A    between atoms: C_4  and  C_9 
REMARK    3  A    between atoms: C_7  and  C_8 
REMARK       I    between atoms: C_8  and  N_13 
ROOT
HETATM    1  N   UNL     1      64.027   8.212   5.670  1.00  0.00    -0.352 N 
ATOM      2  HN  UNL     1      64.464   9.093   5.941  1.00  0.00     0.166 HD
HETATM    3  C   UNL     1      64.293   7.038   6.212  1.00  0.00     0.060 A 
HETATM    4  C   UNL     1      63.066   8.072   4.677  1.00  0.00     0.049 A 
HETATM    5  S   UNL     1      63.361   5.723   5.614  1.00  0.00    -0.086 SA
HETATM    6  C   UNL     1      62.573   6.790   4.530  1.00  0.00     0.081 A 
ENDROOT
BRANCH   4   7
HETATM    7  C   UNL     1      62.622   9.215   3.883  1.00  0.00    -0.009 A 
HETATM    8  C   UNL     1      62.382  10.470   4.468  1.00  0.00     0.017 A 
HETATM    9  C   UNL     1      61.955  11.549   3.687  1.00  0.00     0.043 A 
HETATM   10  C   UNL     1      61.765  11.376   2.323  1.00  0.00     0.116 A 
HETATM   11  C   UNL     1      61.988  10.143   1.724  1.00  0.00     0.043 A 
HETATM   12  F   UNL     1      61.360  12.411   1.577  1.00  0.00    -0.206 F 
HETATM   13  C   UNL     1      62.411   9.063   2.504  1.00  0.00     0.017 A 
ENDBRANCH   4   7
BRANCH   3  14
HETATM   14  C   UNL     1      65.330   6.815   7.261  1.00  0.00     0.167 C 
BRANCH  14  15
HETATM   15  C   UNL     1      66.573   7.603   6.920  1.00  0.00     0.221 C 
HETATM   16  O   UNL     1      66.576   8.819   6.759  1.00  0.00    -0.273 OA
HETATM   17  N   UNL     1      67.737   6.889   6.859  1.00  0.00    -0.370 N 
HETATM   18  H   UNL     1      67.723   5.913   6.990  1.00  0.00     0.159 HD
HETATM   19  H   UNL     1      68.588   7.349   6.683  1.00  0.00     0.159 HD
ENDBRANCH  14  15
ENDBRANCH   3  14
TORSDOF 3
ENDMDL
MODEL 3
REMARK VINA RESULT:      -5.5      3.640      6.081
REMARK  3 active torsions:
REMARK  status: ('A' for Active; 'I' for Inactive)
REMARK    1  A    between atoms: C_3  and  C_7 
REMARK    2  A    between atoms: C_4  and  C_9 
REMARK    3  A    between atoms: C_7  and  C_8 
REMARK       I    between atoms: C_8  and  N_13 
ROOT
HETATM    1  N   UNL     1      63.335   8.763   3.729  1.00  0.00    -0.352 N 
ATOM      2  HN  UNL     1      64.142   9.362   3.555  1.00  0.00     0.166 HD
HETATM    3  C   UNL     1      62.190   8.829   3.076  1.00  0.00     0.060 A 
HETATM    4  C   UNL     1      63.279   7.759   4.688  1.00  0.00     0.049 A 
HETATM    5  S   UNL     1      61.018   7.654   3.523  1.00  0.00    -0.086 SA
HETATM    6  C   UNL     1      62.102   7.037   4.697  1.00  0.00     0.081 A 
ENDROOT
BRANCH   4   7
HETATM    7  C   UNL     1      64.403   7.504   5.587  1.00  0.00    -0.009 A 
HETATM    8  C   UNL     1      64.314   6.567   6.630  1.00  0.00     0.017 A 
HETATM    9  C   UNL     1      65.402   6.341   7.478  1.00  0.00     0.043 A 
HETATM   10  C   UNL     1      66.579   7.053   7.288  1.00  0.00     0.116 A 
HETATM   11  C   UNL     1      66.687   7.991   6.270  1.00  0.00     0.043 A 
HETATM   12  F   UNL     1      67.621   6.834   8.100  1.00  0.00    -0.206 F 
HETATM   13  C   UNL     1      65.599   8.219   5.423  1.00  0.00     0.017 A 
ENDBRANCH   4   7
BRANCH   3  14
HETATM   14  C   UNL     1      61.882   9.843   2.026  1.00  0.00     0.167 C 
BRANCH  14  15
HETATM   15  C   UNL     1      61.775  11.211   2.657  1.00  0.00     0.221 C 
HETATM   16  O   UNL     1      61.727  11.390   3.870  1.00  0.00    -0.273 OA
HETATM   17  N   UNL     1      61.797  12.272   1.797  1.00  0.00    -0.370 N 
HETATM   18  H   UNL     1      61.836  12.117   0.825  1.00  0.00     0.159 HD
HETATM   19  H   UNL     1      61.774  13.191   2.147  1.00  0.00     0.159 HD
ENDBRANCH  14  15
ENDBRANCH   3  14
TORSDOF 3
ENDMDL
MODEL 4
REMARK VINA RESULT:      -5.4      2.888      3.694
REMARK  3 active torsions:
REMARK  status: ('A' for Active; 'I' for Inactive)
REMARK    1  A    between atoms: C_3  and  C_7 
REMARK    2  A    between atoms: C_4  and  C_9 
REMARK    3  A    between atoms: C_7  and  C_8 
REMARK       I    between atoms: C_8  and  N_13 
ROOT
HETATM    1  N   UNL     1      61.748   7.168   5.077  1.00  0.00    -0.352 N 
ATOM      2  HN  UNL     1      60.785   7.171   4.742  1.00  0.00     0.166 HD
HETATM    3  C   UNL     1      62.260   6.273   5.901  1.00  0.00     0.060 A 
HETATM    4  C   UNL     1      62.714   8.106   4.731  1.00  0.00     0.049 A 
HETATM    5  S   UNL     1      63.933   6.463   6.248  1.00  0.00    -0.086 SA
HETATM    6  C   UNL     1      63.967   7.861   5.257  1.00  0.00     0.081 A 
ENDROOT
BRANCH   4   7
HETATM    7  C   UNL     1      62.397   9.238   3.864  1.00  0.00    -0.009 A 
HETATM    8  C   UNL     1      62.242   9.081   2.476  1.00  0.00     0.017 A 
HETATM    9  C   UNL     1      61.941  10.181   1.665  1.00  0.00     0.043 A 
HETATM   10  C   UNL     1      61.797  11.437   2.239  1.00  0.00     0.116 A 
HETATM   11  C   UNL     1      61.955  11.617   3.607  1.00  0.00     0.043 A 
HETATM   12  F   UNL     1      61.506  12.488   1.462  1.00  0.00    -0.206 F 
HETATM   13  C   UNL     1      62.259  10.520   4.417  1.00  0.00     0.017 A 
ENDBRANCH   4   7
BRANCH   3  14
HETATM   14  C   UNL     1      61.480   5.165   6.524  1.00  0.00     0.167 C 
BRANCH  14  15
HETATM   15  C   UNL     1      60.048   5.601   6.719  1.00  0.00     0.221 C 
HETATM   16  O   UNL     1      59.202   5.555   5.831  1.00  0.00    -0.273 OA
HETATM   17  N   UNL     1      59.710   6.003   7.981  1.00  0.00    -0.370 N 
HETATM   18  H   UNL     1      60.396   6.037   8.687  1.00  0.00     0.159 HD
HETATM   19  H   UNL     1      58.782   6.260   8.185  1.00  0.00     0.159 HD
ENDBRANCH  14  15
ENDBRANCH   3  14
TORSDOF 3
ENDMDL
MODEL 5
REMARK VINA RESULT:      -4.9      5.135      6.619
REMARK  3 active torsions:
REMARK  status: ('A' for Active; 'I' for Inactive)
REMARK    1  A    between atoms: C_3  and  C_7 
REMARK    2  A    between atoms: C_4  and  C_9 
REMARK    3  A    between atoms: C_7  and  C_8 
REMARK       I    between atoms: C_8  and  N_13 
ROOT
HETATM    1  N   UNL     1      60.532   8.376   3.190  1.00  0.00    -0.352 N 
ATOM      2  HN  UNL     1      60.931   8.713   4.066  1.00  0.00     0.166 HD
HETATM    3  C   UNL     1      60.960   8.708   1.986  1.00  0.00     0.060 A 
HETATM    4  C   UNL     1      59.459   7.498   3.090  1.00  0.00     0.049 A 
HETATM    5  S   UNL     1      60.152   7.938   0.679  1.00  0.00    -0.086 SA
HETATM    6  C   UNL     1      59.135   7.131   1.798  1.00  0.00     0.081 A 
ENDROOT
BRANCH   4   7
HETATM    7  C   UNL     1      58.765   7.008   4.278  1.00  0.00    -0.009 A 
HETATM    8  C   UNL     1      59.367   6.093   5.159  1.00  0.00     0.017 A 
HETATM    9  C   UNL     1      58.681   5.637   6.289  1.00  0.00     0.043 A 
HETATM   10  C   UNL     1      57.393   6.091   6.540  1.00  0.00     0.116 A 
HETATM   11  C   UNL     1      56.774   6.989   5.679  1.00  0.00     0.043 A 
HETATM   12  F   UNL     1      56.739   5.656   7.624  1.00  0.00    -0.206 F 
HETATM   13  C   UNL     1      57.458   7.443   4.547  1.00  0.00     0.017 A 
ENDBRANCH   4   7
BRANCH   3  14
HETATM   14  C   UNL     1      62.053   9.689   1.727  1.00  0.00     0.167 C 
BRANCH  14  15
HETATM   15  C   UNL     1      61.815  10.940   2.539  1.00  0.00     0.221 C 
HETATM   16  O   UNL     1      61.681  10.936   3.759  1.00  0.00    -0.273 OA
HETATM   17  N   UNL     1      61.817  12.116   1.843  1.00  0.00    -0.370 N 
HETATM   18  H   UNL     1      61.926  12.108   0.864  1.00  0.00     0.159 HD
HETATM   19  H   UNL     1      61.709  12.970   2.319  1.00  0.00     0.159 HD
ENDBRANCH  14  15
ENDBRANCH   3  14
TORSDOF 3
ENDMDL
MODEL 6
REMARK VINA RESULT:      -4.8      5.039      6.268
REMARK  3 active torsions:
REMARK  status: ('A' for Active; 'I' for Inactive)
REMARK    1  A    between atoms: C_3  and  C_7 
REMARK    2  A    between atoms: C_4  and  C_9 
REMARK    3  A    between atoms: C_7  and  C_8 
REMARK       I    between atoms: C_8  and  N_13 
ROOT
HETATM    1  N   UNL     1      60.148   8.421   3.196  1.00  0.00    -0.352 N 
ATOM      2  HN  UNL     1      59.568   9.131   2.750  1.00  0.00     0.166 HD
HETATM    3  C   UNL     1      61.466   8.455   3.264  1.00  0.00     0.060 A 
HETATM    4  C   UNL     1      59.668   7.276   3.820  1.00  0.00     0.049 A 
HETATM    5  S   UNL     1      62.192   7.163   4.135  1.00  0.00    -0.086 SA
HETATM    6  C   UNL     1      60.639   6.491   4.410  1.00  0.00     0.081 A 
ENDROOT
BRANCH   4   7
HETATM    7  C   UNL     1      58.240   6.968   3.847  1.00  0.00    -0.009 A 
HETATM    8  C   UNL     1      57.475   6.918   2.669  1.00  0.00     0.017 A 
HETATM    9  C   UNL     1      56.109   6.623   2.721  1.00  0.00     0.043 A 
HETATM   10  C   UNL     1      55.505   6.380   3.947  1.00  0.00     0.116 A 
HETATM   11  C   UNL     1      56.239   6.433   5.125  1.00  0.00     0.043 A 
HETATM   12  F   UNL     1      54.197   6.095   3.995  1.00  0.00    -0.206 F 
HETATM   13  C   UNL     1      57.604   6.731   5.075  1.00  0.00     0.017 A 
ENDBRANCH   4   7
BRANCH   3  14
HETATM   14  C   UNL     1      62.311   9.510   2.634  1.00  0.00     0.167 C 
BRANCH  14  15
HETATM   15  C   UNL     1      61.830  10.873   3.073  1.00  0.00     0.221 C 
HETATM   16  O   UNL     1      61.680  11.187   4.250  1.00  0.00    -0.273 OA
HETATM   17  N   UNL     1      61.625  11.786   2.077  1.00  0.00    -0.370 N 
HETATM   18  H   UNL     1      61.749  11.524   1.136  1.00  0.00     0.159 HD
HETATM   19  H   UNL     1      61.352  12.705   2.300  1.00  0.00     0.159 HD
ENDBRANCH  14  15
ENDBRANCH   3  14
TORSDOF 3
ENDMDL
MODEL 7
REMARK VINA RESULT:      -4.8      5.004      6.088
REMARK  3 active torsions:
REMARK  status: ('A' for Active; 'I' for Inactive)
REMARK    1  A    between atoms: C_3  and  C_7 
REMARK    2  A    between atoms: C_4  and  C_9 
REMARK    3  A    between atoms: C_7  and  C_8 
REMARK       I    between atoms: C_8  and  N_13 
ROOT
HETATM    1  N   UNL     1      60.575   8.221   3.310  1.00  0.00    -0.352 N 
ATOM      2  HN  UNL     1      60.363   8.092   4.300  1.00  0.00     0.166 HD
HETATM    3  C   UNL     1      61.715   8.687   2.835  1.00  0.00     0.060 A 
HETATM    4  C   UNL     1      59.706   7.930   2.265  1.00  0.00     0.049 A 
HETATM    5  S   UNL     1      61.833   8.736   1.122  1.00  0.00    -0.086 SA
HETATM    6  C   UNL     1      60.236   8.126   1.005  1.00  0.00     0.081 A 
ENDROOT
BRANCH   4   7
HETATM    7  C   UNL     1      58.353   7.441   2.517  1.00  0.00    -0.009 A 
HETATM    8  C   UNL     1      57.842   7.324   3.821  1.00  0.00     0.017 A 
HETATM    9  C   UNL     1      56.543   6.851   4.036  1.00  0.00     0.043 A 
HETATM   10  C   UNL     1      55.755   6.491   2.951  1.00  0.00     0.116 A 
HETATM   11  C   UNL     1      56.242   6.590   1.654  1.00  0.00     0.043 A 
HETATM   12  F   UNL     1      54.511   6.041   3.159  1.00  0.00    -0.206 F 
HETATM   13  C   UNL     1      57.541   7.060   1.437  1.00  0.00     0.017 A 
ENDBRANCH   4   7
BRANCH   3  14
HETATM   14  C   UNL     1      62.844   9.165   3.685  1.00  0.00     0.167 C 
BRANCH  14  15
HETATM   15  C   UNL     1      62.420  10.400   4.444  1.00  0.00     0.221 C 
HETATM   16  O   UNL     1      61.534  11.156   4.058  1.00  0.00    -0.273 OA
HETATM   17  N   UNL     1      63.041  10.610   5.644  1.00  0.00    -0.370 N 
HETATM   18  H   UNL     1      63.750   9.996   5.944  1.00  0.00     0.159 HD
HETATM   19  H   UNL     1      62.780  11.373   6.206  1.00  0.00     0.159 HD
ENDBRANCH  14  15
ENDBRANCH   3  14
TORSDOF 3
ENDMDL
MODEL 8
REMARK VINA RESULT:      -4.8      2.484      2.998
REMARK  3 active torsions:
REMARK  status: ('A' for Active; 'I' for Inactive)
REMARK    1  A    between atoms: C_3  and  C_7 
REMARK    2  A    between atoms: C_4  and  C_9 
REMARK    3  A    between atoms: C_7  and  C_8 
REMARK       I    between atoms: C_8  and  N_13 
ROOT
HETATM    1  N   UNL     1      62.689   6.794   5.126  1.00  0.00    -0.352 N 
ATOM      2  HN  UNL     1      61.793   6.566   4.696  1.00  0.00     0.166 HD
HETATM    3  C   UNL     1      63.354   6.007   5.951  1.00  0.00     0.060 A 
HETATM    4  C   UNL     1      63.389   7.978   4.927  1.00  0.00     0.049 A 
HETATM    5  S   UNL     1      64.876   6.608   6.475  1.00  0.00    -0.086 SA
HETATM    6  C   UNL     1      64.613   8.036   5.564  1.00  0.00     0.081 A 
ENDROOT
BRANCH   4   7
HETATM    7  C   UNL     1      62.852   9.047   4.089  1.00  0.00    -0.009 A 
HETATM    8  C   UNL     1      62.544  10.312   4.617  1.00  0.00     0.017 A 
HETATM    9  C   UNL     1      62.028  11.319   3.796  1.00  0.00     0.043 A 
HETATM   10  C   UNL     1      61.817  11.064   2.447  1.00  0.00     0.116 A 
HETATM   11  C   UNL     1      62.105   9.818   1.905  1.00  0.00     0.043 A 
HETATM   12  F   UNL     1      61.325  12.030   1.662  1.00  0.00    -0.206 F 
HETATM   13  C   UNL     1      62.618   8.810   2.726  1.00  0.00     0.017 A 
ENDBRANCH   4   7
BRANCH   3  14
HETATM   14  C   UNL     1      62.854   4.688   6.436  1.00  0.00     0.167 C 
BRANCH  14  15
HETATM   15  C   UNL     1      63.914   3.634   6.219  1.00  0.00     0.221 C 
HETATM   16  O   UNL     1      64.346   3.332   5.111  1.00  0.00    -0.273 OA
HETATM   17  N   UNL     1      64.429   3.060   7.348  1.00  0.00    -0.370 N 
HETATM   18  H   UNL     1      64.075   3.310   8.232  1.00  0.00     0.159 HD
HETATM   19  H   UNL     1      65.152   2.397   7.277  1.00  0.00     0.159 HD
ENDBRANCH  14  15
ENDBRANCH   3  14
TORSDOF 3
ENDMDL
MODEL 9
REMARK VINA RESULT:      -4.7     13.219     14.737
REMARK  3 active torsions:
REMARK  status: ('A' for Active; 'I' for Inactive)
REMARK    1  A    between atoms: C_3  and  C_7 
REMARK    2  A    between atoms: C_4  and  C_9 
REMARK    3  A    between atoms: C_7  and  C_8 
REMARK       I    between atoms: C_8  and  N_13 
ROOT
HETATM    1  N   UNL     1      55.193   1.945  13.776  1.00  0.00    -0.352 N 
ATOM      2  HN  UNL     1      55.563   2.702  13.202  1.00  0.00     0.166 HD
HETATM    3  C   UNL     1      53.965   1.893  14.258  1.00  0.00     0.060 A 
HETATM    4  C   UNL     1      55.906   0.818  14.166  1.00  0.00     0.049 A 
HETATM    5  S   UNL     1      53.578   0.468  15.138  1.00  0.00    -0.086 SA
HETATM    6  C   UNL     1      55.175  -0.104  14.889  1.00  0.00     0.081 A 
ENDROOT
BRANCH   4   7
HETATM    7  C   UNL     1      57.311   0.646  13.805  1.00  0.00    -0.009 A 
HETATM    8  C   UNL     1      57.880  -0.630  13.646  1.00  0.00     0.017 A 
HETATM    9  C   UNL     1      59.228  -0.769  13.302  1.00  0.00     0.043 A 
HETATM   10  C   UNL     1      60.010   0.364  13.119  1.00  0.00     0.116 A 
HETATM   11  C   UNL     1      59.472   1.634  13.280  1.00  0.00     0.043 A 
HETATM   12  F   UNL     1      61.301   0.229  12.788  1.00  0.00    -0.206 F 
HETATM   13  C   UNL     1      58.125   1.775  13.627  1.00  0.00     0.017 A 
ENDBRANCH   4   7
BRANCH   3  14
HETATM   14  C   UNL     1      52.952   2.976  14.090  1.00  0.00     0.167 C 
BRANCH  14  15
HETATM   15  C   UNL     1      53.632   4.235  13.606  1.00  0.00     0.221 C 
HETATM   16  O   UNL     1      53.871   4.459  12.424  1.00  0.00    -0.273 OA
HETATM   17  N   UNL     1      53.922   5.166  14.564  1.00  0.00    -0.370 N 
HETATM   18  H   UNL     1      53.726   4.976  15.510  1.00  0.00     0.159 HD
HETATM   19  H   UNL     1      54.327   6.026  14.308  1.00  0.00     0.159 HD
ENDBRANCH  14  15
ENDBRANCH   3  14
TORSDOF 3
ENDMDL
