MODEL 1
REMARK VINA RESULT:      -3.8      0.000      0.000
REMARK  1 active torsions:
REMARK  status: ('A' for Active; 'I' for Inactive)
REMARK    1  A    between atoms: C_1  and  C_4 
ROOT
HETATM    1  C   UNL     1      62.481  10.013   3.849  1.00  0.00     0.087 A 
HETATM    2  N   UNL     1      62.565   8.989   2.908  1.00  0.00    -0.343 N 
ATOM      3  HN  UNL     1      62.958   8.059   3.051  1.00  0.00     0.167 HD
HETATM    4  C   UNL     1      61.885  11.114   3.263  1.00  0.00     0.122 A 
HETATM    5  C   UNL     1      62.036   9.461   1.798  1.00  0.00     0.077 A 
HETATM    6  N   UNL     1      61.610  10.751   1.975  1.00  0.00    -0.354 N 
HETATM    7  C   UNL     1      61.888   8.756   0.503  1.00  0.00     0.089 C 
HETATM    8  H   UNL     1      61.180  11.318   1.294  1.00  0.00     0.166 HD
ENDROOT
BRANCH   1   9
HETATM    9  C   UNL     1      62.979   9.836   5.205  1.00  0.00     0.122 C 
HETATM   10  S   UNL     1      63.138   8.338   5.900  1.00  0.00    -0.059 SA
HETATM   11  N   UNL     1      63.307  10.982   5.870  1.00  0.00    -0.388 N 
HETATM   12  H   UNL     1      63.200  11.856   5.428  1.00  0.00     0.157 HD
HETATM   13  H   UNL     1      63.650  10.935   6.792  1.00  0.00     0.157 HD
ENDBRANCH   1   9
TORSDOF 1
ENDMDL
MODEL 2
REMARK VINA RESULT:      -3.8      1.793      2.306
REMARK  1 active torsions:
REMARK  status: ('A' for Active; 'I' for Inactive)
REMARK    1  A    between atoms: C_1  and  C_4 
ROOT
HETATM    1  C   UNL     1      62.816   9.503   4.906  1.00  0.00     0.087 A 
HETATM    2  N   UNL     1      62.388   9.649   3.588  1.00  0.00    -0.343 N 
ATOM      3  HN  UNL     1      62.289   8.910   2.893  1.00  0.00     0.167 HD
HETATM    4  C   UNL     1      62.811  10.742   5.520  1.00  0.00     0.122 A 
HETATM    5  C   UNL     1      62.136  10.930   3.420  1.00  0.00     0.077 A 
HETATM    6  N   UNL     1      62.381  11.628   4.573  1.00  0.00    -0.354 N 
HETATM    7  C   UNL     1      61.654  11.596   2.187  1.00  0.00     0.089 C 
HETATM    8  H   UNL     1      62.268  12.598   4.699  1.00  0.00     0.166 HD
ENDROOT
BRANCH   1   9
HETATM    9  C   UNL     1      63.184   8.201   5.442  1.00  0.00     0.122 C 
HETATM   10  S   UNL     1      62.192   6.877   5.309  1.00  0.00    -0.059 SA
HETATM   11  N   UNL     1      64.398   8.137   6.061  1.00  0.00    -0.388 N 
HETATM   12  H   UNL     1      64.963   8.942   6.123  1.00  0.00     0.157 HD
HETATM   13  H   UNL     1      64.710   7.287   6.446  1.00  0.00     0.157 HD
ENDBRANCH   1   9
TORSDOF 1
ENDMDL
MODEL 3
REMARK VINA RESULT:      -3.7      2.086      3.687
REMARK  1 active torsions:
REMARK  status: ('A' for Active; 'I' for Inactive)
REMARK    1  A    between atoms: C_1  and  C_4 
ROOT
HETATM    1  C   UNL     1      62.549   9.845   3.617  1.00  0.00     0.087 A 
HETATM    2  N   UNL     1      63.342   8.709   3.760  1.00  0.00    -0.343 N 
ATOM      3  HN  UNL     1      63.526   7.999   3.051  1.00  0.00     0.167 HD
HETATM    4  C   UNL     1      62.555  10.551   4.806  1.00  0.00     0.122 A 
HETATM    5  C   UNL     1      63.807   8.734   4.992  1.00  0.00     0.077 A 
HETATM    6  N   UNL     1      63.351   9.841   5.660  1.00  0.00    -0.354 N 
HETATM    7  C   UNL     1      64.701   7.743   5.634  1.00  0.00     0.089 C 
HETATM    8  H   UNL     1      63.560  10.082   6.591  1.00  0.00     0.166 HD
ENDROOT
BRANCH   1   9
HETATM    9  C   UNL     1      61.867  10.139   2.365  1.00  0.00     0.122 C 
HETATM   10  S   UNL     1      61.531   8.962   1.244  1.00  0.00    -0.059 SA
HETATM   11  N   UNL     1      61.523  11.445   2.170  1.00  0.00    -0.388 N 
HETATM   12  H   UNL     1      61.737  12.118   2.856  1.00  0.00     0.157 HD
HETATM   13  H   UNL     1      61.059  11.713   1.344  1.00  0.00     0.157 HD
ENDBRANCH   1   9
TORSDOF 1
ENDMDL
MODEL 4
REMARK VINA RESULT:      -3.7      4.418      6.243
REMARK  1 active torsions:
REMARK  status: ('A' for Active; 'I' for Inactive)
REMARK    1  A    between atoms: C_1  and  C_4 
ROOT
HETATM    1  C   UNL     1      65.764   7.781   5.946  1.00  0.00     0.087 A 
HETATM    2  N   UNL     1      65.567   7.278   7.230  1.00  0.00    -0.343 N 
ATOM      3  HN  UNL     1      64.676   7.168   7.714  1.00  0.00     0.167 HD
HETATM    4  C   UNL     1      67.116   7.765   5.659  1.00  0.00     0.122 A 
HETATM    5  C   UNL     1      66.760   6.971   7.695  1.00  0.00     0.077 A 
HETATM    6  N   UNL     1      67.729   7.253   6.768  1.00  0.00    -0.354 N 
HETATM    7  C   UNL     1      67.087   6.400   9.023  1.00  0.00     0.089 C 
HETATM    8  H   UNL     1      68.697   7.112   6.880  1.00  0.00     0.166 HD
ENDROOT
BRANCH   1   9
HETATM    9  C   UNL     1      64.645   8.225   5.128  1.00  0.00     0.122 C 
HETATM   10  S   UNL     1      64.062   7.322   3.863  1.00  0.00    -0.059 SA
HETATM   11  N   UNL     1      64.105   9.431   5.466  1.00  0.00    -0.388 N 
HETATM   12  H   UNL     1      64.476   9.942   6.223  1.00  0.00     0.157 HD
HETATM   13  H   UNL     1      63.345   9.792   4.954  1.00  0.00     0.157 HD
ENDBRANCH   1   9
TORSDOF 1
ENDMDL
MODEL 5
REMARK VINA RESULT:      -3.7      2.957      4.248
REMARK  1 active torsions:
REMARK  status: ('A' for Active; 'I' for Inactive)
REMARK    1  A    between atoms: C_1  and  C_4 
ROOT
HETATM    1  C   UNL     1      63.863   9.162   5.026  1.00  0.00     0.087 A 
HETATM    2  N   UNL     1      64.958   9.040   5.879  1.00  0.00    -0.343 N 
ATOM      3  HN  UNL     1      65.294   9.734   6.546  1.00  0.00     0.167 HD
HETATM    4  C   UNL     1      63.741   8.004   4.282  1.00  0.00     0.122 A 
HETATM    5  C   UNL     1      65.473   7.849   5.652  1.00  0.00     0.077 A 
HETATM    6  N   UNL     1      64.759   7.188   4.687  1.00  0.00    -0.354 N 
HETATM    7  C   UNL     1      66.655   7.242   6.308  1.00  0.00     0.089 C 
HETATM    8  H   UNL     1      64.947   6.284   4.345  1.00  0.00     0.166 HD
ENDROOT
BRANCH   1   9
HETATM    9  C   UNL     1      63.049  10.369   5.009  1.00  0.00     0.122 C 
HETATM   10  S   UNL     1      61.964  10.686   3.794  1.00  0.00    -0.059 SA
HETATM   11  N   UNL     1      63.236  11.224   6.056  1.00  0.00    -0.388 N 
HETATM   12  H   UNL     1      63.888  11.005   6.760  1.00  0.00     0.157 HD
HETATM   13  H   UNL     1      62.717  12.059   6.107  1.00  0.00     0.157 HD
ENDBRANCH   1   9
TORSDOF 1
ENDMDL
MODEL 6
REMARK VINA RESULT:      -3.4      3.245      4.351
REMARK  1 active torsions:
REMARK  status: ('A' for Active; 'I' for Inactive)
REMARK    1  A    between atoms: C_1  and  C_4 
ROOT
HETATM    1  C   UNL     1      65.185   7.863   5.747  1.00  0.00     0.087 A 
HETATM    2  N   UNL     1      64.703   9.151   5.522  1.00  0.00    -0.343 N 
ATOM      3  HN  UNL     1      65.203  10.026   5.675  1.00  0.00     0.167 HD
HETATM    4  C   UNL     1      64.202   6.950   5.418  1.00  0.00     0.122 A 
HETATM    5  C   UNL     1      63.473   9.012   5.073  1.00  0.00     0.077 A 
HETATM    6  N   UNL     1      63.132   7.687   4.995  1.00  0.00    -0.354 N 
HETATM    7  C   UNL     1      62.532  10.089   4.686  1.00  0.00     0.089 C 
HETATM    8  H   UNL     1      62.268   7.328   4.688  1.00  0.00     0.166 HD
ENDROOT
BRANCH   1   9
HETATM    9  C   UNL     1      66.532   7.638   6.254  1.00  0.00     0.122 C 
HETATM   10  S   UNL     1      67.496   6.413   5.686  1.00  0.00    -0.059 SA
HETATM   11  N   UNL     1      66.950   8.498   7.227  1.00  0.00    -0.388 N 
HETATM   12  H   UNL     1      66.352   9.215   7.541  1.00  0.00     0.157 HD
HETATM   13  H   UNL     1      67.850   8.403   7.614  1.00  0.00     0.157 HD
ENDBRANCH   1   9
TORSDOF 1
ENDMDL
MODEL 7
REMARK VINA RESULT:      -3.3      6.283      7.664
REMARK  1 active torsions:
REMARK  status: ('A' for Active; 'I' for Inactive)
REMARK    1  A    between atoms: C_1  and  C_4 
ROOT
HETATM    1  C   UNL     1      66.669   6.357   7.310  1.00  0.00     0.087 A 
HETATM    2  N   UNL     1      67.421   5.352   6.705  1.00  0.00    -0.343 N 
ATOM      3  HN  UNL     1      67.888   5.399   5.800  1.00  0.00     0.167 HD
HETATM    4  C   UNL     1      66.207   5.901   8.530  1.00  0.00     0.122 A 
HETATM    5  C   UNL     1      67.410   4.330   7.536  1.00  0.00     0.077 A 
HETATM    6  N   UNL     1      66.681   4.626   8.659  1.00  0.00    -0.354 N 
HETATM    7  C   UNL     1      68.068   3.016   7.351  1.00  0.00     0.089 C 
HETATM    8  H   UNL     1      66.527   4.026   9.424  1.00  0.00     0.166 HD
ENDROOT
BRANCH   1   9
HETATM    9  C   UNL     1      66.468   7.645   6.661  1.00  0.00     0.122 C 
HETATM   10  S   UNL     1      65.602   7.800   5.253  1.00  0.00    -0.059 SA
HETATM   11  N   UNL     1      67.038   8.717   7.283  1.00  0.00    -0.388 N 
HETATM   12  H   UNL     1      67.545   8.589   8.118  1.00  0.00     0.157 HD
HETATM   13  H   UNL     1      66.941   9.618   6.899  1.00  0.00     0.157 HD
ENDBRANCH   1   9
TORSDOF 1
ENDMDL
MODEL 8
REMARK VINA RESULT:      -3.3      2.090      2.556
REMARK  1 active torsions:
REMARK  status: ('A' for Active; 'I' for Inactive)
REMARK    1  A    between atoms: C_1  and  C_4 
ROOT
HETATM    1  C   UNL     1      62.110   8.207   4.520  1.00  0.00     0.087 A 
HETATM    2  N   UNL     1      62.538   9.515   4.303  1.00  0.00    -0.343 N 
ATOM      3  HN  UNL     1      63.291  10.001   4.790  1.00  0.00     0.167 HD
HETATM    4  C   UNL     1      61.067   7.926   3.659  1.00  0.00     0.122 A 
HETATM    5  C   UNL     1      61.777   9.999   3.344  1.00  0.00     0.077 A 
HETATM    6  N   UNL     1      60.869   9.061   2.926  1.00  0.00    -0.354 N 
HETATM    7  C   UNL     1      61.834  11.356   2.751  1.00  0.00     0.089 C 
HETATM    8  H   UNL     1      60.193   9.184   2.220  1.00  0.00     0.166 HD
ENDROOT
BRANCH   1   9
HETATM    9  C   UNL     1      62.740   7.363   5.526  1.00  0.00     0.122 C 
HETATM   10  S   UNL     1      62.441   5.734   5.625  1.00  0.00    -0.059 SA
HETATM   11  N   UNL     1      63.591   7.997   6.384  1.00  0.00    -0.388 N 
HETATM   12  H   UNL     1      63.746   8.966   6.297  1.00  0.00     0.157 HD
HETATM   13  H   UNL     1      64.051   7.486   7.088  1.00  0.00     0.157 HD
ENDBRANCH   1   9
TORSDOF 1
ENDMDL
MODEL 9
REMARK VINA RESULT:      -3.1     12.640     13.575
REMARK  1 active torsions:
REMARK  status: ('A' for Active; 'I' for Inactive)
REMARK    1  A    between atoms: C_1  and  C_4 
ROOT
HETATM    1  C   UNL     1      56.802   2.058  13.357  1.00  0.00     0.087 A 
HETATM    2  N   UNL     1      56.745   2.642  12.093  1.00  0.00    -0.343 N 
ATOM      3  HN  UNL     1      55.906   2.923  11.587  1.00  0.00     0.167 HD
HETATM    4  C   UNL     1      58.124   1.830  13.688  1.00  0.00     0.122 A 
HETATM    5  C   UNL     1      57.991   2.760  11.683  1.00  0.00     0.077 A 
HETATM    6  N   UNL     1      58.860   2.277  12.627  1.00  0.00    -0.354 N 
HETATM    7  C   UNL     1      58.464   3.324  10.397  1.00  0.00     0.089 C 
HETATM    8  H   UNL     1      59.841   2.255  12.554  1.00  0.00     0.166 HD
ENDROOT
BRANCH   1   9
HETATM    9  C   UNL     1      55.591   1.777  14.115  1.00  0.00     0.122 C 
HETATM   10  S   UNL     1      54.948   0.251  14.220  1.00  0.00    -0.059 SA
HETATM   11  N   UNL     1      55.017   2.850  14.732  1.00  0.00    -0.388 N 
HETATM   12  H   UNL     1      55.425   3.743  14.649  1.00  0.00     0.157 HD
HETATM   13  H   UNL     1      54.195   2.731  15.262  1.00  0.00     0.157 HD
ENDBRANCH   1   9
TORSDOF 1
ENDMDL
