MODEL 1
REMARK VINA RESULT:      -5.5      0.000      0.000
REMARK  2 active torsions:
REMARK  status: ('A' for Active; 'I' for Inactive)
REMARK    1  A    between atoms: C_5  and  C_7 
REMARK    2  A    between atoms: C_7  and  C_8 
ROOT
HETATM    1  C   UNL     1      65.989   8.029   6.005  1.00  0.00     0.361 C 
HETATM    2  N   UNL     1      65.057   8.479   5.109  1.00  0.00    -0.330 N 
HETATM    3  O   UNL     1      65.402   7.188   6.906  1.00  0.00    -0.302 OA
HETATM    4  O   UNL     1      67.160   8.359   6.017  1.00  0.00    -0.239 OA
HETATM    5  C   UNL     1      63.744   8.154   5.573  1.00  0.00     0.115 C 
HETATM    6  C   UNL     1      64.037   6.992   6.504  1.00  0.00     0.206 C 
HETATM    7  H   UNL     1      65.261   8.954   4.271  1.00  0.00     0.165 HD
ENDROOT
BRANCH   5   8
HETATM    8  C   UNL     1      62.773   7.843   4.433  1.00  0.00     0.066 C 
BRANCH   8   9
HETATM    9  C   UNL     1      62.446   9.041   3.577  1.00  0.00    -0.056 A 
HETATM   10  C   UNL     1      62.195  10.289   4.159  1.00  0.00     0.007 A 
HETATM   11  C   UNL     1      61.872  11.389   3.361  1.00  0.00     0.001 A 
HETATM   12  C   UNL     1      61.793  11.249   1.976  1.00  0.00     0.000 A 
HETATM   13  C   UNL     1      62.049  10.013   1.387  1.00  0.00     0.001 A 
HETATM   14  C   UNL     1      62.377   8.914   2.182  1.00  0.00     0.007 A 
ENDBRANCH   8   9
ENDBRANCH   5   8
TORSDOF 2
ENDMDL
MODEL 2
REMARK VINA RESULT:      -5.3      1.116      1.521
REMARK  2 active torsions:
REMARK  status: ('A' for Active; 'I' for Inactive)
REMARK    1  A    between atoms: C_5  and  C_7 
REMARK    2  A    between atoms: C_7  and  C_8 
ROOT
HETATM    1  C   UNL     1      65.471   6.813   6.804  1.00  0.00     0.361 C 
HETATM    2  N   UNL     1      64.155   7.126   6.599  1.00  0.00    -0.330 N 
HETATM    3  O   UNL     1      66.259   7.527   5.949  1.00  0.00    -0.302 OA
HETATM    4  O   UNL     1      65.875   5.991   7.606  1.00  0.00    -0.239 OA
HETATM    5  C   UNL     1      64.018   7.871   5.386  1.00  0.00     0.115 C 
HETATM    6  C   UNL     1      65.416   8.439   5.228  1.00  0.00     0.206 C 
HETATM    7  H   UNL     1      63.414   6.877   7.198  1.00  0.00     0.165 HD
ENDROOT
BRANCH   5   8
HETATM    8  C   UNL     1      62.899   8.911   5.452  1.00  0.00     0.066 C 
BRANCH   8   9
HETATM    9  C   UNL     1      62.541   9.497   4.109  1.00  0.00    -0.056 A 
HETATM   10  C   UNL     1      62.173  10.843   3.991  1.00  0.00     0.007 A 
HETATM   11  C   UNL     1      61.822  11.372   2.746  1.00  0.00     0.001 A 
HETATM   12  C   UNL     1      61.831  10.561   1.613  1.00  0.00     0.000 A 
HETATM   13  C   UNL     1      62.202   9.223   1.719  1.00  0.00     0.001 A 
HETATM   14  C   UNL     1      62.559   8.693   2.961  1.00  0.00     0.007 A 
ENDBRANCH   8   9
ENDBRANCH   5   8
TORSDOF 2
ENDMDL
MODEL 3
REMARK VINA RESULT:      -4.9      2.790      5.497
REMARK  2 active torsions:
REMARK  status: ('A' for Active; 'I' for Inactive)
REMARK    1  A    between atoms: C_5  and  C_7 
REMARK    2  A    between atoms: C_7  and  C_8 
ROOT
HETATM    1  C   UNL     1      62.385  10.888   4.507  1.00  0.00     0.361 C 
HETATM    2  N   UNL     1      63.094  10.154   5.419  1.00  0.00    -0.330 N 
HETATM    3  O   UNL     1      62.255  10.188   3.344  1.00  0.00    -0.302 OA
HETATM    4  O   UNL     1      61.965  12.015   4.696  1.00  0.00    -0.239 OA
HETATM    5  C   UNL     1      63.701   9.033   4.770  1.00  0.00     0.115 C 
HETATM    6  C   UNL     1      62.812   8.880   3.550  1.00  0.00     0.206 C 
HETATM    7  H   UNL     1      63.173  10.366   6.377  1.00  0.00     0.165 HD
ENDROOT
BRANCH   5   8
HETATM    8  C   UNL     1      63.783   7.800   5.671  1.00  0.00     0.066 C 
BRANCH   8   9
HETATM    9  C   UNL     1      65.192   7.312   5.896  1.00  0.00    -0.056 A 
HETATM   10  C   UNL     1      65.515   6.558   7.031  1.00  0.00     0.007 A 
HETATM   11  C   UNL     1      66.827   6.128   7.244  1.00  0.00     0.001 A 
HETATM   12  C   UNL     1      67.826   6.451   6.328  1.00  0.00     0.000 A 
HETATM   13  C   UNL     1      67.514   7.194   5.192  1.00  0.00     0.001 A 
HETATM   14  C   UNL     1      66.202   7.620   4.974  1.00  0.00     0.007 A 
ENDBRANCH   8   9
ENDBRANCH   5   8
TORSDOF 2
ENDMDL
MODEL 4
REMARK VINA RESULT:      -4.7      1.867      3.006
REMARK  2 active torsions:
REMARK  status: ('A' for Active; 'I' for Inactive)
REMARK    1  A    between atoms: C_5  and  C_7 
REMARK    2  A    between atoms: C_7  and  C_8 
ROOT
HETATM    1  C   UNL     1      66.262   5.895   8.004  1.00  0.00     0.361 C 
HETATM    2  N   UNL     1      65.431   6.855   7.493  1.00  0.00    -0.330 N 
HETATM    3  O   UNL     1      67.196   5.544   7.074  1.00  0.00    -0.302 OA
HETATM    4  O   UNL     1      66.159   5.402   9.112  1.00  0.00    -0.239 OA
HETATM    5  C   UNL     1      65.632   6.968   6.081  1.00  0.00     0.115 C 
HETATM    6  C   UNL     1      67.033   6.405   5.936  1.00  0.00     0.206 C 
HETATM    7  H   UNL     1      64.792   7.389   8.019  1.00  0.00     0.165 HD
ENDROOT
BRANCH   5   8
HETATM    8  C   UNL     1      65.450   8.397   5.569  1.00  0.00     0.066 C 
BRANCH   8   9
HETATM    9  C   UNL     1      64.215   8.580   4.723  1.00  0.00    -0.056 A 
HETATM   10  C   UNL     1      63.910   7.677   3.697  1.00  0.00     0.007 A 
HETATM   11  C   UNL     1      62.776   7.865   2.904  1.00  0.00     0.001 A 
HETATM   12  C   UNL     1      61.942   8.960   3.125  1.00  0.00     0.000 A 
HETATM   13  C   UNL     1      62.232   9.860   4.147  1.00  0.00     0.001 A 
HETATM   14  C   UNL     1      63.362   9.670   4.945  1.00  0.00     0.007 A 
ENDBRANCH   8   9
ENDBRANCH   5   8
TORSDOF 2
ENDMDL
MODEL 5
REMARK VINA RESULT:      -4.7      3.323      5.279
REMARK  2 active torsions:
REMARK  status: ('A' for Active; 'I' for Inactive)
REMARK    1  A    between atoms: C_5  and  C_7 
REMARK    2  A    between atoms: C_7  and  C_8 
ROOT
HETATM    1  C   UNL     1      61.701  11.629   2.446  1.00  0.00     0.361 C 
HETATM    2  N   UNL     1      61.803  10.319   2.066  1.00  0.00    -0.330 N 
HETATM    3  O   UNL     1      61.982  11.754   3.775  1.00  0.00    -0.302 OA
HETATM    4  O   UNL     1      61.372  12.543   1.712  1.00  0.00    -0.239 OA
HETATM    5  C   UNL     1      61.889   9.485   3.225  1.00  0.00     0.115 C 
HETATM    6  C   UNL     1      62.401  10.468   4.260  1.00  0.00     0.206 C 
HETATM    7  H   UNL     1      61.816   9.999   1.135  1.00  0.00     0.165 HD
ENDROOT
BRANCH   5   8
HETATM    8  C   UNL     1      62.771   8.255   3.006  1.00  0.00     0.066 C 
BRANCH   8   9
HETATM    9  C   UNL     1      63.385   7.721   4.276  1.00  0.00    -0.056 A 
HETATM   10  C   UNL     1      64.761   7.837   4.509  1.00  0.00     0.007 A 
HETATM   11  C   UNL     1      65.325   7.320   5.677  1.00  0.00     0.001 A 
HETATM   12  C   UNL     1      64.521   6.681   6.619  1.00  0.00     0.000 A 
HETATM   13  C   UNL     1      63.151   6.567   6.400  1.00  0.00     0.001 A 
HETATM   14  C   UNL     1      62.583   7.087   5.236  1.00  0.00     0.007 A 
ENDBRANCH   8   9
ENDBRANCH   5   8
TORSDOF 2
ENDMDL
MODEL 6
REMARK VINA RESULT:      -4.5      3.194      5.273
REMARK  2 active torsions:
REMARK  status: ('A' for Active; 'I' for Inactive)
REMARK    1  A    between atoms: C_5  and  C_7 
REMARK    2  A    between atoms: C_7  and  C_8 
ROOT
HETATM    1  C   UNL     1      62.091   9.711   1.563  1.00  0.00     0.361 C 
HETATM    2  N   UNL     1      62.442   9.196   2.782  1.00  0.00    -0.330 N 
HETATM    3  O   UNL     1      61.672  11.001   1.705  1.00  0.00    -0.302 OA
HETATM    4  O   UNL     1      62.115   9.095   0.513  1.00  0.00    -0.239 OA
HETATM    5  C   UNL     1      61.991  10.067   3.823  1.00  0.00     0.115 C 
HETATM    6  C   UNL     1      61.869  11.382   3.076  1.00  0.00     0.206 C 
HETATM    7  H   UNL     1      62.931   8.352   2.920  1.00  0.00     0.165 HD
ENDROOT
BRANCH   5   8
HETATM    8  C   UNL     1      62.935  10.089   5.026  1.00  0.00     0.066 C 
BRANCH   8   9
HETATM    9  C   UNL     1      63.526   8.741   5.352  1.00  0.00    -0.056 A 
HETATM   10  C   UNL     1      62.741   7.736   5.932  1.00  0.00     0.007 A 
HETATM   11  C   UNL     1      63.301   6.497   6.251  1.00  0.00     0.001 A 
HETATM   12  C   UNL     1      64.650   6.254   5.998  1.00  0.00     0.000 A 
HETATM   13  C   UNL     1      65.438   7.243   5.415  1.00  0.00     0.001 A 
HETATM   14  C   UNL     1      64.879   8.480   5.090  1.00  0.00     0.007 A 
ENDBRANCH   8   9
ENDBRANCH   5   8
TORSDOF 2
ENDMDL
MODEL 7
REMARK VINA RESULT:      -4.5      2.834      5.333
REMARK  2 active torsions:
REMARK  status: ('A' for Active; 'I' for Inactive)
REMARK    1  A    between atoms: C_5  and  C_7 
REMARK    2  A    between atoms: C_7  and  C_8 
ROOT
HETATM    1  C   UNL     1      62.149  10.915   3.774  1.00  0.00     0.361 C 
HETATM    2  N   UNL     1      62.449   9.656   3.331  1.00  0.00    -0.330 N 
HETATM    3  O   UNL     1      62.589  11.076   5.056  1.00  0.00    -0.302 OA
HETATM    4  O   UNL     1      61.547  11.755   3.131  1.00  0.00    -0.239 OA
HETATM    5  C   UNL     1      62.860   8.841   4.432  1.00  0.00     0.115 C 
HETATM    6  C   UNL     1      63.315   9.893   5.426  1.00  0.00     0.206 C 
HETATM    7  H   UNL     1      62.390   9.356   2.395  1.00  0.00     0.165 HD
ENDROOT
BRANCH   5   8
HETATM    8  C   UNL     1      63.924   7.813   4.044  1.00  0.00     0.066 C 
BRANCH   8   9
HETATM    9  C   UNL     1      64.901   7.510   5.152  1.00  0.00    -0.056 A 
HETATM   10  C   UNL     1      66.254   7.852   5.027  1.00  0.00     0.007 A 
HETATM   11  C   UNL     1      67.156   7.549   6.048  1.00  0.00     0.001 A 
HETATM   12  C   UNL     1      66.717   6.898   7.199  1.00  0.00     0.000 A 
HETATM   13  C   UNL     1      65.373   6.560   7.337  1.00  0.00     0.001 A 
HETATM   14  C   UNL     1      64.468   6.867   6.320  1.00  0.00     0.007 A 
ENDBRANCH   8   9
ENDBRANCH   5   8
TORSDOF 2
ENDMDL
MODEL 8
REMARK VINA RESULT:      -4.4      2.854      3.262
REMARK  2 active torsions:
REMARK  status: ('A' for Active; 'I' for Inactive)
REMARK    1  A    between atoms: C_5  and  C_7 
REMARK    2  A    between atoms: C_7  and  C_8 
ROOT
HETATM    1  C   UNL     1      61.101   5.807   6.638  1.00  0.00     0.361 C 
HETATM    2  N   UNL     1      61.518   6.941   5.994  1.00  0.00    -0.330 N 
HETATM    3  O   UNL     1      61.478   4.703   5.930  1.00  0.00    -0.302 OA
HETATM    4  O   UNL     1      60.457   5.789   7.670  1.00  0.00    -0.239 OA
HETATM    5  C   UNL     1      61.953   6.614   4.671  1.00  0.00     0.115 C 
HETATM    6  C   UNL     1      62.283   5.141   4.823  1.00  0.00     0.206 C 
HETATM    7  H   UNL     1      61.519   7.845   6.384  1.00  0.00     0.165 HD
ENDROOT
BRANCH   5   8
HETATM    8  C   UNL     1      63.110   7.492   4.194  1.00  0.00     0.066 C 
BRANCH   8   9
HETATM    9  C   UNL     1      62.662   8.724   3.448  1.00  0.00    -0.056 A 
HETATM   10  C   UNL     1      62.413   9.922   4.131  1.00  0.00     0.007 A 
HETATM   11  C   UNL     1      61.978  11.053   3.436  1.00  0.00     0.001 A 
HETATM   12  C   UNL     1      61.785  10.996   2.058  1.00  0.00     0.000 A 
HETATM   13  C   UNL     1      62.038   9.813   1.368  1.00  0.00     0.001 A 
HETATM   14  C   UNL     1      62.478   8.682   2.059  1.00  0.00     0.007 A 
ENDBRANCH   8   9
ENDBRANCH   5   8
TORSDOF 2
ENDMDL
MODEL 9
REMARK VINA RESULT:      -4.3      3.473      4.389
REMARK  2 active torsions:
REMARK  status: ('A' for Active; 'I' for Inactive)
REMARK    1  A    between atoms: C_5  and  C_7 
REMARK    2  A    between atoms: C_7  and  C_8 
ROOT
HETATM    1  C   UNL     1      59.586   6.616   3.779  1.00  0.00     0.361 C 
HETATM    2  N   UNL     1      60.302   7.204   2.772  1.00  0.00    -0.330 N 
HETATM    3  O   UNL     1      60.401   5.819   4.528  1.00  0.00    -0.302 OA
HETATM    4  O   UNL     1      58.390   6.756   3.957  1.00  0.00    -0.239 OA
HETATM    5  C   UNL     1      61.584   6.579   2.662  1.00  0.00     0.115 C 
HETATM    6  C   UNL     1      61.745   5.987   4.049  1.00  0.00     0.206 C 
HETATM    7  H   UNL     1      59.983   7.946   2.209  1.00  0.00     0.165 HD
ENDROOT
BRANCH   5   8
HETATM    8  C   UNL     1      62.684   7.554   2.241  1.00  0.00     0.066 C 
BRANCH   8   9
HETATM    9  C   UNL     1      62.388   8.988   2.603  1.00  0.00    -0.056 A 
HETATM   10  C   UNL     1      62.016   9.912   1.619  1.00  0.00     0.007 A 
HETATM   11  C   UNL     1      61.764  11.243   1.959  1.00  0.00     0.001 A 
HETATM   12  C   UNL     1      61.888  11.663   3.282  1.00  0.00     0.000 A 
HETATM   13  C   UNL     1      62.250  10.750   4.270  1.00  0.00     0.001 A 
HETATM   14  C   UNL     1      62.496   9.418   3.933  1.00  0.00     0.007 A 
ENDBRANCH   8   9
ENDBRANCH   5   8
TORSDOF 2
ENDMDL
