MODEL 1
REMARK VINA RESULT:      -4.4      0.000      0.000
REMARK  5 active torsions:
REMARK  status: ('A' for Active; 'I' for Inactive)
REMARK    1  A    between atoms: CA_3  and  C_7 
REMARK    2  A    between atoms: C_5  and  C_9 
REMARK    3  A    between atoms: C_7  and  O_8 
REMARK    4  A    between atoms: C_9  and  C_10 
REMARK    5  A    between atoms: C_10  and  C_11 
ROOT
HETATM    1  N   UNL     1      62.165  10.897   3.896  1.00  0.00    -0.346 N 
ATOM      2  HN  UNL     1      61.670  11.783   3.795  1.00  0.00     0.167 HD
HETATM    3  CA  UNL     1      62.903  10.476   4.985  1.00  0.00     0.049 A 
HETATM    4  N   UNL     1      62.961   8.867   3.513  1.00  0.00    -0.354 N 
HETATM    5  C   UNL     1      62.233   9.920   3.014  1.00  0.00     0.081 A 
HETATM    6  C   UNL     1      63.401   9.212   4.760  1.00  0.00     0.116 A 
HETATM    7  H   UNL     1      63.135   8.015   3.053  1.00  0.00     0.166 HD
ENDROOT
BRANCH   5   8
HETATM    8  C   UNL     1      61.621   9.882   1.655  1.00  0.00     0.076 C 
BRANCH   8   9
HETATM    9  C   UNL     1      61.884   8.573   0.905  1.00  0.00     0.007 C 
BRANCH   9  10
HETATM   10  C   UNL     1      60.609   7.875   0.420  1.00  0.00    -0.004 C 
HETATM   11  C   UNL     1      59.633   7.647   1.565  1.00  0.00     0.005 C 
ENDBRANCH   9  10
ENDBRANCH   8   9
ENDBRANCH   5   8
BRANCH   3  12
HETATM   12  C   UNL     1      63.037  11.340   6.190  1.00  0.00     0.222 C 
BRANCH  12  13
HETATM   13  O   UNL     1      64.406  11.587   6.503  1.00  0.00    -0.395 OA
HETATM   14  H   UNL     1      64.512  11.652   7.465  1.00  0.00     0.209 HD
ENDBRANCH  12  13
ENDBRANCH   3  12
TORSDOF 5
ENDMDL
MODEL 2
REMARK VINA RESULT:      -4.4      2.274      3.315
REMARK  5 active torsions:
REMARK  status: ('A' for Active; 'I' for Inactive)
REMARK    1  A    between atoms: CA_3  and  C_7 
REMARK    2  A    between atoms: C_5  and  C_9 
REMARK    3  A    between atoms: C_7  and  O_8 
REMARK    4  A    between atoms: C_9  and  C_10 
REMARK    5  A    between atoms: C_10  and  C_11 
ROOT
HETATM    1  N   UNL     1      64.586   9.124   5.530  1.00  0.00    -0.346 N 
ATOM      2  HN  UNL     1      64.689   9.873   6.214  1.00  0.00     0.167 HD
HETATM    3  CA  UNL     1      65.411   8.029   5.365  1.00  0.00     0.049 A 
HETATM    4  N   UNL     1      63.805   7.845   3.900  1.00  0.00    -0.354 N 
HETATM    5  C   UNL     1      63.638   9.002   4.622  1.00  0.00     0.081 A 
HETATM    6  C   UNL     1      64.933   7.224   4.355  1.00  0.00     0.116 A 
HETATM    7  H   UNL     1      63.215   7.522   3.182  1.00  0.00     0.166 HD
ENDROOT
BRANCH   5   8
HETATM    8  C   UNL     1      62.504   9.936   4.365  1.00  0.00     0.076 C 
BRANCH   8   9
HETATM    9  C   UNL     1      61.601   9.494   3.210  1.00  0.00     0.007 C 
BRANCH   9  10
HETATM   10  C   UNL     1      61.897  10.211   1.889  1.00  0.00    -0.004 C 
HETATM   11  C   UNL     1      61.774  11.720   2.038  1.00  0.00     0.005 C 
ENDBRANCH   9  10
ENDBRANCH   8   9
ENDBRANCH   5   8
BRANCH   3  12
HETATM   12  C   UNL     1      66.599   7.836   6.241  1.00  0.00     0.222 C 
BRANCH  12  13
HETATM   13  O   UNL     1      66.831   8.978   7.062  1.00  0.00    -0.395 OA
HETATM   14  H   UNL     1      67.325   8.713   7.854  1.00  0.00     0.209 HD
ENDBRANCH  12  13
ENDBRANCH   3  12
TORSDOF 5
ENDMDL
MODEL 3
REMARK VINA RESULT:      -4.3      2.792      4.915
REMARK  5 active torsions:
REMARK  status: ('A' for Active; 'I' for Inactive)
REMARK    1  A    between atoms: CA_3  and  C_7 
REMARK    2  A    between atoms: C_5  and  C_9 
REMARK    3  A    between atoms: C_7  and  O_8 
REMARK    4  A    between atoms: C_9  and  C_10 
REMARK    5  A    between atoms: C_10  and  C_11 
ROOT
HETATM    1  N   UNL     1      64.523   9.165   5.424  1.00  0.00    -0.346 N 
ATOM      2  HN  UNL     1      65.221   9.365   6.140  1.00  0.00     0.167 HD
HETATM    3  CA  UNL     1      63.399   9.911   5.126  1.00  0.00     0.049 A 
HETATM    4  N   UNL     1      63.429   8.221   3.745  1.00  0.00    -0.354 N 
HETATM    5  C   UNL     1      64.507   8.141   4.594  1.00  0.00     0.081 A 
HETATM    6  C   UNL     1      62.712   9.335   4.080  1.00  0.00     0.116 A 
HETATM    7  H   UNL     1      63.212   7.588   3.024  1.00  0.00     0.166 HD
ENDROOT
BRANCH   5   8
HETATM    8  C   UNL     1      65.492   7.024   4.514  1.00  0.00     0.076 C 
BRANCH   8   9
HETATM    9  C   UNL     1      66.915   7.439   4.899  1.00  0.00     0.007 C 
BRANCH   9  10
HETATM   10  C   UNL     1      67.532   6.573   6.002  1.00  0.00    -0.004 C 
HETATM   11  C   UNL     1      66.904   6.871   7.356  1.00  0.00     0.005 C 
ENDBRANCH   9  10
ENDBRANCH   8   9
ENDBRANCH   5   8
BRANCH   3  12
HETATM   12  C   UNL     1      63.099  11.162   5.875  1.00  0.00     0.222 C 
BRANCH  12  13
HETATM   13  O   UNL     1      64.264  11.675   6.518  1.00  0.00    -0.395 OA
HETATM   14  H   UNL     1      65.025  11.592   5.922  1.00  0.00     0.209 HD
ENDBRANCH  12  13
ENDBRANCH   3  12
TORSDOF 5
ENDMDL
MODEL 4
REMARK VINA RESULT:      -3.9      3.708      4.898
REMARK  5 active torsions:
REMARK  status: ('A' for Active; 'I' for Inactive)
REMARK    1  A    between atoms: CA_3  and  C_7 
REMARK    2  A    between atoms: C_5  and  C_9 
REMARK    3  A    between atoms: C_7  and  O_8 
REMARK    4  A    between atoms: C_9  and  C_10 
REMARK    5  A    between atoms: C_10  and  C_11 
ROOT
HETATM    1  N   UNL     1      64.933   7.234   6.812  1.00  0.00    -0.346 N 
ATOM      2  HN  UNL     1      64.117   6.947   7.353  1.00  0.00     0.167 HD
HETATM    3  CA  UNL     1      66.254   7.195   7.214  1.00  0.00     0.049 A 
HETATM    4  N   UNL     1      66.229   7.958   5.170  1.00  0.00    -0.354 N 
HETATM    5  C   UNL     1      64.942   7.717   5.586  1.00  0.00     0.081 A 
HETATM    6  C   UNL     1      67.071   7.640   6.199  1.00  0.00     0.116 A 
HETATM    7  H   UNL     1      66.498   8.299   4.287  1.00  0.00     0.166 HD
ENDROOT
BRANCH   5   8
HETATM    8  C   UNL     1      63.767   7.978   4.706  1.00  0.00     0.076 C 
BRANCH   8   9
HETATM    9  C   UNL     1      63.211   9.399   4.837  1.00  0.00     0.007 C 
BRANCH   9  10
HETATM   10  C   UNL     1      61.970   9.657   3.977  1.00  0.00    -0.004 C 
HETATM   11  C   UNL     1      61.972  11.070   3.413  1.00  0.00     0.005 C 
ENDBRANCH   9  10
ENDBRANCH   8   9
ENDBRANCH   5   8
BRANCH   3  12
HETATM   12  C   UNL     1      66.621   6.688   8.565  1.00  0.00     0.222 C 
BRANCH  12  13
HETATM   13  O   UNL     1      68.035   6.659   8.743  1.00  0.00    -0.395 OA
HETATM   14  H   UNL     1      68.259   7.038   9.608  1.00  0.00     0.209 HD
ENDBRANCH  12  13
ENDBRANCH   3  12
TORSDOF 5
ENDMDL
MODEL 5
REMARK VINA RESULT:      -3.8      3.485      5.758
REMARK  5 active torsions:
REMARK  status: ('A' for Active; 'I' for Inactive)
REMARK    1  A    between atoms: CA_3  and  C_7 
REMARK    2  A    between atoms: C_5  and  C_9 
REMARK    3  A    between atoms: C_7  and  O_8 
REMARK    4  A    between atoms: C_9  and  C_10 
REMARK    5  A    between atoms: C_10  and  C_11 
ROOT
HETATM    1  N   UNL     1      64.213   9.481   5.497  1.00  0.00    -0.346 N 
ATOM      2  HN  UNL     1      64.396  10.186   6.210  1.00  0.00     0.167 HD
HETATM    3  CA  UNL     1      63.216   9.505   4.540  1.00  0.00     0.049 A 
HETATM    4  N   UNL     1      64.364   7.677   4.222  1.00  0.00    -0.354 N 
HETATM    5  C   UNL     1      64.877   8.360   5.298  1.00  0.00     0.081 A 
HETATM    6  C   UNL     1      63.302   8.389   3.739  1.00  0.00     0.116 A 
HETATM    7  H   UNL     1      64.701   6.825   3.863  1.00  0.00     0.166 HD
ENDROOT
BRANCH   5   8
HETATM    8  C   UNL     1      66.039   7.846   6.077  1.00  0.00     0.076 C 
BRANCH   8   9
HETATM    9  C   UNL     1      65.655   6.797   7.124  1.00  0.00     0.007 C 
BRANCH   9  10
HETATM   10  C   UNL     1      66.857   6.178   7.845  1.00  0.00    -0.004 C 
HETATM   11  C   UNL     1      66.867   6.547   9.322  1.00  0.00     0.005 C 
ENDBRANCH   9  10
ENDBRANCH   8   9
ENDBRANCH   5   8
BRANCH   3  12
HETATM   12  C   UNL     1      62.266  10.649   4.464  1.00  0.00     0.222 C 
BRANCH  12  13
HETATM   13  O   UNL     1      61.114  10.317   3.694  1.00  0.00    -0.395 OA
HETATM   14  H   UNL     1      60.381  10.091   4.289  1.00  0.00     0.209 HD
ENDBRANCH  12  13
ENDBRANCH   3  12
TORSDOF 5
ENDMDL
MODEL 6
REMARK VINA RESULT:      -3.8      2.760      3.798
REMARK  5 active torsions:
REMARK  status: ('A' for Active; 'I' for Inactive)
REMARK    1  A    between atoms: CA_3  and  C_7 
REMARK    2  A    between atoms: C_5  and  C_9 
REMARK    3  A    between atoms: C_7  and  O_8 
REMARK    4  A    between atoms: C_9  and  C_10 
REMARK    5  A    between atoms: C_10  and  C_11 
ROOT
HETATM    1  N   UNL     1      64.082   7.794   3.874  1.00  0.00    -0.346 N 
ATOM      2  HN  UNL     1      63.647   7.381   3.049  1.00  0.00     0.167 HD
HETATM    3  CA  UNL     1      65.224   7.359   4.518  1.00  0.00     0.049 A 
HETATM    4  N   UNL     1      64.529   9.135   5.578  1.00  0.00    -0.354 N 
HETATM    5  C   UNL     1      63.670   8.851   4.544  1.00  0.00     0.081 A 
HETATM    6  C   UNL     1      65.514   8.188   5.579  1.00  0.00     0.116 A 
HETATM    7  H   UNL     1      64.448   9.887   6.208  1.00  0.00     0.166 HD
ENDROOT
BRANCH   5   8
HETATM    8  C   UNL     1      62.463   9.684   4.270  1.00  0.00     0.076 C 
BRANCH   8   9
HETATM    9  C   UNL     1      61.616   9.163   3.106  1.00  0.00     0.007 C 
BRANCH   9  10
HETATM   10  C   UNL     1      61.881   9.884   1.780  1.00  0.00    -0.004 C 
HETATM   11  C   UNL     1      62.199   8.896   0.667  1.00  0.00     0.005 C 
ENDBRANCH   9  10
ENDBRANCH   8   9
ENDBRANCH   5   8
BRANCH   3  12
HETATM   12  C   UNL     1      65.970   6.171   4.019  1.00  0.00     0.222 C 
BRANCH  12  13
HETATM   13  O   UNL     1      67.327   6.494   3.725  1.00  0.00    -0.395 OA
HETATM   14  H   UNL     1      67.439   7.458   3.734  1.00  0.00     0.209 HD
ENDBRANCH  12  13
ENDBRANCH   3  12
TORSDOF 5
ENDMDL
MODEL 7
REMARK VINA RESULT:      -3.5     13.613     14.389
REMARK  5 active torsions:
REMARK  status: ('A' for Active; 'I' for Inactive)
REMARK    1  A    between atoms: CA_3  and  C_7 
REMARK    2  A    between atoms: C_5  and  C_9 
REMARK    3  A    between atoms: C_7  and  O_8 
REMARK    4  A    between atoms: C_9  and  C_10 
REMARK    5  A    between atoms: C_10  and  C_11 
ROOT
HETATM    1  N   UNL     1      54.567   3.860  14.469  1.00  0.00    -0.346 N 
ATOM      2  HN  UNL     1      54.963   3.995  15.399  1.00  0.00     0.167 HD
HETATM    3  CA  UNL     1      53.592   4.626  13.860  1.00  0.00     0.049 A 
HETATM    4  N   UNL     1      54.167   3.075  12.438  1.00  0.00    -0.354 N 
HETATM    5  C   UNL     1      54.882   2.920  13.601  1.00  0.00     0.081 A 
HETATM    6  C   UNL     1      53.336   4.148  12.595  1.00  0.00     0.116 A 
HETATM    7  H   UNL     1      54.240   2.511  11.634  1.00  0.00     0.166 HD
ENDROOT
BRANCH   5   8
HETATM    8  C   UNL     1      55.874   1.820  13.776  1.00  0.00     0.076 C 
BRANCH   8   9
HETATM    9  C   UNL     1      57.245   2.135  13.169  1.00  0.00     0.007 C 
BRANCH   9  10
HETATM   10  C   UNL     1      58.420   1.754  14.075  1.00  0.00    -0.004 C 
HETATM   11  C   UNL     1      59.659   1.411  13.260  1.00  0.00     0.005 C 
ENDBRANCH   9  10
ENDBRANCH   8   9
ENDBRANCH   5   8
BRANCH   3  12
HETATM   12  C   UNL     1      53.002   5.799  14.562  1.00  0.00     0.222 C 
BRANCH  12  13
HETATM   13  O   UNL     1      53.984   6.799  14.819  1.00  0.00    -0.395 OA
HETATM   14  H   UNL     1      53.569   7.676  14.791  1.00  0.00     0.209 HD
ENDBRANCH  12  13
ENDBRANCH   3  12
TORSDOF 5
ENDMDL
MODEL 8
REMARK VINA RESULT:      -3.4     13.359     14.171
REMARK  5 active torsions:
REMARK  status: ('A' for Active; 'I' for Inactive)
REMARK    1  A    between atoms: CA_3  and  C_7 
REMARK    2  A    between atoms: C_5  and  C_9 
REMARK    3  A    between atoms: C_7  and  O_8 
REMARK    4  A    between atoms: C_9  and  C_10 
REMARK    5  A    between atoms: C_10  and  C_11 
ROOT
HETATM    1  N   UNL     1      55.931   2.636  14.275  1.00  0.00    -0.346 N 
ATOM      2  HN  UNL     1      55.927   2.838  15.274  1.00  0.00     0.167 HD
HETATM    3  CA  UNL     1      55.018   3.072  13.334  1.00  0.00     0.049 A 
HETATM    4  N   UNL     1      56.512   1.886  12.274  1.00  0.00    -0.354 N 
HETATM    5  C   UNL     1      56.809   1.906  13.615  1.00  0.00     0.081 A 
HETATM    6  C   UNL     1      55.371   2.614  12.084  1.00  0.00     0.116 A 
HETATM    7  H   UNL     1      57.029   1.428  11.573  1.00  0.00     0.166 HD
ENDROOT
BRANCH   5   8
HETATM    8  C   UNL     1      57.990   1.187  14.172  1.00  0.00     0.076 C 
BRANCH   8   9
HETATM    9  C   UNL     1      59.325   1.682  13.608  1.00  0.00     0.007 C 
BRANCH   9  10
HETATM   10  C   UNL     1      60.076   0.627  12.789  1.00  0.00    -0.004 C 
HETATM   11  C   UNL     1      59.627  -0.780  13.154  1.00  0.00     0.005 C 
ENDBRANCH   9  10
ENDBRANCH   8   9
ENDBRANCH   5   8
BRANCH   3  12
HETATM   12  C   UNL     1      53.876   3.940  13.732  1.00  0.00     0.222 C 
BRANCH  12  13
HETATM   13  O   UNL     1      54.327   5.132  14.371  1.00  0.00    -0.395 OA
HETATM   14  H   UNL     1      54.923   5.613  13.776  1.00  0.00     0.209 HD
ENDBRANCH  12  13
ENDBRANCH   3  12
TORSDOF 5
ENDMDL
MODEL 9
REMARK VINA RESULT:      -3.4      2.413      3.212
REMARK  5 active torsions:
REMARK  status: ('A' for Active; 'I' for Inactive)
REMARK    1  A    between atoms: CA_3  and  C_7 
REMARK    2  A    between atoms: C_5  and  C_9 
REMARK    3  A    between atoms: C_7  and  O_8 
REMARK    4  A    between atoms: C_9  and  C_10 
REMARK    5  A    between atoms: C_10  and  C_11 
ROOT
HETATM    1  N   UNL     1      60.647   9.182   3.288  1.00  0.00    -0.346 N 
ATOM      2  HN  UNL     1      59.761   9.561   2.953  1.00  0.00     0.167 HD
HETATM    3  CA  UNL     1      61.837   9.865   3.447  1.00  0.00     0.049 A 
HETATM    4  N   UNL     1      62.191   7.808   4.083  1.00  0.00    -0.354 N 
HETATM    5  C   UNL     1      60.892   7.940   3.656  1.00  0.00     0.081 A 
HETATM    6  C   UNL     1      62.805   9.021   3.944  1.00  0.00     0.116 A 
HETATM    7  H   UNL     1      62.607   6.985   4.426  1.00  0.00     0.166 HD
ENDROOT
BRANCH   5   8
HETATM    8  C   UNL     1      59.941   6.791   3.655  1.00  0.00     0.076 C 
BRANCH   8   9
HETATM    9  C   UNL     1      58.609   7.103   2.968  1.00  0.00     0.007 C 
BRANCH   9  10
HETATM   10  C   UNL     1      57.459   7.369   3.945  1.00  0.00    -0.004 C 
HETATM   11  C   UNL     1      56.419   6.259   3.889  1.00  0.00     0.005 C 
ENDBRANCH   9  10
ENDBRANCH   8   9
ENDBRANCH   5   8
BRANCH   3  12
HETATM   12  C   UNL     1      61.926  11.317   3.127  1.00  0.00     0.222 C 
BRANCH  12  13
HETATM   13  O   UNL     1      62.103  12.099   4.305  1.00  0.00    -0.395 OA
HETATM   14  H   UNL     1      62.373  12.998   4.059  1.00  0.00     0.209 HD
ENDBRANCH  12  13
ENDBRANCH   3  12
TORSDOF 5
ENDMDL
