MODEL 1
REMARK VINA RESULT:      -5.7      0.000      0.000
REMARK  3 active torsions:
REMARK  status: ('A' for Active; 'I' for Inactive)
REMARK    1  A    between atoms: N_1  and  C_7 
REMARK    2  A    between atoms: C_6  and  C_7 
REMARK    3  A    between atoms: C_6  and  C_8 
ROOT
HETATM    1  N   UNL     1      63.113   7.803   3.763  1.00  0.00    -0.355 N 
HETATM    2  C   UNL     1      62.988   7.088   2.599  1.00  0.00     0.099 A 
HETATM    3  C   UNL     1      62.511   7.931   1.616  1.00  0.00    -0.034 A 
HETATM    4  C   UNL     1      62.646   9.089   3.582  1.00  0.00     0.045 A 
HETATM    5  C   UNL     1      62.319   9.211   2.226  1.00  0.00    -0.002 A 
HETATM    6  C   UNL     1      62.238   7.554   0.204  1.00  0.00     0.050 C 
HETATM    7  C   UNL     1      62.486  10.158   4.480  1.00  0.00     0.030 A 
HETATM    8  C   UNL     1      61.876  10.462   1.746  1.00  0.00     0.014 A 
HETATM    9  C   UNL     1      62.029  11.381   3.979  1.00  0.00     0.002 A 
HETATM   10  C   UNL     1      61.742  11.539   2.629  1.00  0.00     0.001 A 
ENDROOT
BRANCH   1  11
HETATM   11  C   UNL     1      63.680   7.258   4.988  1.00  0.00     0.139 C 
BRANCH  11  12
HETATM   12  C   UNL     1      65.180   7.015   4.870  1.00  0.00     0.133 C 
BRANCH  12  13
HETATM   13  C   UNL     1      65.941   8.208   5.359  1.00  0.00     0.174 C 
HETATM   14  O   UNL     1      65.519   9.113   6.061  1.00  0.00    -0.648 OA
HETATM   15  O   UNL     1      67.221   8.199   4.943  1.00  0.00    -0.648 OA
ENDBRANCH  12  13
ENDBRANCH  11  12
ENDBRANCH   1  11
TORSDOF 3
ENDMDL
MODEL 2
REMARK VINA RESULT:      -5.3      1.032      2.879
REMARK  3 active torsions:
REMARK  status: ('A' for Active; 'I' for Inactive)
REMARK    1  A    between atoms: N_1  and  C_7 
REMARK    2  A    between atoms: C_6  and  C_7 
REMARK    3  A    between atoms: C_6  and  C_8 
ROOT
HETATM    1  N   UNL     1      63.382   8.013   4.246  1.00  0.00    -0.355 N 
HETATM    2  C   UNL     1      63.117   9.245   4.789  1.00  0.00     0.099 A 
HETATM    3  C   UNL     1      62.455  10.006   3.848  1.00  0.00    -0.034 A 
HETATM    4  C   UNL     1      62.976   7.979   2.928  1.00  0.00     0.045 A 
HETATM    5  C   UNL     1      62.336   9.199   2.673  1.00  0.00    -0.002 A 
HETATM    6  C   UNL     1      61.982  11.403   4.034  1.00  0.00     0.050 C 
HETATM    7  C   UNL     1      63.103   6.990   1.938  1.00  0.00     0.030 A 
HETATM    8  C   UNL     1      61.754   9.405   1.404  1.00  0.00     0.014 A 
HETATM    9  C   UNL     1      62.532   7.230   0.685  1.00  0.00     0.002 A 
HETATM   10  C   UNL     1      61.852   8.413   0.422  1.00  0.00     0.001 A 
ENDROOT
BRANCH   1  11
HETATM   11  C   UNL     1      63.987   6.918   4.988  1.00  0.00     0.139 C 
BRANCH  11  12
HETATM   12  C   UNL     1      65.490   7.102   5.165  1.00  0.00     0.133 C 
BRANCH  12  13
HETATM   13  C   UNL     1      65.794   7.602   6.543  1.00  0.00     0.174 C 
HETATM   14  O   UNL     1      65.596   7.020   7.597  1.00  0.00    -0.648 OA
HETATM   15  O   UNL     1      66.352   8.827   6.527  1.00  0.00    -0.648 OA
ENDBRANCH  12  13
ENDBRANCH  11  12
ENDBRANCH   1  11
TORSDOF 3
ENDMDL
MODEL 3
REMARK VINA RESULT:      -5.2      1.009      1.067
REMARK  3 active torsions:
REMARK  status: ('A' for Active; 'I' for Inactive)
REMARK    1  A    between atoms: N_1  and  C_7 
REMARK    2  A    between atoms: C_6  and  C_7 
REMARK    3  A    between atoms: C_6  and  C_8 
ROOT
HETATM    1  N   UNL     1      63.459   7.601   4.088  1.00  0.00    -0.355 N 
HETATM    2  C   UNL     1      63.495   6.608   3.142  1.00  0.00     0.099 A 
HETATM    3  C   UNL     1      62.989   7.109   1.960  1.00  0.00    -0.034 A 
HETATM    4  C   UNL     1      62.859   8.730   3.567  1.00  0.00     0.045 A 
HETATM    5  C   UNL     1      62.610   8.465   2.215  1.00  0.00    -0.002 A 
HETATM    6  C   UNL     1      62.855   6.359   0.683  1.00  0.00     0.050 C 
HETATM    7  C   UNL     1      62.518   9.959   4.155  1.00  0.00     0.030 A 
HETATM    8  C   UNL     1      62.058   9.489   1.416  1.00  0.00     0.014 A 
HETATM    9  C   UNL     1      61.956  10.949   3.343  1.00  0.00     0.002 A 
HETATM   10  C   UNL     1      61.742  10.726   1.988  1.00  0.00     0.001 A 
ENDROOT
BRANCH   1  11
HETATM   11  C   UNL     1      64.003   7.458   5.430  1.00  0.00     0.139 C 
BRANCH  11  12
HETATM   12  C   UNL     1      65.478   7.072   5.415  1.00  0.00     0.133 C 
BRANCH  12  13
HETATM   13  C   UNL     1      66.234   7.869   6.433  1.00  0.00     0.174 C 
HETATM   14  O   UNL     1      66.196   9.078   6.597  1.00  0.00    -0.648 OA
HETATM   15  O   UNL     1      67.007   7.091   7.214  1.00  0.00    -0.648 OA
ENDBRANCH  12  13
ENDBRANCH  11  12
ENDBRANCH   1  11
TORSDOF 3
ENDMDL
MODEL 4
REMARK VINA RESULT:      -5.0      2.376      4.811
REMARK  3 active torsions:
REMARK  status: ('A' for Active; 'I' for Inactive)
REMARK    1  A    between atoms: N_1  and  C_7 
REMARK    2  A    between atoms: C_6  and  C_7 
REMARK    3  A    between atoms: C_6  and  C_8 
ROOT
HETATM    1  N   UNL     1      63.815   8.099   4.019  1.00  0.00    -0.355 N 
HETATM    2  C   UNL     1      63.458   7.234   3.016  1.00  0.00     0.099 A 
HETATM    3  C   UNL     1      64.437   6.268   2.902  1.00  0.00    -0.034 A 
HETATM    4  C   UNL     1      65.058   7.765   4.515  1.00  0.00     0.045 A 
HETATM    5  C   UNL     1      65.443   6.583   3.871  1.00  0.00    -0.002 A 
HETATM    6  C   UNL     1      64.437   5.137   1.937  1.00  0.00     0.050 C 
HETATM    7  C   UNL     1      65.878   8.386   5.472  1.00  0.00     0.030 A 
HETATM    8  C   UNL     1      66.659   5.973   4.245  1.00  0.00     0.014 A 
HETATM    9  C   UNL     1      67.086   7.768   5.811  1.00  0.00     0.002 A 
HETATM   10  C   UNL     1      67.467   6.570   5.219  1.00  0.00     0.001 A 
ENDROOT
BRANCH   1  11
HETATM   11  C   UNL     1      62.969   9.190   4.481  1.00  0.00     0.139 C 
BRANCH  11  12
HETATM   12  C   UNL     1      62.027   9.690   3.392  1.00  0.00     0.133 C 
BRANCH  12  13
HETATM   13  C   UNL     1      61.989  11.187   3.384  1.00  0.00     0.174 C 
HETATM   14  O   UNL     1      61.890  11.914   2.409  1.00  0.00    -0.648 OA
HETATM   15  O   UNL     1      62.066  11.704   4.624  1.00  0.00    -0.648 OA
ENDBRANCH  12  13
ENDBRANCH  11  12
ENDBRANCH   1  11
TORSDOF 3
ENDMDL
MODEL 5
REMARK VINA RESULT:      -4.7      1.611      1.663
REMARK  3 active torsions:
REMARK  status: ('A' for Active; 'I' for Inactive)
REMARK    1  A    between atoms: N_1  and  C_7 
REMARK    2  A    between atoms: C_6  and  C_7 
REMARK    3  A    between atoms: C_6  and  C_8 
ROOT
HETATM    1  N   UNL     1      63.590   7.788   4.590  1.00  0.00    -0.355 N 
HETATM    2  C   UNL     1      63.601   6.817   3.621  1.00  0.00     0.099 A 
HETATM    3  C   UNL     1      63.069   7.347   2.463  1.00  0.00    -0.034 A 
HETATM    4  C   UNL     1      62.981   8.930   4.110  1.00  0.00     0.045 A 
HETATM    5  C   UNL     1      62.699   8.698   2.758  1.00  0.00    -0.002 A 
HETATM    6  C   UNL     1      62.903   6.628   1.173  1.00  0.00     0.050 C 
HETATM    7  C   UNL     1      62.657  10.146   4.734  1.00  0.00     0.030 A 
HETATM    8  C   UNL     1      62.132   9.741   1.997  1.00  0.00     0.014 A 
HETATM    9  C   UNL     1      62.079  11.155   3.959  1.00  0.00     0.002 A 
HETATM   10  C   UNL     1      61.833  10.965   2.604  1.00  0.00     0.001 A 
ENDROOT
BRANCH   1  11
HETATM   11  C   UNL     1      64.165   7.612   5.915  1.00  0.00     0.139 C 
BRANCH  11  12
HETATM   12  C   UNL     1      64.780   6.229   6.096  1.00  0.00     0.133 C 
BRANCH  12  13
HETATM   13  C   UNL     1      65.829   6.262   7.165  1.00  0.00     0.174 C 
HETATM   14  O   UNL     1      66.063   7.177   7.938  1.00  0.00    -0.648 OA
HETATM   15  O   UNL     1      66.538   5.119   7.216  1.00  0.00    -0.648 OA
ENDBRANCH  12  13
ENDBRANCH  11  12
ENDBRANCH   1  11
TORSDOF 3
ENDMDL
MODEL 6
REMARK VINA RESULT:      -4.6      3.351      7.032
REMARK  3 active torsions:
REMARK  status: ('A' for Active; 'I' for Inactive)
REMARK    1  A    between atoms: N_1  and  C_7 
REMARK    2  A    between atoms: C_6  and  C_7 
REMARK    3  A    between atoms: C_6  and  C_8 
ROOT
HETATM    1  N   UNL     1      66.738   6.868   5.851  1.00  0.00    -0.355 N 
HETATM    2  C   UNL     1      66.930   7.163   7.177  1.00  0.00     0.099 A 
HETATM    3  C   UNL     1      67.470   6.056   7.799  1.00  0.00    -0.034 A 
HETATM    4  C   UNL     1      67.067   5.550   5.607  1.00  0.00     0.045 A 
HETATM    5  C   UNL     1      67.587   5.037   6.802  1.00  0.00    -0.002 A 
HETATM    6  C   UNL     1      67.834   5.957   9.237  1.00  0.00     0.050 C 
HETATM    7  C   UNL     1      66.965   4.763   4.447  1.00  0.00     0.030 A 
HETATM    8  C   UNL     1      68.073   3.712   6.814  1.00  0.00     0.014 A 
HETATM    9  C   UNL     1      67.439   3.449   4.494  1.00  0.00     0.002 A 
HETATM   10  C   UNL     1      68.001   2.932   5.655  1.00  0.00     0.001 A 
ENDROOT
BRANCH   1  11
HETATM   11  C   UNL     1      66.272   7.835   4.869  1.00  0.00     0.139 C 
BRANCH  11  12
HETATM   12  C   UNL     1      64.771   7.729   4.624  1.00  0.00     0.133 C 
BRANCH  12  13
HETATM   13  C   UNL     1      64.086   8.996   5.034  1.00  0.00     0.174 C 
HETATM   14  O   UNL     1      62.964   9.360   4.721  1.00  0.00    -0.648 OA
HETATM   15  O   UNL     1      64.855   9.751   5.841  1.00  0.00    -0.648 OA
ENDBRANCH  12  13
ENDBRANCH  11  12
ENDBRANCH   1  11
TORSDOF 3
ENDMDL
MODEL 7
REMARK VINA RESULT:      -4.5      2.267      3.789
REMARK  3 active torsions:
REMARK  status: ('A' for Active; 'I' for Inactive)
REMARK    1  A    between atoms: N_1  and  C_7 
REMARK    2  A    between atoms: C_6  and  C_7 
REMARK    3  A    between atoms: C_6  and  C_8 
ROOT
HETATM    1  N   UNL     1      63.271   8.090   4.407  1.00  0.00    -0.355 N 
HETATM    2  C   UNL     1      63.011   9.325   4.945  1.00  0.00     0.099 A 
HETATM    3  C   UNL     1      62.436  10.115   3.970  1.00  0.00    -0.034 A 
HETATM    4  C   UNL     1      62.951   8.080   3.065  1.00  0.00     0.045 A 
HETATM    5  C   UNL     1      62.368   9.321   2.782  1.00  0.00    -0.002 A 
HETATM    6  C   UNL     1      61.997  11.525   4.140  1.00  0.00     0.050 C 
HETATM    7  C   UNL     1      63.111   7.096   2.076  1.00  0.00     0.030 A 
HETATM    8  C   UNL     1      61.877   9.557   1.480  1.00  0.00     0.014 A 
HETATM    9  C   UNL     1      62.631   7.364   0.791  1.00  0.00     0.002 A 
HETATM   10  C   UNL     1      62.008   8.570   0.496  1.00  0.00     0.001 A 
ENDROOT
BRANCH   1  11
HETATM   11  C   UNL     1      63.791   6.969   5.176  1.00  0.00     0.139 C 
BRANCH  11  12
HETATM   12  C   UNL     1      62.795   5.818   5.261  1.00  0.00     0.133 C 
BRANCH  12  13
HETATM   13  C   UNL     1      61.478   6.307   5.779  1.00  0.00     0.174 C 
HETATM   14  O   UNL     1      60.426   6.374   5.164  1.00  0.00    -0.648 OA
HETATM   15  O   UNL     1      61.547   6.682   7.070  1.00  0.00    -0.648 OA
ENDBRANCH  12  13
ENDBRANCH  11  12
ENDBRANCH   1  11
TORSDOF 3
ENDMDL
MODEL 8
REMARK VINA RESULT:      -4.4      1.773      2.836
REMARK  3 active torsions:
REMARK  status: ('A' for Active; 'I' for Inactive)
REMARK    1  A    between atoms: N_1  and  C_7 
REMARK    2  A    between atoms: C_6  and  C_7 
REMARK    3  A    between atoms: C_6  and  C_8 
ROOT
HETATM    1  N   UNL     1      62.938   8.119   4.604  1.00  0.00    -0.355 N 
HETATM    2  C   UNL     1      62.232   7.273   5.423  1.00  0.00     0.099 A 
HETATM    3  C   UNL     1      61.093   6.869   4.758  1.00  0.00    -0.034 A 
HETATM    4  C   UNL     1      62.236   8.344   3.438  1.00  0.00     0.045 A 
HETATM    5  C   UNL     1      61.103   7.522   3.485  1.00  0.00    -0.002 A 
HETATM    6  C   UNL     1      60.056   5.945   5.290  1.00  0.00     0.050 C 
HETATM    7  C   UNL     1      62.493   9.186   2.343  1.00  0.00     0.030 A 
HETATM    8  C   UNL     1      60.236   7.501   2.372  1.00  0.00     0.014 A 
HETATM    9  C   UNL     1      61.607   9.156   1.262  1.00  0.00     0.002 A 
HETATM   10  C   UNL     1      60.501   8.315   1.265  1.00  0.00     0.001 A 
ENDROOT
BRANCH   1  11
HETATM   11  C   UNL     1      64.243   8.665   4.942  1.00  0.00     0.139 C 
BRANCH  11  12
HETATM   12  C   UNL     1      65.363   7.652   4.734  1.00  0.00     0.133 C 
BRANCH  12  13
HETATM   13  C   UNL     1      66.513   7.952   5.645  1.00  0.00     0.174 C 
HETATM   14  O   UNL     1      67.617   7.432   5.631  1.00  0.00    -0.648 OA
HETATM   15  O   UNL     1      66.217   8.917   6.536  1.00  0.00    -0.648 OA
ENDBRANCH  12  13
ENDBRANCH  11  12
ENDBRANCH   1  11
TORSDOF 3
ENDMDL
MODEL 9
REMARK VINA RESULT:      -4.2      2.135      2.930
REMARK  3 active torsions:
REMARK  status: ('A' for Active; 'I' for Inactive)
REMARK    1  A    between atoms: N_1  and  C_7 
REMARK    2  A    between atoms: C_6  and  C_7 
REMARK    3  A    between atoms: C_6  and  C_8 
ROOT
HETATM    1  N   UNL     1      63.015   7.903   4.611  1.00  0.00    -0.355 N 
HETATM    2  C   UNL     1      63.168   8.748   3.541  1.00  0.00     0.099 A 
HETATM    3  C   UNL     1      61.962   8.835   2.875  1.00  0.00    -0.034 A 
HETATM    4  C   UNL     1      61.745   7.364   4.612  1.00  0.00     0.045 A 
HETATM    5  C   UNL     1      61.045   7.980   3.568  1.00  0.00    -0.002 A 
HETATM    6  C   UNL     1      61.694   9.650   1.662  1.00  0.00     0.050 C 
HETATM    7  C   UNL     1      61.143   6.400   5.437  1.00  0.00     0.030 A 
HETATM    8  C   UNL     1      59.683   7.662   3.386  1.00  0.00     0.014 A 
HETATM    9  C   UNL     1      59.796   6.092   5.222  1.00  0.00     0.002 A 
HETATM   10  C   UNL     1      59.068   6.724   4.222  1.00  0.00     0.001 A 
ENDROOT
BRANCH   1  11
HETATM   11  C   UNL     1      64.059   7.649   5.593  1.00  0.00     0.139 C 
BRANCH  11  12
HETATM   12  C   UNL     1      65.443   7.579   4.958  1.00  0.00     0.133 C 
BRANCH  12  13
HETATM   13  C   UNL     1      66.493   7.961   5.955  1.00  0.00     0.174 C 
HETATM   14  O   UNL     1      66.469   8.910   6.721  1.00  0.00    -0.648 OA
HETATM   15  O   UNL     1      67.535   7.108   5.946  1.00  0.00    -0.648 OA
ENDBRANCH  12  13
ENDBRANCH  11  12
ENDBRANCH   1  11
TORSDOF 3
ENDMDL
