MODEL 1
REMARK VINA RESULT:      -4.8      0.000      0.000
REMARK  1 active torsions:
REMARK  status: ('A' for Active; 'I' for Inactive)
REMARK    1  A    between atoms: C_3  and  C_7 
ROOT
HETATM    1  N   UNL     1      63.666   7.281   6.329  1.00  0.00    -0.351 N 
ATOM      2  HN  UNL     1      62.679   7.111   6.522  1.00  0.00     0.166 HD
HETATM    3  C   UNL     1      64.199   8.225   5.480  1.00  0.00     0.059 A 
HETATM    4  N   UNL     1      65.875   7.156   6.375  1.00  0.00    -0.360 N 
HETATM    5  C   UNL     1      64.697   6.647   6.839  1.00  0.00     0.180 A 
HETATM    6  C   UNL     1      65.576   8.166   5.504  1.00  0.00     0.119 A 
HETATM    7  H   UNL     1      66.778   6.851   6.622  1.00  0.00     0.166 HD
ENDROOT
BRANCH   3   8
HETATM    8  C   UNL     1      63.399   9.168   4.717  1.00  0.00    -0.008 A 
HETATM    9  C   UNL     1      62.943   8.815   3.441  1.00  0.00     0.014 A 
HETATM   10  C   UNL     1      62.140   9.691   2.705  1.00  0.00     0.001 A 
HETATM   11  C   UNL     1      61.800  10.935   3.233  1.00  0.00     0.000 A 
HETATM   12  C   UNL     1      62.266  11.307   4.493  1.00  0.00     0.001 A 
HETATM   13  C   UNL     1      63.062  10.428   5.232  1.00  0.00     0.014 A 
ENDBRANCH   3   8
TORSDOF 1
ENDMDL
MODEL 2
REMARK VINA RESULT:      -4.7      0.317      1.487
REMARK  1 active torsions:
REMARK  status: ('A' for Active; 'I' for Inactive)
REMARK    1  A    between atoms: C_3  and  C_7 
ROOT
HETATM    1  N   UNL     1      63.471   7.426   6.248  1.00  0.00    -0.351 N 
ATOM      2  HN  UNL     1      62.483   7.211   6.382  1.00  0.00     0.166 HD
HETATM    3  C   UNL     1      64.012   8.351   5.383  1.00  0.00     0.059 A 
HETATM    4  N   UNL     1      65.675   7.428   6.450  1.00  0.00    -0.360 N 
HETATM    5  C   UNL     1      64.495   6.880   6.862  1.00  0.00     0.180 A 
HETATM    6  C   UNL     1      65.386   8.371   5.503  1.00  0.00     0.119 A 
HETATM    7  H   UNL     1      66.573   7.189   6.776  1.00  0.00     0.166 HD
ENDROOT
BRANCH   3   8
HETATM    8  C   UNL     1      63.221   9.204   4.513  1.00  0.00    -0.008 A 
HETATM    9  C   UNL     1      62.813  10.465   4.965  1.00  0.00     0.014 A 
HETATM   10  C   UNL     1      62.085  11.318   4.131  1.00  0.00     0.001 A 
HETATM   11  C   UNL     1      61.743  10.910   2.843  1.00  0.00     0.000 A 
HETATM   12  C   UNL     1      62.124   9.648   2.390  1.00  0.00     0.001 A 
HETATM   13  C   UNL     1      62.859   8.799   3.220  1.00  0.00     0.014 A 
ENDBRANCH   3   8
TORSDOF 1
ENDMDL
MODEL 3
REMARK VINA RESULT:      -4.5      1.511      1.761
REMARK  1 active torsions:
REMARK  status: ('A' for Active; 'I' for Inactive)
REMARK    1  A    between atoms: C_3  and  C_7 
ROOT
HETATM    1  N   UNL     1      63.801   6.921   4.140  1.00  0.00    -0.351 N 
ATOM      2  HN  UNL     1      64.156   6.770   3.196  1.00  0.00     0.166 HD
HETATM    3  C   UNL     1      63.053   7.987   4.589  1.00  0.00     0.059 A 
HETATM    4  N   UNL     1      63.329   6.644   6.285  1.00  0.00    -0.360 N 
HETATM    5  C   UNL     1      63.961   6.141   5.185  1.00  0.00     0.180 A 
HETATM    6  C   UNL     1      62.742   7.824   5.923  1.00  0.00     0.119 A 
HETATM    7  H   UNL     1      63.299   6.231   7.179  1.00  0.00     0.166 HD
ENDROOT
BRANCH   3   8
HETATM    8  C   UNL     1      62.626   9.088   3.743  1.00  0.00    -0.008 A 
HETATM    9  C   UNL     1      62.476   8.884   2.365  1.00  0.00     0.014 A 
HETATM   10  C   UNL     1      62.029   9.918   1.538  1.00  0.00     0.001 A 
HETATM   11  C   UNL     1      61.743  11.170   2.079  1.00  0.00     0.000 A 
HETATM   12  C   UNL     1      61.909  11.391   3.445  1.00  0.00     0.001 A 
HETATM   13  C   UNL     1      62.348  10.355   4.274  1.00  0.00     0.014 A 
ENDBRANCH   3   8
TORSDOF 1
ENDMDL
MODEL 4
REMARK VINA RESULT:      -4.5      2.414      3.891
REMARK  1 active torsions:
REMARK  status: ('A' for Active; 'I' for Inactive)
REMARK    1  A    between atoms: C_3  and  C_7 
ROOT
HETATM    1  N   UNL     1      62.164  10.887   3.955  1.00  0.00    -0.351 N 
ATOM      2  HN  UNL     1      61.629  11.372   3.235  1.00  0.00     0.166 HD
HETATM    3  C   UNL     1      62.713   9.626   3.878  1.00  0.00     0.059 A 
HETATM    4  N   UNL     1      63.224  10.423   5.842  1.00  0.00    -0.360 N 
HETATM    5  C   UNL     1      62.476  11.332   5.151  1.00  0.00     0.180 A 
HETATM    6  C   UNL     1      63.386   9.326   5.044  1.00  0.00     0.119 A 
HETATM    7  H   UNL     1      63.583  10.537   6.752  1.00  0.00     0.166 HD
ENDROOT
BRANCH   3   8
HETATM    8  C   UNL     1      62.622   8.776   2.704  1.00  0.00    -0.008 A 
HETATM    9  C   UNL     1      62.063   9.283   1.524  1.00  0.00     0.014 A 
HETATM   10  C   UNL     1      62.001   8.495   0.371  1.00  0.00     0.001 A 
HETATM   11  C   UNL     1      62.482   7.187   0.393  1.00  0.00     0.000 A 
HETATM   12  C   UNL     1      63.021   6.664   1.567  1.00  0.00     0.001 A 
HETATM   13  C   UNL     1      63.091   7.454   2.717  1.00  0.00     0.014 A 
ENDBRANCH   3   8
TORSDOF 1
ENDMDL
MODEL 5
REMARK VINA RESULT:      -4.3      2.404      4.652
REMARK  1 active torsions:
REMARK  status: ('A' for Active; 'I' for Inactive)
REMARK    1  A    between atoms: C_3  and  C_7 
ROOT
HETATM    1  N   UNL     1      62.430   9.102   2.309  1.00  0.00    -0.351 N 
ATOM      2  HN  UNL     1      62.728   8.253   1.827  1.00  0.00     0.166 HD
HETATM    3  C   UNL     1      62.564   9.391   3.648  1.00  0.00     0.059 A 
HETATM    4  N   UNL     1      61.603  11.114   2.719  1.00  0.00    -0.360 N 
HETATM    5  C   UNL     1      61.837  10.149   1.782  1.00  0.00     0.180 A 
HETATM    6  C   UNL     1      62.062  10.646   3.919  1.00  0.00     0.119 A 
HETATM    7  H   UNL     1      61.181  11.989   2.560  1.00  0.00     0.166 HD
ENDROOT
BRANCH   3   8
HETATM    8  C   UNL     1      63.194   8.500   4.608  1.00  0.00    -0.008 A 
HETATM    9  C   UNL     1      64.575   8.582   4.825  1.00  0.00     0.014 A 
HETATM   10  C   UNL     1      65.195   7.761   5.771  1.00  0.00     0.001 A 
HETATM   11  C   UNL     1      64.443   6.840   6.497  1.00  0.00     0.000 A 
HETATM   12  C   UNL     1      63.071   6.734   6.273  1.00  0.00     0.001 A 
HETATM   13  C   UNL     1      62.449   7.559   5.334  1.00  0.00     0.014 A 
ENDBRANCH   3   8
TORSDOF 1
ENDMDL
MODEL 6
REMARK VINA RESULT:      -4.0      1.803      2.814
REMARK  1 active torsions:
REMARK  status: ('A' for Active; 'I' for Inactive)
REMARK    1  A    between atoms: C_3  and  C_7 
ROOT
HETATM    1  N   UNL     1      66.647   6.022   5.398  1.00  0.00    -0.351 N 
ATOM      2  HN  UNL     1      66.379   5.240   4.800  1.00  0.00     0.166 HD
HETATM    3  C   UNL     1      66.051   7.262   5.464  1.00  0.00     0.059 A 
HETATM    4  N   UNL     1      67.684   7.264   6.908  1.00  0.00    -0.360 N 
HETATM    5  C   UNL     1      67.632   6.060   6.266  1.00  0.00     0.180 A 
HETATM    6  C   UNL     1      66.681   8.045   6.408  1.00  0.00     0.119 A 
HETATM    7  H   UNL     1      68.328   7.522   7.607  1.00  0.00     0.166 HD
ENDROOT
BRANCH   3   8
HETATM    8  C   UNL     1      64.894   7.645   4.673  1.00  0.00    -0.008 A 
HETATM    9  C   UNL     1      64.185   8.808   5.001  1.00  0.00     0.014 A 
HETATM   10  C   UNL     1      63.093   9.216   4.230  1.00  0.00     0.001 A 
HETATM   11  C   UNL     1      62.690   8.456   3.133  1.00  0.00     0.000 A 
HETATM   12  C   UNL     1      63.375   7.286   2.810  1.00  0.00     0.001 A 
HETATM   13  C   UNL     1      64.471   6.882   3.575  1.00  0.00     0.014 A 
ENDBRANCH   3   8
TORSDOF 1
ENDMDL
MODEL 7
REMARK VINA RESULT:      -3.8     11.918     13.783
REMARK  1 active torsions:
REMARK  status: ('A' for Active; 'I' for Inactive)
REMARK    1  A    between atoms: C_3  and  C_7 
ROOT
HETATM    1  N   UNL     1      54.982   0.803  14.756  1.00  0.00    -0.351 N 
ATOM      2  HN  UNL     1      55.470  -0.079  14.914  1.00  0.00     0.166 HD
HETATM    3  C   UNL     1      55.460   1.912  14.095  1.00  0.00     0.059 A 
HETATM    4  N   UNL     1      53.428   2.379  14.735  1.00  0.00    -0.360 N 
HETATM    5  C   UNL     1      53.767   1.120  15.140  1.00  0.00     0.180 A 
HETATM    6  C   UNL     1      54.499   2.901  14.065  1.00  0.00     0.119 A 
HETATM    7  H   UNL     1      52.567   2.830  14.895  1.00  0.00     0.166 HD
ENDROOT
BRANCH   3   8
HETATM    8  C   UNL     1      56.776   1.984  13.484  1.00  0.00    -0.008 A 
HETATM    9  C   UNL     1      57.890   1.497  14.180  1.00  0.00     0.014 A 
HETATM   10  C   UNL     1      59.159   1.520  13.595  1.00  0.00     0.001 A 
HETATM   11  C   UNL     1      59.329   2.047  12.316  1.00  0.00     0.000 A 
HETATM   12  C   UNL     1      58.231   2.554  11.623  1.00  0.00     0.001 A 
HETATM   13  C   UNL     1      56.961   2.524  12.203  1.00  0.00     0.014 A 
ENDBRANCH   3   8
TORSDOF 1
ENDMDL
MODEL 8
REMARK VINA RESULT:      -3.8      2.103      4.564
REMARK  1 active torsions:
REMARK  status: ('A' for Active; 'I' for Inactive)
REMARK    1  A    between atoms: C_3  and  C_7 
ROOT
HETATM    1  N   UNL     1      63.007   8.350   3.375  1.00  0.00    -0.351 N 
ATOM      2  HN  UNL     1      63.087   7.604   2.685  1.00  0.00     0.166 HD
HETATM    3  C   UNL     1      63.863   8.613   4.422  1.00  0.00     0.059 A 
HETATM    4  N   UNL     1      62.291  10.122   4.492  1.00  0.00    -0.360 N 
HETATM    5  C   UNL     1      62.067   9.264   3.453  1.00  0.00     0.180 A 
HETATM    6  C   UNL     1      63.435   9.721   5.122  1.00  0.00     0.119 A 
HETATM    7  H   UNL     1      61.730  10.892   4.741  1.00  0.00     0.166 HD
ENDROOT
BRANCH   3   8
HETATM    8  C   UNL     1      65.064   7.843   4.695  1.00  0.00    -0.008 A 
HETATM    9  C   UNL     1      65.406   6.773   3.858  1.00  0.00     0.014 A 
HETATM   10  C   UNL     1      66.578   6.045   4.079  1.00  0.00     0.001 A 
HETATM   11  C   UNL     1      67.410   6.369   5.150  1.00  0.00     0.000 A 
HETATM   12  C   UNL     1      67.069   7.417   6.002  1.00  0.00     0.001 A 
HETATM   13  C   UNL     1      65.902   8.151   5.776  1.00  0.00     0.014 A 
ENDBRANCH   3   8
TORSDOF 1
ENDMDL
MODEL 9
REMARK VINA RESULT:      -3.8      2.074      4.786
REMARK  1 active torsions:
REMARK  status: ('A' for Active; 'I' for Inactive)
REMARK    1  A    between atoms: C_3  and  C_7 
ROOT
HETATM    1  N   UNL     1      63.117   8.284   3.200  1.00  0.00    -0.351 N 
ATOM      2  HN  UNL     1      63.358   7.598   2.485  1.00  0.00     0.166 HD
HETATM    3  C   UNL     1      63.826   8.581   4.343  1.00  0.00     0.059 A 
HETATM    4  N   UNL     1      62.075   9.881   4.325  1.00  0.00    -0.360 N 
HETATM    5  C   UNL     1      62.065   9.070   3.227  1.00  0.00     0.180 A 
HETATM    6  C   UNL     1      63.194   9.582   5.051  1.00  0.00     0.119 A 
HETATM    7  H   UNL     1      61.399  10.559   4.554  1.00  0.00     0.166 HD
ENDROOT
BRANCH   3   8
HETATM    8  C   UNL     1      65.084   7.948   4.701  1.00  0.00    -0.008 A 
HETATM    9  C   UNL     1      65.789   8.395   5.824  1.00  0.00     0.014 A 
HETATM   10  C   UNL     1      66.981   7.774   6.209  1.00  0.00     0.001 A 
HETATM   11  C   UNL     1      67.486   6.711   5.463  1.00  0.00     0.000 A 
HETATM   12  C   UNL     1      66.804   6.271   4.330  1.00  0.00     0.001 A 
HETATM   13  C   UNL     1      65.609   6.886   3.950  1.00  0.00     0.014 A 
ENDBRANCH   3   8
TORSDOF 1
ENDMDL
