MODEL 1
REMARK VINA RESULT:      -5.2      0.000      0.000
REMARK  3 active torsions:
REMARK  status: ('A' for Active; 'I' for Inactive)
REMARK    1  A    between atoms: C_1  and  C_3 
REMARK    2  A    between atoms: C_2  and  N_7 
REMARK    3  A    between atoms: N_7  and  N_11 
ROOT
HETATM    1  C   UNL     1      63.791   8.892   4.942  1.00  0.00     0.117 A 
HETATM    2  C   UNL     1      62.454   9.289   2.955  1.00  0.00     0.052 A 
HETATM    3  C   UNL     1      63.354   8.494   3.680  1.00  0.00     0.066 A 
HETATM    4  N   UNL     1      63.350  10.060   5.481  1.00  0.00    -0.351 N 
ATOM      5  HN  UNL     1      63.673  10.361   6.400  1.00  0.00     0.166 HD
HETATM    6  C   UNL     1      62.477  10.814   4.781  1.00  0.00     0.090 A 
HETATM    7  C   UNL     1      62.005  10.480   3.527  1.00  0.00     0.033 A 
ENDROOT
BRANCH   1   8
HETATM    8  N   UNL     1      64.712   8.137   5.693  1.00  0.00    -0.305 N 
HETATM    9  C   UNL     1      64.323   6.885   6.327  1.00  0.00     0.173 C 
BRANCH   8  10
HETATM   10  N   UNL     1      65.879   8.799   6.158  1.00  0.00    -0.246 NA
HETATM   11  H   UNL     1      66.649   8.627   5.511  1.00  0.00     0.143 HD
HETATM   12  H   UNL     1      66.125   8.444   7.082  1.00  0.00     0.143 HD
ENDBRANCH   8  10
ENDBRANCH   1   8
BRANCH   2  13
HETATM   13  C   UNL     1      61.988   8.883   1.585  1.00  0.00     0.417 C 
HETATM   14  F   UNL     1      60.652   9.055   1.389  1.00  0.00    -0.166 F 
HETATM   15  F   UNL     1      62.239   7.571   1.319  1.00  0.00    -0.166 F 
HETATM   16  F   UNL     1      62.604   9.590   0.596  1.00  0.00    -0.166 F 
ENDBRANCH   2  13
TORSDOF 3
ENDMDL
MODEL 2
REMARK VINA RESULT:      -4.8      1.530      3.195
REMARK  3 active torsions:
REMARK  status: ('A' for Active; 'I' for Inactive)
REMARK    1  A    between atoms: C_1  and  C_3 
REMARK    2  A    between atoms: C_2  and  N_7 
REMARK    3  A    between atoms: N_7  and  N_11 
ROOT
HETATM    1  C   UNL     1      63.896   9.460   5.100  1.00  0.00     0.117 A 
HETATM    2  C   UNL     1      63.894   7.514   3.647  1.00  0.00     0.052 A 
HETATM    3  C   UNL     1      63.378   8.769   4.006  1.00  0.00     0.066 A 
HETATM    4  N   UNL     1      64.908   8.920   5.832  1.00  0.00    -0.351 N 
ATOM      5  HN  UNL     1      65.285   9.416   6.639  1.00  0.00     0.166 HD
HETATM    6  C   UNL     1      65.404   7.717   5.474  1.00  0.00     0.090 A 
HETATM    7  C   UNL     1      64.937   6.980   4.404  1.00  0.00     0.033 A 
ENDROOT
BRANCH   1   8
HETATM    8  N   UNL     1      63.392  10.708   5.510  1.00  0.00    -0.305 N 
HETATM    9  C   UNL     1      62.320  11.366   4.776  1.00  0.00     0.173 C 
BRANCH   8  10
HETATM   10  N   UNL     1      64.199  11.489   6.379  1.00  0.00    -0.246 NA
HETATM   11  H   UNL     1      65.160  11.148   6.349  1.00  0.00     0.143 HD
HETATM   12  H   UNL     1      63.841  11.417   7.331  1.00  0.00     0.143 HD
ENDBRANCH   8  10
ENDBRANCH   1   8
BRANCH   2  13
HETATM   13  C   UNL     1      63.333   6.749   2.482  1.00  0.00     0.417 C 
HETATM   14  F   UNL     1      62.895   7.543   1.467  1.00  0.00    -0.166 F 
HETATM   15  F   UNL     1      62.271   5.973   2.834  1.00  0.00    -0.166 F 
HETATM   16  F   UNL     1      64.246   5.903   1.926  1.00  0.00    -0.166 F 
ENDBRANCH   2  13
TORSDOF 3
ENDMDL
MODEL 3
REMARK VINA RESULT:      -4.6      1.946      2.941
REMARK  3 active torsions:
REMARK  status: ('A' for Active; 'I' for Inactive)
REMARK    1  A    between atoms: C_1  and  C_3 
REMARK    2  A    between atoms: C_2  and  N_7 
REMARK    3  A    between atoms: N_7  and  N_11 
ROOT
HETATM    1  C   UNL     1      65.145   7.893   5.719  1.00  0.00     0.117 A 
HETATM    2  C   UNL     1      63.063   8.621   4.706  1.00  0.00     0.052 A 
HETATM    3  C   UNL     1      64.448   8.760   4.880  1.00  0.00     0.066 A 
HETATM    4  N   UNL     1      64.485   6.905   6.381  1.00  0.00    -0.351 N 
ATOM      5  HN  UNL     1      64.988   6.273   7.004  1.00  0.00     0.166 HD
HETATM    6  C   UNL     1      63.154   6.774   6.202  1.00  0.00     0.090 A 
HETATM    7  C   UNL     1      62.403   7.597   5.386  1.00  0.00     0.033 A 
ENDROOT
BRANCH   1   8
HETATM    8  N   UNL     1      66.530   8.011   5.941  1.00  0.00    -0.305 N 
HETATM    9  C   UNL     1      67.470   7.053   5.376  1.00  0.00     0.173 C 
BRANCH   8  10
HETATM   10  N   UNL     1      66.953   8.813   7.034  1.00  0.00    -0.246 NA
HETATM   11  H   UNL     1      67.577   9.546   6.697  1.00  0.00     0.143 HD
HETATM   12  H   UNL     1      67.447   8.231   7.711  1.00  0.00     0.143 HD
ENDBRANCH   8  10
ENDBRANCH   1   8
BRANCH   2  13
HETATM   13  C   UNL     1      62.294   9.560   3.819  1.00  0.00     0.417 C 
HETATM   14  F   UNL     1      62.667   9.505   2.511  1.00  0.00    -0.166 F 
HETATM   15  F   UNL     1      62.437  10.862   4.194  1.00  0.00    -0.166 F 
HETATM   16  F   UNL     1      60.954   9.312   3.835  1.00  0.00    -0.166 F 
ENDBRANCH   2  13
TORSDOF 3
ENDMDL
MODEL 4
REMARK VINA RESULT:      -4.6      3.994      5.082
REMARK  3 active torsions:
REMARK  status: ('A' for Active; 'I' for Inactive)
REMARK    1  A    between atoms: C_1  and  C_3 
REMARK    2  A    between atoms: C_2  and  N_7 
REMARK    3  A    between atoms: N_7  and  N_11 
ROOT
HETATM    1  C   UNL     1      63.920   9.146   4.865  1.00  0.00     0.117 A 
HETATM    2  C   UNL     1      65.757   7.566   5.004  1.00  0.00     0.052 A 
HETATM    3  C   UNL     1      65.139   8.756   5.416  1.00  0.00     0.066 A 
HETATM    4  N   UNL     1      63.320   8.376   3.917  1.00  0.00    -0.351 N 
ATOM      5  HN  UNL     1      62.433   8.661   3.504  1.00  0.00     0.166 HD
HETATM    6  C   UNL     1      63.918   7.229   3.533  1.00  0.00     0.090 A 
HETATM    7  C   UNL     1      65.125   6.784   4.037  1.00  0.00     0.033 A 
ENDROOT
BRANCH   1   8
HETATM    8  N   UNL     1      63.277  10.344   5.231  1.00  0.00    -0.305 N 
HETATM    9  C   UNL     1      62.221  10.916   4.407  1.00  0.00     0.173 C 
BRANCH   8  10
HETATM   10  N   UNL     1      63.936  11.182   6.169  1.00  0.00    -0.246 NA
HETATM   11  H   UNL     1      64.891  10.852   6.309  1.00  0.00     0.143 HD
HETATM   12  H   UNL     1      63.434  11.157   7.057  1.00  0.00     0.143 HD
ENDBRANCH   8  10
ENDBRANCH   1   8
BRANCH   2  13
HETATM   13  C   UNL     1      67.082   7.141   5.574  1.00  0.00     0.417 C 
HETATM   14  F   UNL     1      67.523   5.944   5.099  1.00  0.00    -0.166 F 
HETATM   15  F   UNL     1      67.047   7.015   6.930  1.00  0.00    -0.166 F 
HETATM   16  F   UNL     1      68.074   8.037   5.307  1.00  0.00    -0.166 F 
ENDBRANCH   2  13
TORSDOF 3
ENDMDL
MODEL 5
REMARK VINA RESULT:      -4.5      1.376      2.026
REMARK  3 active torsions:
REMARK  status: ('A' for Active; 'I' for Inactive)
REMARK    1  A    between atoms: C_1  and  C_3 
REMARK    2  A    between atoms: C_2  and  N_7 
REMARK    3  A    between atoms: N_7  and  N_11 
ROOT
HETATM    1  C   UNL     1      63.047   8.238   4.874  1.00  0.00     0.117 A 
HETATM    2  C   UNL     1      62.239   9.731   3.139  1.00  0.00     0.052 A 
HETATM    3  C   UNL     1      62.605   8.447   3.569  1.00  0.00     0.066 A 
HETATM    4  N   UNL     1      63.131   9.281   5.742  1.00  0.00    -0.351 N 
ATOM      5  HN  UNL     1      63.462   9.136   6.695  1.00  0.00     0.166 HD
HETATM    6  C   UNL     1      62.768  10.512   5.322  1.00  0.00     0.090 A 
HETATM    7  C   UNL     1      62.323  10.788   4.045  1.00  0.00     0.033 A 
ENDROOT
BRANCH   1   8
HETATM    8  N   UNL     1      63.448   6.971   5.339  1.00  0.00    -0.305 N 
HETATM    9  C   UNL     1      64.776   6.447   5.050  1.00  0.00     0.173 C 
BRANCH   8  10
HETATM   10  N   UNL     1      62.429   6.062   5.728  1.00  0.00    -0.246 NA
HETATM   11  H   UNL     1      62.847   5.272   6.220  1.00  0.00     0.143 HD
HETATM   12  H   UNL     1      61.939   5.727   4.899  1.00  0.00     0.143 HD
ENDBRANCH   8  10
ENDBRANCH   1   8
BRANCH   2  13
HETATM   13  C   UNL     1      61.779   9.976   1.729  1.00  0.00     0.417 C 
HETATM   14  F   UNL     1      62.731   9.718   0.791  1.00  0.00    -0.166 F 
HETATM   15  F   UNL     1      61.393  11.266   1.524  1.00  0.00    -0.166 F 
HETATM   16  F   UNL     1      60.705   9.207   1.391  1.00  0.00    -0.166 F 
ENDBRANCH   2  13
TORSDOF 3
ENDMDL
MODEL 6
REMARK VINA RESULT:      -4.4      3.357      4.628
REMARK  3 active torsions:
REMARK  status: ('A' for Active; 'I' for Inactive)
REMARK    1  A    between atoms: C_1  and  C_3 
REMARK    2  A    between atoms: C_2  and  N_7 
REMARK    3  A    between atoms: N_7  and  N_11 
ROOT
HETATM    1  C   UNL     1      62.015   9.114   2.679  1.00  0.00     0.117 A 
HETATM    2  C   UNL     1      63.571   8.905   4.531  1.00  0.00     0.052 A 
HETATM    3  C   UNL     1      63.007   8.401   3.349  1.00  0.00     0.066 A 
HETATM    4  N   UNL     1      61.583  10.308   3.168  1.00  0.00    -0.351 N 
ATOM      5  HN  UNL     1      60.852  10.830   2.687  1.00  0.00     0.166 HD
HETATM    6  C   UNL     1      62.138  10.789   4.300  1.00  0.00     0.090 A 
HETATM    7  C   UNL     1      63.123  10.134   5.014  1.00  0.00     0.033 A 
ENDROOT
BRANCH   1   8
HETATM    8  N   UNL     1      61.404   8.634   1.506  1.00  0.00    -0.305 N 
HETATM    9  C   UNL     1      62.177   8.407   0.292  1.00  0.00     0.173 C 
BRANCH   8  10
HETATM   10  N   UNL     1      59.994   8.764   1.398  1.00  0.00    -0.246 NA
HETATM   11  H   UNL     1      59.547   7.914   1.743  1.00  0.00     0.143 HD
HETATM   12  H   UNL     1      59.740   8.910   0.422  1.00  0.00     0.143 HD
ENDBRANCH   8  10
ENDBRANCH   1   8
BRANCH   2  13
HETATM   13  C   UNL     1      64.628   8.138   5.275  1.00  0.00     0.417 C 
HETATM   14  F   UNL     1      65.550   8.931   5.887  1.00  0.00    -0.166 F 
HETATM   15  F   UNL     1      65.332   7.302   4.463  1.00  0.00    -0.166 F 
HETATM   16  F   UNL     1      64.104   7.351   6.257  1.00  0.00    -0.166 F 
ENDBRANCH   2  13
TORSDOF 3
ENDMDL
MODEL 7
REMARK VINA RESULT:      -4.4      1.689      2.184
REMARK  3 active torsions:
REMARK  status: ('A' for Active; 'I' for Inactive)
REMARK    1  A    between atoms: C_1  and  C_3 
REMARK    2  A    between atoms: C_2  and  N_7 
REMARK    3  A    between atoms: N_7  and  N_11 
ROOT
HETATM    1  C   UNL     1      62.944   7.887   4.729  1.00  0.00     0.117 A 
HETATM    2  C   UNL     1      61.756   8.579   2.728  1.00  0.00     0.052 A 
HETATM    3  C   UNL     1      62.893   8.627   3.549  1.00  0.00     0.066 A 
HETATM    4  N   UNL     1      61.888   7.112   5.096  1.00  0.00    -0.351 N 
ATOM      5  HN  UNL     1      61.917   6.575   5.963  1.00  0.00     0.166 HD
HETATM    6  C   UNL     1      60.803   7.065   4.296  1.00  0.00     0.090 A 
HETATM    7  C   UNL     1      60.686   7.773   3.115  1.00  0.00     0.033 A 
ENDROOT
BRANCH   1   8
HETATM    8  N   UNL     1      64.054   7.926   5.594  1.00  0.00    -0.305 N 
HETATM    9  C   UNL     1      65.398   8.169   5.088  1.00  0.00     0.173 C 
BRANCH   8  10
HETATM   10  N   UNL     1      63.909   7.329   6.875  1.00  0.00    -0.246 NA
HETATM   11  H   UNL     1      63.777   6.323   6.768  1.00  0.00     0.143 HD
HETATM   12  H   UNL     1      63.099   7.731   7.347  1.00  0.00     0.143 HD
ENDBRANCH   8  10
ENDBRANCH   1   8
BRANCH   2  13
HETATM   13  C   UNL     1      61.678   9.387   1.463  1.00  0.00     0.417 C 
HETATM   14  F   UNL     1      61.707  10.732   1.671  1.00  0.00    -0.166 F 
HETATM   15  F   UNL     1      60.538   9.142   0.760  1.00  0.00    -0.166 F 
HETATM   16  F   UNL     1      62.708   9.120   0.610  1.00  0.00    -0.166 F 
ENDBRANCH   2  13
TORSDOF 3
ENDMDL
MODEL 8
REMARK VINA RESULT:      -4.3     10.926     12.338
REMARK  3 active torsions:
REMARK  status: ('A' for Active; 'I' for Inactive)
REMARK    1  A    between atoms: C_1  and  C_3 
REMARK    2  A    between atoms: C_2  and  N_7 
REMARK    3  A    between atoms: N_7  and  N_11 
ROOT
HETATM    1  C   UNL     1      57.989   3.071  10.515  1.00  0.00     0.117 A 
HETATM    2  C   UNL     1      58.128   1.827  12.595  1.00  0.00     0.052 A 
HETATM    3  C   UNL     1      58.718   2.655  11.628  1.00  0.00     0.066 A 
HETATM    4  N   UNL     1      56.698   2.675  10.356  1.00  0.00    -0.351 N 
ATOM      5  HN  UNL     1      56.162   2.969   9.540  1.00  0.00     0.166 HD
HETATM    6  C   UNL     1      56.136   1.886  11.296  1.00  0.00     0.090 A 
HETATM    7  C   UNL     1      56.800   1.437  12.421  1.00  0.00     0.033 A 
ENDROOT
BRANCH   1   8
HETATM    8  N   UNL     1      58.549   3.880   9.508  1.00  0.00    -0.305 N 
HETATM    9  C   UNL     1      59.363   3.307   8.445  1.00  0.00     0.173 C 
BRANCH   8  10
HETATM   10  N   UNL     1      58.653   5.272   9.767  1.00  0.00    -0.246 NA
HETATM   11  H   UNL     1      59.596   5.590   9.545  1.00  0.00     0.143 HD
HETATM   12  H   UNL     1      58.457   5.450  10.752  1.00  0.00     0.143 HD
ENDBRANCH   8  10
ENDBRANCH   1   8
BRANCH   2  13
HETATM   13  C   UNL     1      58.907   1.354  13.790  1.00  0.00     0.417 C 
HETATM   14  F   UNL     1      58.644   0.064  14.138  1.00  0.00    -0.166 F 
HETATM   15  F   UNL     1      58.657   2.099  14.902  1.00  0.00    -0.166 F 
HETATM   16  F   UNL     1      60.254   1.418  13.592  1.00  0.00    -0.166 F 
ENDBRANCH   2  13
TORSDOF 3
ENDMDL
MODEL 9
REMARK VINA RESULT:      -4.2     11.413     12.741
REMARK  3 active torsions:
REMARK  status: ('A' for Active; 'I' for Inactive)
REMARK    1  A    between atoms: C_1  and  C_3 
REMARK    2  A    between atoms: C_2  and  N_7 
REMARK    3  A    between atoms: N_7  and  N_11 
ROOT
HETATM    1  C   UNL     1      56.552   2.167  13.632  1.00  0.00     0.117 A 
HETATM    2  C   UNL     1      58.085   2.491  11.778  1.00  0.00     0.052 A 
HETATM    3  C   UNL     1      56.798   2.593  12.328  1.00  0.00     0.066 A 
HETATM    4  N   UNL     1      57.559   1.645  14.383  1.00  0.00    -0.351 N 
ATOM      5  HN  UNL     1      57.384   1.324  15.334  1.00  0.00     0.166 HD
HETATM    6  C   UNL     1      58.796   1.560  13.848  1.00  0.00     0.090 A 
HETATM    7  C   UNL     1      59.108   1.962  12.564  1.00  0.00     0.033 A 
ENDROOT
BRANCH   1   8
HETATM    8  N   UNL     1      55.272   2.227  14.215  1.00  0.00    -0.305 N 
HETATM    9  C   UNL     1      54.235   1.270  13.857  1.00  0.00     0.173 C 
BRANCH   8  10
HETATM   10  N   UNL     1      54.886   3.449  14.827  1.00  0.00    -0.246 NA
HETATM   11  H   UNL     1      55.407   4.219  14.408  1.00  0.00     0.143 HD
HETATM   12  H   UNL     1      55.087   3.406  15.826  1.00  0.00     0.143 HD
ENDBRANCH   8  10
ENDBRANCH   1   8
BRANCH   2  13
HETATM   13  C   UNL     1      58.362   2.928  10.366  1.00  0.00     0.417 C 
HETATM   14  F   UNL     1      59.297   2.168   9.733  1.00  0.00    -0.166 F 
HETATM   15  F   UNL     1      58.814   4.210  10.298  1.00  0.00    -0.166 F 
HETATM   16  F   UNL     1      57.250   2.882   9.580  1.00  0.00    -0.166 F 
ENDBRANCH   2  13
TORSDOF 3
ENDMDL
