MODEL 1
REMARK VINA RESULT:      -5.7      0.000      0.000
REMARK  2 active torsions:
REMARK  status: ('A' for Active; 'I' for Inactive)
REMARK    1  A    between atoms: C_1  and  C_4 
REMARK    2  A    between atoms: C_1  and  C_5 
ROOT
HETATM    1  N   UNL     1      67.020   7.289   7.409  1.00  0.00    -0.075 N 
HETATM    2  C   UNL     1      64.909   6.956   5.395  1.00  0.00     0.064 C 
HETATM    3  C   UNL     1      65.787   6.554   7.734  1.00  0.00     0.233 C 
HETATM    4  C   UNL     1      66.743   8.388   6.474  1.00  0.00     0.233 C 
HETATM    5  C   UNL     1      65.225   5.891   6.464  1.00  0.00     0.040 C 
HETATM    6  C   UNL     1      66.164   7.830   5.167  1.00  0.00     0.040 C 
HETATM    7  H   UNL     1      67.689   6.647   6.983  1.00  0.00     0.277 HD
HETATM    8  H   UNL     1      67.403   7.681   8.269  1.00  0.00     0.277 HD
ENDROOT
BRANCH   2   9
HETATM    9  C   UNL     1      63.629   7.713   5.754  1.00  0.00     0.163 C 
HETATM   10  O   UNL     1      63.065   7.469   6.813  1.00  0.00    -0.292 OA
BRANCH   9  11
HETATM   11  C   UNL     1      63.084   8.803   4.875  1.00  0.00     0.010 A 
HETATM   12  C   UNL     1      62.919  10.131   5.335  1.00  0.00     0.015 A 
HETATM   13  C   UNL     1      62.364  11.115   4.512  1.00  0.00     0.001 A 
HETATM   14  C   UNL     1      61.973  10.804   3.210  1.00  0.00     0.000 A 
HETATM   15  C   UNL     1      62.139   9.507   2.729  1.00  0.00     0.001 A 
HETATM   16  C   UNL     1      62.686   8.511   3.551  1.00  0.00     0.015 A 
ENDBRANCH   9  11
ENDBRANCH   2   9
TORSDOF 2
ENDMDL
MODEL 2
REMARK VINA RESULT:      -5.7      0.068      1.293
REMARK  2 active torsions:
REMARK  status: ('A' for Active; 'I' for Inactive)
REMARK    1  A    between atoms: C_1  and  C_4 
REMARK    2  A    between atoms: C_1  and  C_5 
ROOT
HETATM    1  N   UNL     1      66.973   7.307   7.403  1.00  0.00    -0.075 N 
HETATM    2  C   UNL     1      64.858   7.003   5.388  1.00  0.00     0.064 C 
HETATM    3  C   UNL     1      65.738   6.573   7.722  1.00  0.00     0.233 C 
HETATM    4  C   UNL     1      66.699   8.417   6.480  1.00  0.00     0.233 C 
HETATM    5  C   UNL     1      65.172   5.926   6.445  1.00  0.00     0.040 C 
HETATM    6  C   UNL     1      66.116   7.876   5.168  1.00  0.00     0.040 C 
HETATM    7  H   UNL     1      67.639   6.668   6.968  1.00  0.00     0.277 HD
HETATM    8  H   UNL     1      67.359   7.689   8.266  1.00  0.00     0.277 HD
ENDROOT
BRANCH   2   9
HETATM    9  C   UNL     1      63.581   7.761   5.758  1.00  0.00     0.163 C 
HETATM   10  O   UNL     1      63.052   7.553   6.842  1.00  0.00    -0.292 OA
BRANCH   9  11
HETATM   11  C   UNL     1      62.998   8.812   4.855  1.00  0.00     0.010 A 
HETATM   12  C   UNL     1      62.604   8.530   3.526  1.00  0.00     0.015 A 
HETATM   13  C   UNL     1      62.111   9.537   2.691  1.00  0.00     0.001 A 
HETATM   14  C   UNL     1      61.985  10.843   3.164  1.00  0.00     0.000 A 
HETATM   15  C   UNL     1      62.352  11.143   4.474  1.00  0.00     0.001 A 
HETATM   16  C   UNL     1      62.857  10.141   5.315  1.00  0.00     0.015 A 
ENDBRANCH   9  11
ENDBRANCH   2   9
TORSDOF 2
ENDMDL
MODEL 3
REMARK VINA RESULT:      -5.1      0.980      1.443
REMARK  2 active torsions:
REMARK  status: ('A' for Active; 'I' for Inactive)
REMARK    1  A    between atoms: C_1  and  C_4 
REMARK    2  A    between atoms: C_1  and  C_5 
ROOT
HETATM    1  N   UNL     1      65.952   5.420   6.478  1.00  0.00    -0.075 N 
HETATM    2  C   UNL     1      65.287   7.977   5.195  1.00  0.00     0.064 C 
HETATM    3  C   UNL     1      65.033   5.463   5.329  1.00  0.00     0.233 C 
HETATM    4  C   UNL     1      65.803   6.622   7.311  1.00  0.00     0.233 C 
HETATM    5  C   UNL     1      65.393   6.650   4.418  1.00  0.00     0.040 C 
HETATM    6  C   UNL     1      66.131   7.874   6.487  1.00  0.00     0.040 C 
HETATM    7  H   UNL     1      66.912   5.366   6.137  1.00  0.00     0.277 HD
HETATM    8  H   UNL     1      65.729   4.602   7.044  1.00  0.00     0.277 HD
ENDROOT
BRANCH   2   9
HETATM    9  C   UNL     1      63.820   8.369   5.390  1.00  0.00     0.163 C 
HETATM   10  O   UNL     1      63.223   7.980   6.386  1.00  0.00    -0.292 OA
BRANCH   9  11
HETATM   11  C   UNL     1      63.113   9.282   4.429  1.00  0.00     0.010 A 
HETATM   12  C   UNL     1      62.740  10.602   4.778  1.00  0.00     0.015 A 
HETATM   13  C   UNL     1      62.039  11.413   3.881  1.00  0.00     0.001 A 
HETATM   14  C   UNL     1      61.706  10.936   2.615  1.00  0.00     0.000 A 
HETATM   15  C   UNL     1      62.075   9.646   2.241  1.00  0.00     0.001 A 
HETATM   16  C   UNL     1      62.770   8.821   3.138  1.00  0.00     0.015 A 
ENDBRANCH   9  11
ENDBRANCH   2   9
TORSDOF 2
ENDMDL
MODEL 4
REMARK VINA RESULT:      -4.9      2.082      3.060
REMARK  2 active torsions:
REMARK  status: ('A' for Active; 'I' for Inactive)
REMARK    1  A    between atoms: C_1  and  C_4 
REMARK    2  A    between atoms: C_1  and  C_5 
ROOT
HETATM    1  N   UNL     1      64.718   4.935   4.223  1.00  0.00    -0.075 N 
HETATM    2  C   UNL     1      63.554   7.411   5.291  1.00  0.00     0.064 C 
HETATM    3  C   UNL     1      64.594   6.130   3.372  1.00  0.00     0.233 C 
HETATM    4  C   UNL     1      63.599   4.849   5.171  1.00  0.00     0.233 C 
HETATM    5  C   UNL     1      64.680   7.399   4.240  1.00  0.00     0.040 C 
HETATM    6  C   UNL     1      63.588   6.082   6.083  1.00  0.00     0.040 C 
HETATM    7  H   UNL     1      65.595   4.986   4.743  1.00  0.00     0.277 HD
HETATM    8  H   UNL     1      64.706   4.108   3.627  1.00  0.00     0.277 HD
ENDROOT
BRANCH   2   9
HETATM    9  C   UNL     1      62.214   7.760   4.639  1.00  0.00     0.163 C 
HETATM   10  O   UNL     1      61.216   7.118   4.939  1.00  0.00    -0.292 OA
BRANCH   9  11
HETATM   11  C   UNL     1      62.075   8.920   3.694  1.00  0.00     0.010 A 
HETATM   12  C   UNL     1      62.026   8.747   2.290  1.00  0.00     0.015 A 
HETATM   13  C   UNL     1      61.946   9.848   1.432  1.00  0.00     0.001 A 
HETATM   14  C   UNL     1      61.900  11.141   1.950  1.00  0.00     0.000 A 
HETATM   15  C   UNL     1      61.932  11.337   3.329  1.00  0.00     0.001 A 
HETATM   16  C   UNL     1      62.021  10.240   4.197  1.00  0.00     0.015 A 
ENDBRANCH   9  11
ENDBRANCH   2   9
TORSDOF 2
ENDMDL
MODEL 5
REMARK VINA RESULT:      -4.6      3.684      5.597
REMARK  2 active torsions:
REMARK  status: ('A' for Active; 'I' for Inactive)
REMARK    1  A    between atoms: C_1  and  C_4 
REMARK    2  A    between atoms: C_1  and  C_5 
ROOT
HETATM    1  N   UNL     1      59.968   5.270   2.013  1.00  0.00    -0.075 N 
HETATM    2  C   UNL     1      60.346   8.130   1.459  1.00  0.00     0.064 C 
HETATM    3  C   UNL     1      60.296   6.206   3.102  1.00  0.00     0.233 C 
HETATM    4  C   UNL     1      60.620   5.677   0.761  1.00  0.00     0.233 C 
HETATM    5  C   UNL     1      59.740   7.603   2.774  1.00  0.00     0.040 C 
HETATM    6  C   UNL     1      60.138   7.074   0.348  1.00  0.00     0.040 C 
HETATM    7  H   UNL     1      58.957   5.259   1.876  1.00  0.00     0.277 HD
HETATM    8  H   UNL     1      60.303   4.342   2.269  1.00  0.00     0.277 HD
ENDROOT
BRANCH   2   9
HETATM    9  C   UNL     1      61.791   8.585   1.679  1.00  0.00     0.163 C 
HETATM   10  O   UNL     1      62.607   8.447   0.777  1.00  0.00    -0.292 OA
BRANCH   9  11
HETATM   11  C   UNL     1      62.218   9.268   2.948  1.00  0.00     0.010 A 
HETATM   12  C   UNL     1      61.853  10.602   3.246  1.00  0.00     0.015 A 
HETATM   13  C   UNL     1      62.305  11.230   4.410  1.00  0.00     0.001 A 
HETATM   14  C   UNL     1      63.119  10.541   5.309  1.00  0.00     0.000 A 
HETATM   15  C   UNL     1      63.481   9.222   5.045  1.00  0.00     0.001 A 
HETATM   16  C   UNL     1      63.039   8.588   3.875  1.00  0.00     0.015 A 
ENDBRANCH   9  11
ENDBRANCH   2   9
TORSDOF 2
ENDMDL
MODEL 6
REMARK VINA RESULT:      -4.6      3.349      4.146
REMARK  2 active torsions:
REMARK  status: ('A' for Active; 'I' for Inactive)
REMARK    1  A    between atoms: C_1  and  C_4 
REMARK    2  A    between atoms: C_1  and  C_5 
ROOT
HETATM    1  N   UNL     1      60.572   4.799   3.116  1.00  0.00    -0.075 N 
HETATM    2  C   UNL     1      61.948   6.732   4.847  1.00  0.00     0.064 C 
HETATM    3  C   UNL     1      62.012   4.664   3.389  1.00  0.00     0.233 C 
HETATM    4  C   UNL     1      60.180   6.214   3.062  1.00  0.00     0.233 C 
HETATM    5  C   UNL     1      62.335   5.242   4.780  1.00  0.00     0.040 C 
HETATM    6  C   UNL     1      60.473   6.891   4.407  1.00  0.00     0.040 C 
HETATM    7  H   UNL     1      60.047   4.334   3.857  1.00  0.00     0.277 HD
HETATM    8  H   UNL     1      60.369   4.369   2.214  1.00  0.00     0.277 HD
ENDROOT
BRANCH   2   9
HETATM    9  C   UNL     1      62.963   7.586   4.084  1.00  0.00     0.163 C 
HETATM   10  O   UNL     1      64.106   7.172   3.938  1.00  0.00    -0.292 OA
BRANCH   9  11
HETATM   11  C   UNL     1      62.575   8.889   3.442  1.00  0.00     0.010 A 
HETATM   12  C   UNL     1      62.349  10.063   4.198  1.00  0.00     0.015 A 
HETATM   13  C   UNL     1      61.941  11.249   3.580  1.00  0.00     0.001 A 
HETATM   14  C   UNL     1      61.762  11.297   2.199  1.00  0.00     0.000 A 
HETATM   15  C   UNL     1      61.992  10.157   1.430  1.00  0.00     0.001 A 
HETATM   16  C   UNL     1      62.393   8.961   2.042  1.00  0.00     0.015 A 
ENDBRANCH   9  11
ENDBRANCH   2   9
TORSDOF 2
ENDMDL
MODEL 7
REMARK VINA RESULT:      -4.5      2.384      5.263
REMARK  2 active torsions:
REMARK  status: ('A' for Active; 'I' for Inactive)
REMARK    1  A    between atoms: C_1  and  C_4 
REMARK    2  A    between atoms: C_1  and  C_5 
ROOT
HETATM    1  N   UNL     1      61.818   6.586   4.240  1.00  0.00    -0.075 N 
HETATM    2  C   UNL     1      64.471   7.807   3.925  1.00  0.00     0.064 C 
HETATM    3  C   UNL     1      62.014   8.022   4.494  1.00  0.00     0.233 C 
HETATM    4  C   UNL     1      63.010   5.818   4.626  1.00  0.00     0.233 C 
HETATM    5  C   UNL     1      63.160   8.556   3.615  1.00  0.00     0.040 C 
HETATM    6  C   UNL     1      64.222   6.285   3.809  1.00  0.00     0.040 C 
HETATM    7  H   UNL     1      61.638   6.444   3.245  1.00  0.00     0.277 HD
HETATM    8  H   UNL     1      61.027   6.261   4.794  1.00  0.00     0.277 HD
ENDROOT
BRANCH   2   9
HETATM    9  C   UNL     1      65.060   8.283   5.254  1.00  0.00     0.163 C 
HETATM   10  O   UNL     1      64.787   9.404   5.663  1.00  0.00    -0.292 OA
BRANCH   9  11
HETATM   11  C   UNL     1      65.908   7.384   6.109  1.00  0.00     0.010 A 
HETATM   12  C   UNL     1      67.248   7.072   5.778  1.00  0.00     0.015 A 
HETATM   13  C   UNL     1      67.998   6.193   6.565  1.00  0.00     0.001 A 
HETATM   14  C   UNL     1      67.438   5.616   7.703  1.00  0.00     0.000 A 
HETATM   15  C   UNL     1      66.125   5.919   8.059  1.00  0.00     0.001 A 
HETATM   16  C   UNL     1      65.362   6.792   7.271  1.00  0.00     0.015 A 
ENDBRANCH   9  11
ENDBRANCH   2   9
TORSDOF 2
ENDMDL
MODEL 8
REMARK VINA RESULT:      -4.5      1.345      2.072
REMARK  2 active torsions:
REMARK  status: ('A' for Active; 'I' for Inactive)
REMARK    1  A    between atoms: C_1  and  C_4 
REMARK    2  A    between atoms: C_1  and  C_5 
ROOT
HETATM    1  N   UNL     1      66.187   4.910   5.871  1.00  0.00    -0.075 N 
HETATM    2  C   UNL     1      65.140   7.651   5.755  1.00  0.00     0.064 C 
HETATM    3  C   UNL     1      65.435   5.373   4.693  1.00  0.00     0.233 C 
HETATM    4  C   UNL     1      65.672   5.532   7.098  1.00  0.00     0.233 C 
HETATM    5  C   UNL     1      65.635   6.888   4.510  1.00  0.00     0.040 C 
HETATM    6  C   UNL     1      65.816   7.057   7.013  1.00  0.00     0.040 C 
HETATM    7  H   UNL     1      67.170   5.157   5.758  1.00  0.00     0.277 HD
HETATM    8  H   UNL     1      66.081   3.899   5.949  1.00  0.00     0.277 HD
ENDROOT
BRANCH   2   9
HETATM    9  C   UNL     1      63.611   7.699   5.782  1.00  0.00     0.163 C 
HETATM   10  O   UNL     1      63.024   7.487   6.835  1.00  0.00    -0.292 OA
BRANCH   9  11
HETATM   11  C   UNL     1      62.811   8.073   4.566  1.00  0.00     0.010 A 
HETATM   12  C   UNL     1      62.878   9.362   3.987  1.00  0.00     0.015 A 
HETATM   13  C   UNL     1      62.086   9.698   2.885  1.00  0.00     0.001 A 
HETATM   14  C   UNL     1      61.220   8.758   2.329  1.00  0.00     0.000 A 
HETATM   15  C   UNL     1      61.147   7.477   2.872  1.00  0.00     0.001 A 
HETATM   16  C   UNL     1      61.931   7.133   3.983  1.00  0.00     0.015 A 
ENDBRANCH   9  11
ENDBRANCH   2   9
TORSDOF 2
ENDMDL
MODEL 9
REMARK VINA RESULT:      -4.4      1.686      2.315
REMARK  2 active torsions:
REMARK  status: ('A' for Active; 'I' for Inactive)
REMARK    1  A    between atoms: C_1  and  C_4 
REMARK    2  A    between atoms: C_1  and  C_5 
ROOT
HETATM    1  N   UNL     1      67.804   6.581   4.402  1.00  0.00    -0.075 N 
HETATM    2  C   UNL     1      65.502   5.577   5.924  1.00  0.00     0.064 C 
HETATM    3  C   UNL     1      67.672   6.876   5.838  1.00  0.00     0.233 C 
HETATM    4  C   UNL     1      66.485   6.529   3.756  1.00  0.00     0.233 C 
HETATM    5  C   UNL     1      66.907   5.736   6.536  1.00  0.00     0.040 C 
HETATM    6  C   UNL     1      65.633   5.424   4.391  1.00  0.00     0.040 C 
HETATM    7  H   UNL     1      68.268   5.680   4.287  1.00  0.00     0.277 HD
HETATM    8  H   UNL     1      68.352   7.321   3.966  1.00  0.00     0.277 HD
ENDROOT
BRANCH   2   9
HETATM    9  C   UNL     1      64.578   6.699   6.403  1.00  0.00     0.163 C 
HETATM   10  O   UNL     1      64.680   7.112   7.551  1.00  0.00    -0.292 OA
BRANCH   9  11
HETATM   11  C   UNL     1      63.597   7.362   5.477  1.00  0.00     0.010 A 
HETATM   12  C   UNL     1      63.848   8.625   4.891  1.00  0.00     0.015 A 
HETATM   13  C   UNL     1      62.897   9.241   4.073  1.00  0.00     0.001 A 
HETATM   14  C   UNL     1      61.682   8.610   3.808  1.00  0.00     0.000 A 
HETATM   15  C   UNL     1      61.417   7.359   4.361  1.00  0.00     0.001 A 
HETATM   16  C   UNL     1      62.361   6.738   5.191  1.00  0.00     0.015 A 
ENDBRANCH   9  11
ENDBRANCH   2   9
TORSDOF 2
ENDMDL
