MODEL 1
REMARK VINA RESULT:      -4.6      0.000      0.000
REMARK  0 active torsions:
REMARK  status: ('A' for Active; 'I' for Inactive)
REMARK       I    between atoms: N_1  and  C_2 
ROOT
HETATM    1  N   UNL     1      62.223   9.525   3.113  1.00  0.00    -0.352 N 
HETATM    2  C   UNL     1      61.952  10.152   1.904  1.00  0.00     0.215 C 
HETATM    3  N   UNL     1      62.404   7.256   6.946  1.00  0.00    -0.197 NA
HETATM    4  C   UNL     1      63.093   7.754   6.155  1.00  0.00     0.064 C 
HETATM    5  C   UNL     1      62.423   8.079   3.137  1.00  0.00     0.127 C 
HETATM    6  C   UNL     1      62.296  10.189   4.411  1.00  0.00     0.127 C 
HETATM    7  O   UNL     1      61.878   9.538   0.839  1.00  0.00    -0.274 OA
HETATM    8  C   UNL     1      63.948   8.404   5.144  1.00  0.00     0.096 C 
HETATM    9  C   UNL     1      63.649   9.909   5.066  1.00  0.00     0.039 C 
HETATM   10  C   UNL     1      63.774   7.743   3.770  1.00  0.00     0.039 C 
HETATM   11  C   UNL     1      61.764  11.647   1.925  1.00  0.00     0.117 C 
ENDROOT
TORSDOF 0
ENDMDL
MODEL 2
REMARK VINA RESULT:      -4.4      2.210      4.402
REMARK  0 active torsions:
REMARK  status: ('A' for Active; 'I' for Inactive)
REMARK       I    between atoms: N_1  and  C_2 
ROOT
HETATM    1  N   UNL     1      62.680   8.940   3.844  1.00  0.00    -0.352 N 
HETATM    2  C   UNL     1      63.537   9.192   4.906  1.00  0.00     0.215 C 
HETATM    3  N   UNL     1      59.405   8.075   0.946  1.00  0.00    -0.197 NA
HETATM    4  C   UNL     1      60.481   8.507   0.993  1.00  0.00     0.064 C 
HETATM    5  C   UNL     1      61.727   9.969   3.437  1.00  0.00     0.127 C 
HETATM    6  C   UNL     1      62.614   7.692   3.089  1.00  0.00     0.127 C 
HETATM    7  O   UNL     1      63.533  10.257   5.525  1.00  0.00    -0.274 OA
HETATM    8  C   UNL     1      61.855   9.040   1.075  1.00  0.00     0.096 C 
HETATM    9  C   UNL     1      62.823   7.969   1.601  1.00  0.00     0.039 C 
HETATM   10  C   UNL     1      61.904  10.297   1.954  1.00  0.00     0.039 C 
HETATM   11  C   UNL     1      64.512   8.106   5.284  1.00  0.00     0.117 C 
ENDROOT
TORSDOF 0
ENDMDL
MODEL 3
REMARK VINA RESULT:      -4.3      2.591      4.219
REMARK  0 active torsions:
REMARK  status: ('A' for Active; 'I' for Inactive)
REMARK       I    between atoms: N_1  and  C_2 
ROOT
HETATM    1  N   UNL     1      63.989   8.256   4.698  1.00  0.00    -0.352 N 
HETATM    2  C   UNL     1      65.273   8.364   5.214  1.00  0.00     0.215 C 
HETATM    3  N   UNL     1      59.689   7.633   3.701  1.00  0.00    -0.197 NA
HETATM    4  C   UNL     1      60.626   8.215   3.341  1.00  0.00     0.064 C 
HETATM    5  C   UNL     1      62.955   9.177   5.163  1.00  0.00     0.127 C 
HETATM    6  C   UNL     1      63.549   7.257   3.728  1.00  0.00     0.127 C 
HETATM    7  O   UNL     1      65.585   9.213   6.050  1.00  0.00    -0.274 OA
HETATM    8  C   UNL     1      61.834   8.935   2.894  1.00  0.00     0.096 C 
HETATM    9  C   UNL     1      62.944   7.946   2.506  1.00  0.00     0.039 C 
HETATM   10  C   UNL     1      62.325   9.907   3.976  1.00  0.00     0.039 C 
HETATM   11  C   UNL     1      66.312   7.401   4.697  1.00  0.00     0.117 C 
ENDROOT
TORSDOF 0
ENDMDL
MODEL 4
REMARK VINA RESULT:      -4.0      2.155      2.841
REMARK  0 active torsions:
REMARK  status: ('A' for Active; 'I' for Inactive)
REMARK       I    between atoms: N_1  and  C_2 
ROOT
HETATM    1  N   UNL     1      62.440   9.659   3.381  1.00  0.00    -0.352 N 
HETATM    2  C   UNL     1      62.044  10.989   3.402  1.00  0.00     0.215 C 
HETATM    3  N   UNL     1      64.385   5.648   3.458  1.00  0.00    -0.197 NA
HETATM    4  C   UNL     1      63.340   6.148   3.524  1.00  0.00     0.064 C 
HETATM    5  C   UNL     1      62.777   8.996   4.638  1.00  0.00     0.127 C 
HETATM    6  C   UNL     1      62.589   8.840   2.182  1.00  0.00     0.127 C 
HETATM    7  O   UNL     1      61.958  11.640   4.444  1.00  0.00    -0.274 OA
HETATM    8  C   UNL     1      62.021   6.806   3.593  1.00  0.00     0.096 C 
HETATM    9  C   UNL     1      61.731   7.580   2.298  1.00  0.00     0.039 C 
HETATM   10  C   UNL     1      61.933   7.733   4.813  1.00  0.00     0.039 C 
HETATM   11  C   UNL     1      61.693  11.629   2.083  1.00  0.00     0.117 C 
ENDROOT
TORSDOF 0
ENDMDL
MODEL 5
REMARK VINA RESULT:      -3.9      3.833      4.987
REMARK  0 active torsions:
REMARK  status: ('A' for Active; 'I' for Inactive)
REMARK       I    between atoms: N_1  and  C_2 
ROOT
HETATM    1  N   UNL     1      65.266   7.523   5.598  1.00  0.00    -0.352 N 
HETATM    2  C   UNL     1      64.569   8.659   5.209  1.00  0.00     0.215 C 
HETATM    3  N   UNL     1      68.074   4.180   6.498  1.00  0.00    -0.197 NA
HETATM    4  C   UNL     1      67.061   4.628   6.842  1.00  0.00     0.064 C 
HETATM    5  C   UNL     1      66.264   7.627   6.659  1.00  0.00     0.127 C 
HETATM    6  C   UNL     1      65.116   6.196   5.007  1.00  0.00     0.127 C 
HETATM    7  O   UNL     1      64.753   9.761   5.727  1.00  0.00    -0.274 OA
HETATM    8  C   UNL     1      65.767   5.207   7.254  1.00  0.00     0.096 C 
HETATM    9  C   UNL     1      64.764   5.178   6.092  1.00  0.00     0.039 C 
HETATM   10  C   UNL     1      65.949   6.637   7.781  1.00  0.00     0.039 C 
HETATM   11  C   UNL     1      63.539   8.502   4.119  1.00  0.00     0.117 C 
ENDROOT
TORSDOF 0
ENDMDL
MODEL 6
REMARK VINA RESULT:      -3.8     11.880     13.066
REMARK  0 active torsions:
REMARK  status: ('A' for Active; 'I' for Inactive)
REMARK       I    between atoms: N_1  and  C_2 
ROOT
HETATM    1  N   UNL     1      56.667   1.936  12.922  1.00  0.00    -0.352 N 
HETATM    2  C   UNL     1      55.495   2.679  12.919  1.00  0.00     0.215 C 
HETATM    3  N   UNL     1      60.057  -0.930  12.512  1.00  0.00    -0.197 NA
HETATM    4  C   UNL     1      59.833   0.171  12.803  1.00  0.00     0.064 C 
HETATM    5  C   UNL     1      57.475   1.875  11.707  1.00  0.00     0.127 C 
HETATM    6  C   UNL     1      57.170   1.155  14.048  1.00  0.00     0.127 C 
HETATM    7  O   UNL     1      55.104   3.301  11.931  1.00  0.00    -0.274 OA
HETATM    8  C   UNL     1      59.522   1.563  13.180  1.00  0.00     0.096 C 
HETATM    9  C   UNL     1      58.589   1.600  14.400  1.00  0.00     0.039 C 
HETATM   10  C   UNL     1      58.906   2.327  12.000  1.00  0.00     0.039 C 
HETATM   11  C   UNL     1      54.699   2.724  14.198  1.00  0.00     0.117 C 
ENDROOT
TORSDOF 0
ENDMDL
MODEL 7
REMARK VINA RESULT:      -3.8      1.924      2.284
REMARK  0 active torsions:
REMARK  status: ('A' for Active; 'I' for Inactive)
REMARK       I    between atoms: N_1  and  C_2 
ROOT
HETATM    1  N   UNL     1      61.442   7.480   2.476  1.00  0.00    -0.352 N 
HETATM    2  C   UNL     1      60.884   7.216   1.232  1.00  0.00     0.215 C 
HETATM    3  N   UNL     1      62.819   7.764   6.706  1.00  0.00    -0.197 NA
HETATM    4  C   UNL     1      63.111   8.102   5.635  1.00  0.00     0.064 C 
HETATM    5  C   UNL     1      62.439   6.562   3.019  1.00  0.00     0.127 C 
HETATM    6  C   UNL     1      61.092   8.606   3.337  1.00  0.00     0.127 C 
HETATM    7  O   UNL     1      61.200   6.236   0.557  1.00  0.00    -0.274 OA
HETATM    8  C   UNL     1      63.455   8.530   4.265  1.00  0.00     0.096 C 
HETATM    9  C   UNL     1      62.345   9.413   3.677  1.00  0.00     0.039 C 
HETATM   10  C   UNL     1      63.723   7.318   3.362  1.00  0.00     0.039 C 
HETATM   11  C   UNL     1      59.868   8.197   0.705  1.00  0.00     0.117 C 
ENDROOT
TORSDOF 0
ENDMDL
MODEL 8
REMARK VINA RESULT:      -3.7      4.673      6.628
REMARK  0 active torsions:
REMARK  status: ('A' for Active; 'I' for Inactive)
REMARK       I    between atoms: N_1  and  C_2 
ROOT
HETATM    1  N   UNL     1      65.867   5.479   6.975  1.00  0.00    -0.352 N 
HETATM    2  C   UNL     1      66.310   4.335   7.625  1.00  0.00     0.215 C 
HETATM    3  N   UNL     1      63.862   9.110   5.341  1.00  0.00    -0.197 NA
HETATM    4  C   UNL     1      64.896   8.584   5.373  1.00  0.00     0.064 C 
HETATM    5  C   UNL     1      65.915   6.760   7.675  1.00  0.00     0.127 C 
HETATM    6  C   UNL     1      65.307   5.522   5.627  1.00  0.00     0.127 C 
HETATM    7  O   UNL     1      66.752   4.352   8.774  1.00  0.00    -0.274 OA
HETATM    8  C   UNL     1      66.198   7.891   5.417  1.00  0.00     0.096 C 
HETATM    9  C   UNL     1      66.099   6.504   4.764  1.00  0.00     0.039 C 
HETATM   10  C   UNL     1      66.711   7.779   6.860  1.00  0.00     0.039 C 
HETATM   11  C   UNL     1      66.254   3.037   6.861  1.00  0.00     0.117 C 
ENDROOT
TORSDOF 0
ENDMDL
MODEL 9
REMARK VINA RESULT:      -3.7      2.863      4.617
REMARK  0 active torsions:
REMARK  status: ('A' for Active; 'I' for Inactive)
REMARK       I    between atoms: N_1  and  C_2 
ROOT
HETATM    1  N   UNL     1      60.308   7.632   2.700  1.00  0.00    -0.352 N 
HETATM    2  C   UNL     1      59.711   6.433   3.061  1.00  0.00     0.215 C 
HETATM    3  N   UNL     1      61.753  11.793   2.010  1.00  0.00    -0.197 NA
HETATM    4  C   UNL     1      62.072  10.688   1.860  1.00  0.00     0.064 C 
HETATM    5  C   UNL     1      61.193   8.302   3.649  1.00  0.00     0.127 C 
HETATM    6  C   UNL     1      60.106   8.330   1.433  1.00  0.00     0.127 C 
HETATM    7  O   UNL     1      59.899   5.900   4.155  1.00  0.00    -0.274 OA
HETATM    8  C   UNL     1      62.452   9.275   1.667  1.00  0.00     0.096 C 
HETATM    9  C   UNL     1      61.450   8.564   0.744  1.00  0.00     0.039 C 
HETATM   10  C   UNL     1      62.562   8.548   3.014  1.00  0.00     0.039 C 
HETATM   11  C   UNL     1      58.815   5.770   2.045  1.00  0.00     0.117 C 
ENDROOT
TORSDOF 0
ENDMDL
