MODEL 1
REMARK VINA RESULT:      -5.7      0.000      0.000
REMARK  3 active torsions:
REMARK  status: ('A' for Active; 'I' for Inactive)
REMARK    1  A    between atoms: C_1  and  C_2 
REMARK    2  A    between atoms: C_1  and  C_5 
REMARK    3  A    between atoms: C_8  and  O_11 
ROOT
HETATM    1  C   UNL     1      63.904   7.281   5.937  1.00  0.00     0.163 C 
HETATM    2  O   UNL     1      63.279   7.185   6.983  1.00  0.00    -0.292 OA
ENDROOT
BRANCH   1   3
HETATM    3  C   UNL     1      63.338   8.143   4.845  1.00  0.00     0.010 A 
HETATM    4  C   UNL     1      62.913   9.458   5.127  1.00  0.00     0.018 A 
HETATM    5  C   UNL     1      62.375  10.271   4.118  1.00  0.00     0.037 A 
HETATM    6  C   UNL     1      62.247   9.788   2.807  1.00  0.00     0.068 A 
HETATM    7  C   UNL     1      62.672   8.481   2.523  1.00  0.00     0.037 A 
HETATM    8  C   UNL     1      63.211   7.674   3.522  1.00  0.00     0.018 A 
BRANCH   6   9
HETATM    9  O   UNL     1      61.719  10.601   1.858  1.00  0.00    -0.356 OA
HETATM   10  C   UNL     1      61.669  11.979   1.933  1.00  0.00     0.210 C 
ENDBRANCH   6   9
ENDBRANCH   1   3
BRANCH   1  11
HETATM   11  C   UNL     1      65.228   6.526   5.774  1.00  0.00     0.064 C 
HETATM   12  C   UNL     1      65.643   5.679   6.994  1.00  0.00     0.040 C 
HETATM   13  C   UNL     1      66.124   6.546   8.168  1.00  0.00     0.233 C 
HETATM   14  N   UNL     1      67.218   7.428   7.736  1.00  0.00    -0.075 N 
HETATM   15  C   UNL     1      66.791   8.315   6.642  1.00  0.00     0.233 C 
HETATM   16  H   UNL     1      67.998   6.855   7.414  1.00  0.00     0.277 HD
HETATM   17  H   UNL     1      67.497   8.006   8.529  1.00  0.00     0.277 HD
HETATM   18  C   UNL     1      66.384   7.480   5.417  1.00  0.00     0.040 C 
ENDBRANCH   1  11
TORSDOF 3
ENDMDL
MODEL 2
REMARK VINA RESULT:      -5.2      1.110      1.826
REMARK  3 active torsions:
REMARK  status: ('A' for Active; 'I' for Inactive)
REMARK    1  A    between atoms: C_1  and  C_2 
REMARK    2  A    between atoms: C_1  and  C_5 
REMARK    3  A    between atoms: C_8  and  O_11 
ROOT
HETATM    1  C   UNL     1      64.655   7.722   6.141  1.00  0.00     0.163 C 
HETATM    2  O   UNL     1      64.063   7.016   6.944  1.00  0.00    -0.292 OA
ENDROOT
BRANCH   1   3
HETATM    3  C   UNL     1      63.855   8.418   5.077  1.00  0.00     0.010 A 
HETATM    4  C   UNL     1      63.343   9.712   5.307  1.00  0.00     0.018 A 
HETATM    5  C   UNL     1      62.588  10.370   4.324  1.00  0.00     0.037 A 
HETATM    6  C   UNL     1      62.325   9.751   3.094  1.00  0.00     0.068 A 
HETATM    7  C   UNL     1      62.836   8.465   2.862  1.00  0.00     0.037 A 
HETATM    8  C   UNL     1      63.590   7.810   3.833  1.00  0.00     0.018 A 
BRANCH   6   9
HETATM    9  O   UNL     1      61.588  10.416   2.169  1.00  0.00    -0.356 OA
HETATM   10  C   UNL     1      61.662  11.772   1.923  1.00  0.00     0.210 C 
ENDBRANCH   6   9
ENDBRANCH   1   3
BRANCH   1  11
HETATM   11  C   UNL     1      66.177   7.870   6.242  1.00  0.00     0.064 C 
HETATM   12  C   UNL     1      66.927   7.769   4.899  1.00  0.00     0.040 C 
HETATM   13  C   UNL     1      66.965   6.330   4.360  1.00  0.00     0.233 C 
HETATM   14  N   UNL     1      67.547   5.425   5.362  1.00  0.00    -0.075 N 
HETATM   15  C   UNL     1      66.768   5.438   6.611  1.00  0.00     0.233 C 
HETATM   16  H   UNL     1      68.501   5.723   5.563  1.00  0.00     0.277 HD
HETATM   17  H   UNL     1      67.535   4.478   4.985  1.00  0.00     0.277 HD
HETATM   18  C   UNL     1      66.781   6.847   7.225  1.00  0.00     0.040 C 
ENDBRANCH   1  11
TORSDOF 3
ENDMDL
MODEL 3
REMARK VINA RESULT:      -5.2      1.613      2.230
REMARK  3 active torsions:
REMARK  status: ('A' for Active; 'I' for Inactive)
REMARK    1  A    between atoms: C_1  and  C_2 
REMARK    2  A    between atoms: C_1  and  C_5 
REMARK    3  A    between atoms: C_8  and  O_11 
ROOT
HETATM    1  C   UNL     1      64.624   8.291   4.954  1.00  0.00     0.163 C 
HETATM    2  O   UNL     1      64.919   9.250   5.652  1.00  0.00    -0.292 OA
ENDROOT
BRANCH   1   3
HETATM    3  C   UNL     1      63.553   8.468   3.915  1.00  0.00     0.010 A 
HETATM    4  C   UNL     1      63.373   7.495   2.909  1.00  0.00     0.018 A 
HETATM    5  C   UNL     1      62.382   7.652   1.929  1.00  0.00     0.037 A 
HETATM    6  C   UNL     1      61.552   8.782   1.929  1.00  0.00     0.068 A 
HETATM    7  C   UNL     1      61.727   9.750   2.930  1.00  0.00     0.037 A 
HETATM    8  C   UNL     1      62.707   9.595   3.908  1.00  0.00     0.018 A 
BRANCH   6   9
HETATM    9  O   UNL     1      60.607   8.902   0.963  1.00  0.00    -0.356 OA
HETATM   10  C   UNL     1      59.628   7.967   0.692  1.00  0.00     0.210 C 
ENDBRANCH   6   9
ENDBRANCH   1   3
BRANCH   1  11
HETATM   11  C   UNL     1      65.344   6.954   5.162  1.00  0.00     0.064 C 
HETATM   12  C   UNL     1      65.615   6.588   6.634  1.00  0.00     0.040 C 
HETATM   13  C   UNL     1      66.734   7.443   7.251  1.00  0.00     0.233 C 
HETATM   14  N   UNL     1      67.958   7.340   6.444  1.00  0.00    -0.075 N 
HETATM   15  C   UNL     1      67.729   7.792   5.061  1.00  0.00     0.233 C 
HETATM   16  H   UNL     1      68.263   6.367   6.428  1.00  0.00     0.277 HD
HETATM   17  H   UNL     1      68.671   7.936   6.863  1.00  0.00     0.277 HD
HETATM   18  C   UNL     1      66.674   6.902   4.385  1.00  0.00     0.040 C 
ENDBRANCH   1  11
TORSDOF 3
ENDMDL
MODEL 4
REMARK VINA RESULT:      -5.1      1.154      2.222
REMARK  3 active torsions:
REMARK  status: ('A' for Active; 'I' for Inactive)
REMARK    1  A    between atoms: C_1  and  C_2 
REMARK    2  A    between atoms: C_1  and  C_5 
REMARK    3  A    between atoms: C_8  and  O_11 
ROOT
HETATM    1  C   UNL     1      64.668   7.699   6.160  1.00  0.00     0.163 C 
HETATM    2  O   UNL     1      64.082   6.973   6.950  1.00  0.00    -0.292 OA
ENDROOT
BRANCH   1   3
HETATM    3  C   UNL     1      63.858   8.436   5.133  1.00  0.00     0.010 A 
HETATM    4  C   UNL     1      63.550   7.826   3.899  1.00  0.00     0.018 A 
HETATM    5  C   UNL     1      62.800   8.506   2.928  1.00  0.00     0.037 A 
HETATM    6  C   UNL     1      62.345   9.811   3.165  1.00  0.00     0.068 A 
HETATM    7  C   UNL     1      62.647  10.420   4.393  1.00  0.00     0.037 A 
HETATM    8  C   UNL     1      63.387   9.745   5.361  1.00  0.00     0.018 A 
BRANCH   6   9
HETATM    9  O   UNL     1      61.626  10.440   2.202  1.00  0.00    -0.356 OA
HETATM   10  C   UNL     1      61.679  11.793   1.930  1.00  0.00     0.210 C 
ENDBRANCH   6   9
ENDBRANCH   1   3
BRANCH   1  11
HETATM   11  C   UNL     1      66.193   7.829   6.241  1.00  0.00     0.064 C 
HETATM   12  C   UNL     1      66.916   7.807   4.879  1.00  0.00     0.040 C 
HETATM   13  C   UNL     1      66.932   6.404   4.251  1.00  0.00     0.233 C 
HETATM   14  N   UNL     1      67.525   5.435   5.183  1.00  0.00    -0.075 N 
HETATM   15  C   UNL     1      66.771   5.375   6.446  1.00  0.00     0.233 C 
HETATM   16  H   UNL     1      68.486   5.713   5.383  1.00  0.00     0.277 HD
HETATM   17  H   UNL     1      67.498   4.513   4.748  1.00  0.00     0.277 HD
HETATM   18  C   UNL     1      66.807   6.743   7.145  1.00  0.00     0.040 C 
ENDBRANCH   1  11
TORSDOF 3
ENDMDL
MODEL 5
REMARK VINA RESULT:      -4.8      1.784      2.511
REMARK  3 active torsions:
REMARK  status: ('A' for Active; 'I' for Inactive)
REMARK    1  A    between atoms: C_1  and  C_2 
REMARK    2  A    between atoms: C_1  and  C_5 
REMARK    3  A    between atoms: C_8  and  O_11 
ROOT
HETATM    1  C   UNL     1      65.586   7.913   5.704  1.00  0.00     0.163 C 
HETATM    2  O   UNL     1      66.684   8.383   5.447  1.00  0.00    -0.292 OA
ENDROOT
BRANCH   1   3
HETATM    3  C   UNL     1      64.439   8.242   4.790  1.00  0.00     0.010 A 
HETATM    4  C   UNL     1      64.184   7.443   3.656  1.00  0.00     0.018 A 
HETATM    5  C   UNL     1      63.121   7.743   2.791  1.00  0.00     0.037 A 
HETATM    6  C   UNL     1      62.293   8.848   3.036  1.00  0.00     0.068 A 
HETATM    7  C   UNL     1      62.543   9.642   4.165  1.00  0.00     0.037 A 
HETATM    8  C   UNL     1      63.594   9.344   5.029  1.00  0.00     0.018 A 
BRANCH   6   9
HETATM    9  O   UNL     1      61.277   9.110   2.176  1.00  0.00    -0.356 OA
HETATM   10  C   UNL     1      61.107   8.509   0.944  1.00  0.00     0.210 C 
ENDBRANCH   6   9
ENDBRANCH   1   3
BRANCH   1  11
HETATM   11  C   UNL     1      65.414   7.018   6.936  1.00  0.00     0.064 C 
HETATM   12  C   UNL     1      66.690   6.831   7.780  1.00  0.00     0.040 C 
HETATM   13  C   UNL     1      67.717   5.918   7.091  1.00  0.00     0.233 C 
HETATM   14  N   UNL     1      67.105   4.624   6.758  1.00  0.00    -0.075 N 
HETATM   15  C   UNL     1      65.949   4.792   5.861  1.00  0.00     0.233 C 
HETATM   16  H   UNL     1      66.795   4.172   7.618  1.00  0.00     0.277 HD
HETATM   17  H   UNL     1      67.801   4.052   6.280  1.00  0.00     0.277 HD
HETATM   18  C   UNL     1      64.863   5.630   6.555  1.00  0.00     0.040 C 
ENDBRANCH   1  11
TORSDOF 3
ENDMDL
MODEL 6
REMARK VINA RESULT:      -4.8      2.086      2.716
REMARK  3 active torsions:
REMARK  status: ('A' for Active; 'I' for Inactive)
REMARK    1  A    between atoms: C_1  and  C_2 
REMARK    2  A    between atoms: C_1  and  C_5 
REMARK    3  A    between atoms: C_8  and  O_11 
ROOT
HETATM    1  C   UNL     1      64.372   8.317   5.330  1.00  0.00     0.163 C 
HETATM    2  O   UNL     1      64.718   9.467   5.558  1.00  0.00    -0.292 OA
ENDROOT
BRANCH   1   3
HETATM    3  C   UNL     1      63.152   8.095   4.481  1.00  0.00     0.010 A 
HETATM    4  C   UNL     1      63.112   8.578   3.156  1.00  0.00     0.018 A 
HETATM    5  C   UNL     1      61.977   8.384   2.355  1.00  0.00     0.037 A 
HETATM    6  C   UNL     1      60.857   7.707   2.859  1.00  0.00     0.068 A 
HETATM    7  C   UNL     1      60.895   7.223   4.176  1.00  0.00     0.037 A 
HETATM    8  C   UNL     1      62.023   7.409   4.972  1.00  0.00     0.018 A 
BRANCH   6   9
HETATM    9  O   UNL     1      59.775   7.541   2.057  1.00  0.00    -0.356 OA
HETATM   10  C   UNL     1      59.639   8.075   0.791  1.00  0.00     0.210 C 
ENDBRANCH   6   9
ENDBRANCH   1   3
BRANCH   1  11
HETATM   11  C   UNL     1      65.180   7.153   5.914  1.00  0.00     0.064 C 
HETATM   12  C   UNL     1      66.571   7.540   6.454  1.00  0.00     0.040 C 
HETATM   13  C   UNL     1      67.569   7.848   5.326  1.00  0.00     0.233 C 
HETATM   14  N   UNL     1      67.657   6.710   4.399  1.00  0.00    -0.075 N 
HETATM   15  C   UNL     1      66.347   6.407   3.797  1.00  0.00     0.233 C 
HETATM   16  H   UNL     1      67.985   5.891   4.909  1.00  0.00     0.277 HD
HETATM   17  H   UNL     1      68.305   6.955   3.650  1.00  0.00     0.277 HD
HETATM   18  C   UNL     1      65.345   6.010   4.893  1.00  0.00     0.040 C 
ENDBRANCH   1  11
TORSDOF 3
ENDMDL
MODEL 7
REMARK VINA RESULT:      -4.7      3.566      6.337
REMARK  3 active torsions:
REMARK  status: ('A' for Active; 'I' for Inactive)
REMARK    1  A    between atoms: C_1  and  C_2 
REMARK    2  A    between atoms: C_1  and  C_5 
REMARK    3  A    between atoms: C_8  and  O_11 
ROOT
HETATM    1  C   UNL     1      61.551   7.980   2.076  1.00  0.00     0.163 C 
HETATM    2  O   UNL     1      61.402   8.793   1.177  1.00  0.00    -0.292 OA
ENDROOT
BRANCH   1   3
HETATM    3  C   UNL     1      62.582   8.264   3.131  1.00  0.00     0.010 A 
HETATM    4  C   UNL     1      63.691   7.407   3.290  1.00  0.00     0.018 A 
HETATM    5  C   UNL     1      64.657   7.657   4.276  1.00  0.00     0.037 A 
HETATM    6  C   UNL     1      64.536   8.765   5.127  1.00  0.00     0.068 A 
HETATM    7  C   UNL     1      63.435   9.622   4.969  1.00  0.00     0.037 A 
HETATM    8  C   UNL     1      62.477   9.379   3.988  1.00  0.00     0.018 A 
BRANCH   6   9
HETATM    9  O   UNL     1      65.487   8.974   6.071  1.00  0.00    -0.356 OA
HETATM   10  C   UNL     1      66.516   8.101   6.365  1.00  0.00     0.210 C 
ENDBRANCH   6   9
ENDBRANCH   1   3
BRANCH   1  11
HETATM   11  C   UNL     1      60.694   6.709   2.097  1.00  0.00     0.064 C 
HETATM   12  C   UNL     1      59.579   6.665   1.035  1.00  0.00     0.040 C 
HETATM   13  C   UNL     1      58.419   7.617   1.367  1.00  0.00     0.233 C 
HETATM   14  N   UNL     1      57.888   7.325   2.707  1.00  0.00    -0.075 N 
HETATM   15  C   UNL     1      58.928   7.473   3.739  1.00  0.00     0.233 C 
HETATM   16  H   UNL     1      57.538   6.368   2.724  1.00  0.00     0.277 HD
HETATM   17  H   UNL     1      57.140   7.988   2.908  1.00  0.00     0.277 HD
HETATM   18  C   UNL     1      60.067   6.473   3.485  1.00  0.00     0.040 C 
ENDBRANCH   1  11
TORSDOF 3
ENDMDL
MODEL 8
REMARK VINA RESULT:      -4.6      2.241      2.933
REMARK  3 active torsions:
REMARK  status: ('A' for Active; 'I' for Inactive)
REMARK    1  A    between atoms: C_1  and  C_2 
REMARK    2  A    between atoms: C_1  and  C_5 
REMARK    3  A    between atoms: C_8  and  O_11 
ROOT
HETATM    1  C   UNL     1      66.167   7.351   6.343  1.00  0.00     0.163 C 
HETATM    2  O   UNL     1      66.528   8.338   6.967  1.00  0.00    -0.292 OA
ENDROOT
BRANCH   1   3
HETATM    3  C   UNL     1      64.831   7.390   5.657  1.00  0.00     0.010 A 
HETATM    4  C   UNL     1      64.754   7.602   4.265  1.00  0.00     0.018 A 
HETATM    5  C   UNL     1      63.512   7.648   3.613  1.00  0.00     0.037 A 
HETATM    6  C   UNL     1      62.321   7.488   4.337  1.00  0.00     0.068 A 
HETATM    7  C   UNL     1      62.396   7.275   5.722  1.00  0.00     0.037 A 
HETATM    8  C   UNL     1      63.627   7.223   6.371  1.00  0.00     0.018 A 
BRANCH   6   9
HETATM    9  O   UNL     1      61.139   7.543   3.674  1.00  0.00    -0.356 OA
HETATM   10  C   UNL     1      60.925   8.219   2.489  1.00  0.00     0.210 C 
ENDBRANCH   6   9
ENDBRANCH   1   3
BRANCH   1  11
HETATM   11  C   UNL     1      67.077   6.119   6.283  1.00  0.00     0.064 C 
HETATM   12  C   UNL     1      66.344   4.787   6.030  1.00  0.00     0.040 C 
HETATM   13  C   UNL     1      65.553   4.314   7.260  1.00  0.00     0.233 C 
HETATM   14  N   UNL     1      66.439   4.218   8.429  1.00  0.00    -0.075 N 
HETATM   15  C   UNL     1      67.058   5.518   8.740  1.00  0.00     0.233 C 
HETATM   16  H   UNL     1      67.174   3.539   8.234  1.00  0.00     0.277 HD
HETATM   17  H   UNL     1      65.882   3.927   9.232  1.00  0.00     0.277 HD
HETATM   18  C   UNL     1      67.928   5.981   7.561  1.00  0.00     0.040 C 
ENDBRANCH   1  11
TORSDOF 3
ENDMDL
MODEL 9
REMARK VINA RESULT:      -4.5      3.000      6.181
REMARK  3 active torsions:
REMARK  status: ('A' for Active; 'I' for Inactive)
REMARK    1  A    between atoms: C_1  and  C_2 
REMARK    2  A    between atoms: C_1  and  C_5 
REMARK    3  A    between atoms: C_8  and  O_11 
ROOT
HETATM    1  C   UNL     1      63.362   7.563   2.842  1.00  0.00     0.163 C 
HETATM    2  O   UNL     1      63.566   6.711   1.990  1.00  0.00    -0.292 OA
ENDROOT
BRANCH   1   3
HETATM    3  C   UNL     1      63.938   7.353   4.214  1.00  0.00     0.010 A 
HETATM    4  C   UNL     1      65.071   8.084   4.627  1.00  0.00     0.018 A 
HETATM    5  C   UNL     1      65.623   7.892   5.903  1.00  0.00     0.037 A 
HETATM    6  C   UNL     1      65.059   6.964   6.790  1.00  0.00     0.068 A 
HETATM    7  C   UNL     1      63.930   6.238   6.382  1.00  0.00     0.037 A 
HETATM    8  C   UNL     1      63.376   6.430   5.119  1.00  0.00     0.018 A 
BRANCH   6   9
HETATM    9  O   UNL     1      65.622   6.802   8.014  1.00  0.00    -0.356 OA
HETATM   10  C   UNL     1      66.730   6.022   8.279  1.00  0.00     0.210 C 
ENDBRANCH   6   9
ENDBRANCH   1   3
BRANCH   1  11
HETATM   11  C   UNL     1      62.533   8.803   2.488  1.00  0.00     0.064 C 
HETATM   12  C   UNL     1      61.420   9.144   3.498  1.00  0.00     0.040 C 
HETATM   13  C   UNL     1      60.239   8.163   3.417  1.00  0.00     0.233 C 
HETATM   14  N   UNL     1      59.714   8.109   2.045  1.00  0.00    -0.075 N 
HETATM   15  C   UNL     1      60.749   7.677   1.092  1.00  0.00     0.233 C 
HETATM   16  H   UNL     1      59.384   9.037   1.780  1.00  0.00     0.277 HD
HETATM   17  H   UNL     1      58.951   7.433   2.019  1.00  0.00     0.277 HD
HETATM   18  C   UNL     1      61.909   8.685   1.084  1.00  0.00     0.040 C 
ENDBRANCH   1  11
TORSDOF 3
ENDMDL
