MODEL 1
REMARK VINA RESULT:      -4.0      0.000      0.000
REMARK  3 active torsions:
REMARK  status: ('A' for Active; 'I' for Inactive)
REMARK    1  A    between atoms: C_1  and  N_2 
REMARK    2  A    between atoms: C_1  and  N_6 
REMARK    3  A    between atoms: N_2  and  C_7 
ROOT
HETATM    1  N   UNL     1      61.713  10.834   3.054  1.00  0.00    -0.375 N 
ATOM      2  HN  UNL     1      61.164  11.412   2.418  1.00  0.00     0.164 HD
HETATM    3  C   UNL     1      63.263   9.252   4.782  1.00  0.00     0.036 A 
HETATM    4  C   UNL     1      62.850   8.761   3.550  1.00  0.00     0.046 A 
HETATM    5  C   UNL     1      62.847  10.531   5.160  1.00  0.00     0.046 A 
HETATM    6  C   UNL     1      62.095  11.279   4.266  1.00  0.00     0.090 A 
HETATM    7  C   UNL     1      62.093   9.581   2.726  1.00  0.00     0.090 A 
ENDROOT
BRANCH   3   8
HETATM    8  N   UNL     1      64.060   8.538   5.707  1.00  0.00    -0.333 N 
HETATM    9  H   UNL     1      63.649   8.417   6.594  1.00  0.00     0.168 HD
BRANCH   8  10
HETATM   10  C   UNL     1      65.311   7.982   5.575  1.00  0.00     0.169 C 
HETATM   11  S   UNL     1      65.910   6.903   4.462  1.00  0.00    -0.041 SA
BRANCH  10  12
HETATM   12  N   UNL     1      66.187   8.493   6.493  1.00  0.00    -0.376 N 
HETATM   13  H   UNL     1      65.865   9.105   7.194  1.00  0.00     0.158 HD
HETATM   14  H   UNL     1      67.140   8.249   6.453  1.00  0.00     0.158 HD
ENDBRANCH  10  12
ENDBRANCH   8  10
ENDBRANCH   3   8
TORSDOF 3
ENDMDL
MODEL 2
REMARK VINA RESULT:      -4.0      0.085      1.484
REMARK  3 active torsions:
REMARK  status: ('A' for Active; 'I' for Inactive)
REMARK    1  A    between atoms: C_1  and  N_2 
REMARK    2  A    between atoms: C_1  and  N_6 
REMARK    3  A    between atoms: N_2  and  C_7 
ROOT
HETATM    1  N   UNL     1      61.682  10.832   3.029  1.00  0.00    -0.375 N 
ATOM      2  HN  UNL     1      61.112  11.371   2.378  1.00  0.00     0.164 HD
HETATM    3  C   UNL     1      63.215   9.336   4.847  1.00  0.00     0.036 A 
HETATM    4  C   UNL     1      62.848  10.645   5.136  1.00  0.00     0.046 A 
HETATM    5  C   UNL     1      62.846   8.802   3.610  1.00  0.00     0.046 A 
HETATM    6  C   UNL     1      62.076   9.574   2.753  1.00  0.00     0.090 A 
HETATM    7  C   UNL     1      62.083  11.341   4.213  1.00  0.00     0.090 A 
ENDROOT
BRANCH   3   8
HETATM    8  N   UNL     1      63.967   8.502   5.707  1.00  0.00    -0.333 N 
HETATM    9  H   UNL     1      63.512   8.263   6.546  1.00  0.00     0.168 HD
BRANCH   8  10
HETATM   10  C   UNL     1      65.228   7.970   5.566  1.00  0.00     0.169 C 
HETATM   11  S   UNL     1      65.839   6.903   4.448  1.00  0.00    -0.041 SA
BRANCH  10  12
HETATM   12  N   UNL     1      66.100   8.494   6.480  1.00  0.00    -0.376 N 
HETATM   13  H   UNL     1      65.759   8.907   7.306  1.00  0.00     0.158 HD
HETATM   14  H   UNL     1      67.069   8.461   6.311  1.00  0.00     0.158 HD
ENDBRANCH  10  12
ENDBRANCH   8  10
ENDBRANCH   3   8
TORSDOF 3
ENDMDL
MODEL 3
REMARK VINA RESULT:      -4.0      2.306      4.496
REMARK  3 active torsions:
REMARK  status: ('A' for Active; 'I' for Inactive)
REMARK    1  A    between atoms: C_1  and  N_2 
REMARK    2  A    between atoms: C_1  and  N_6 
REMARK    3  A    between atoms: N_2  and  C_7 
ROOT
HETATM    1  N   UNL     1      63.529  10.002   5.746  1.00  0.00    -0.375 N 
ATOM      2  HN  UNL     1      64.044   9.994   6.626  1.00  0.00     0.164 HD
HETATM    3  C   UNL     1      62.145  10.046   3.302  1.00  0.00     0.036 A 
HETATM    4  C   UNL     1      62.086  11.129   4.171  1.00  0.00     0.046 A 
HETATM    5  C   UNL     1      62.867   8.917   3.697  1.00  0.00     0.046 A 
HETATM    6  C   UNL     1      63.546   8.949   4.906  1.00  0.00     0.090 A 
HETATM    7  C   UNL     1      62.794  11.066   5.362  1.00  0.00     0.090 A 
ENDROOT
BRANCH   3   8
HETATM    8  N   UNL     1      61.498   9.987   2.046  1.00  0.00    -0.333 N 
HETATM    9  H   UNL     1      61.232  10.862   1.680  1.00  0.00     0.168 HD
BRANCH   8  10
HETATM   10  C   UNL     1      61.178   8.913   1.248  1.00  0.00     0.169 C 
HETATM   11  S   UNL     1      62.130   7.962   0.272  1.00  0.00    -0.041 SA
BRANCH  10  12
HETATM   12  N   UNL     1      59.861   8.567   1.374  1.00  0.00    -0.376 N 
HETATM   13  H   UNL     1      59.199   9.242   1.648  1.00  0.00     0.158 HD
HETATM   14  H   UNL     1      59.574   7.644   1.192  1.00  0.00     0.158 HD
ENDBRANCH  10  12
ENDBRANCH   8  10
ENDBRANCH   3   8
TORSDOF 3
ENDMDL
MODEL 4
REMARK VINA RESULT:      -3.9      1.805      2.350
REMARK  3 active torsions:
REMARK  status: ('A' for Active; 'I' for Inactive)
REMARK    1  A    between atoms: C_1  and  N_2 
REMARK    2  A    between atoms: C_1  and  N_6 
REMARK    3  A    between atoms: N_2  and  C_7 
ROOT
HETATM    1  N   UNL     1      61.750  10.699   1.946  1.00  0.00    -0.375 N 
ATOM      2  HN  UNL     1      61.451  11.057   1.039  1.00  0.00     0.164 HD
HETATM    3  C   UNL     1      62.526   9.709   4.457  1.00  0.00     0.036 A 
HETATM    4  C   UNL     1      62.211  11.052   4.290  1.00  0.00     0.046 A 
HETATM    5  C   UNL     1      62.495   8.876   3.336  1.00  0.00     0.046 A 
HETATM    6  C   UNL     1      62.090   9.408   2.121  1.00  0.00     0.090 A 
HETATM    7  C   UNL     1      61.824  11.494   3.034  1.00  0.00     0.090 A 
ENDROOT
BRANCH   3   8
HETATM    8  N   UNL     1      62.907   9.119   5.685  1.00  0.00    -0.333 N 
HETATM    9  H   UNL     1      63.053   9.759   6.419  1.00  0.00     0.168 HD
BRANCH   8  10
HETATM   10  C   UNL     1      63.109   7.802   6.025  1.00  0.00     0.169 C 
HETATM   11  S   UNL     1      62.040   6.535   6.151  1.00  0.00    -0.041 SA
BRANCH  10  12
HETATM   12  N   UNL     1      64.436   7.527   6.208  1.00  0.00    -0.376 N 
HETATM   13  H   UNL     1      64.802   6.657   5.927  1.00  0.00     0.158 HD
HETATM   14  H   UNL     1      65.026   8.197   6.621  1.00  0.00     0.158 HD
ENDBRANCH  10  12
ENDBRANCH   8  10
ENDBRANCH   3   8
TORSDOF 3
ENDMDL
MODEL 5
REMARK VINA RESULT:      -3.8      2.394      4.675
REMARK  3 active torsions:
REMARK  status: ('A' for Active; 'I' for Inactive)
REMARK    1  A    between atoms: C_1  and  N_2 
REMARK    2  A    between atoms: C_1  and  N_6 
REMARK    3  A    between atoms: N_2  and  C_7 
ROOT
HETATM    1  N   UNL     1      67.494   6.757   4.535  1.00  0.00    -0.375 N 
ATOM      2  HN  UNL     1      68.335   6.285   4.203  1.00  0.00     0.164 HD
HETATM    3  C   UNL     1      65.193   8.097   5.429  1.00  0.00     0.036 A 
HETATM    4  C   UNL     1      66.401   8.234   6.102  1.00  0.00     0.046 A 
HETATM    5  C   UNL     1      65.141   7.237   4.329  1.00  0.00     0.046 A 
HETATM    6  C   UNL     1      66.307   6.610   3.917  1.00  0.00     0.090 A 
HETATM    7  C   UNL     1      67.513   7.561   5.619  1.00  0.00     0.090 A 
ENDROOT
BRANCH   3   8
HETATM    8  N   UNL     1      63.990   8.745   5.794  1.00  0.00    -0.333 N 
HETATM    9  H   UNL     1      63.551   8.374   6.593  1.00  0.00     0.168 HD
BRANCH   8  10
HETATM   10  C   UNL     1      63.332   9.808   5.220  1.00  0.00     0.169 C 
HETATM   11  S   UNL     1      62.233   9.862   3.974  1.00  0.00    -0.041 SA
BRANCH  10  12
HETATM   12  N   UNL     1      63.609  10.981   5.867  1.00  0.00    -0.376 N 
HETATM   13  H   UNL     1      62.875  11.577   6.141  1.00  0.00     0.158 HD
HETATM   14  H   UNL     1      64.542  11.229   6.058  1.00  0.00     0.158 HD
ENDBRANCH  10  12
ENDBRANCH   8  10
ENDBRANCH   3   8
TORSDOF 3
ENDMDL
MODEL 6
REMARK VINA RESULT:      -3.6      2.180      3.169
REMARK  3 active torsions:
REMARK  status: ('A' for Active; 'I' for Inactive)
REMARK    1  A    between atoms: C_1  and  N_2 
REMARK    2  A    between atoms: C_1  and  N_6 
REMARK    3  A    between atoms: N_2  and  C_7 
ROOT
HETATM    1  N   UNL     1      60.747   7.671   1.053  1.00  0.00    -0.375 N 
ATOM      2  HN  UNL     1      60.374   7.080   0.311  1.00  0.00     0.164 HD
HETATM    3  C   UNL     1      61.741   9.332   3.089  1.00  0.00     0.036 A 
HETATM    4  C   UNL     1      62.093   9.547   1.762  1.00  0.00     0.046 A 
HETATM    5  C   UNL     1      60.922   8.241   3.389  1.00  0.00     0.046 A 
HETATM    6  C   UNL     1      60.444   7.459   2.348  1.00  0.00     0.090 A 
HETATM    7  C   UNL     1      61.571   8.707   0.790  1.00  0.00     0.090 A 
ENDROOT
BRANCH   3   8
HETATM    8  N   UNL     1      62.176  10.126   4.175  1.00  0.00    -0.333 N 
HETATM    9  H   UNL     1      61.635  10.933   4.335  1.00  0.00     0.168 HD
BRANCH   8  10
HETATM   10  C   UNL     1      63.228   9.960   5.046  1.00  0.00     0.169 C 
HETATM   11  S   UNL     1      64.338   8.731   5.189  1.00  0.00    -0.041 SA
BRANCH  10  12
HETATM   12  N   UNL     1      63.385  11.049   5.859  1.00  0.00    -0.376 N 
HETATM   13  H   UNL     1      62.595  11.536   6.187  1.00  0.00     0.158 HD
HETATM   14  H   UNL     1      64.287  11.345   6.116  1.00  0.00     0.158 HD
ENDBRANCH  10  12
ENDBRANCH   8  10
ENDBRANCH   3   8
TORSDOF 3
ENDMDL
MODEL 7
REMARK VINA RESULT:      -3.5      3.415      6.498
REMARK  3 active torsions:
REMARK  status: ('A' for Active; 'I' for Inactive)
REMARK    1  A    between atoms: C_1  and  N_2 
REMARK    2  A    between atoms: C_1  and  N_6 
REMARK    3  A    between atoms: N_2  and  C_7 
ROOT
HETATM    1  N   UNL     1      68.006   4.658   8.930  1.00  0.00    -0.375 N 
ATOM      2  HN  UNL     1      68.751   4.080   9.319  1.00  0.00     0.164 HD
HETATM    3  C   UNL     1      65.985   6.264   7.823  1.00  0.00     0.036 A 
HETATM    4  C   UNL     1      66.932   6.807   8.684  1.00  0.00     0.046 A 
HETATM    5  C   UNL     1      66.034   4.893   7.563  1.00  0.00     0.046 A 
HETATM    6  C   UNL     1      67.060   4.144   8.121  1.00  0.00     0.090 A 
HETATM    7  C   UNL     1      67.917   5.977   9.198  1.00  0.00     0.090 A 
ENDROOT
BRANCH   3   8
HETATM    8  N   UNL     1      64.945   6.998   7.206  1.00  0.00    -0.333 N 
HETATM    9  H   UNL     1      64.203   7.241   7.806  1.00  0.00     0.168 HD
BRANCH   8  10
HETATM   10  C   UNL     1      64.797   7.428   5.908  1.00  0.00     0.169 C 
HETATM   11  S   UNL     1      64.367   6.603   4.531  1.00  0.00    -0.041 SA
BRANCH  10  12
HETATM   12  N   UNL     1      64.973   8.781   5.803  1.00  0.00    -0.376 N 
HETATM   13  H   UNL     1      64.242   9.347   5.465  1.00  0.00     0.158 HD
HETATM   14  H   UNL     1      65.830   9.187   6.064  1.00  0.00     0.158 HD
ENDBRANCH  10  12
ENDBRANCH   8  10
ENDBRANCH   3   8
TORSDOF 3
ENDMDL
MODEL 8
REMARK VINA RESULT:      -3.3     13.018     14.062
REMARK  3 active torsions:
REMARK  status: ('A' for Active; 'I' for Inactive)
REMARK    1  A    between atoms: C_1  and  N_2 
REMARK    2  A    between atoms: C_1  and  N_6 
REMARK    3  A    between atoms: N_2  and  C_7 
ROOT
HETATM    1  N   UNL     1      60.070  -0.617  12.895  1.00  0.00    -0.375 N 
ATOM      2  HN  UNL     1      60.767  -1.265  12.528  1.00  0.00     0.164 HD
HETATM    3  C   UNL     1      58.132   1.170  13.864  1.00  0.00     0.036 A 
HETATM    4  C   UNL     1      59.273   1.639  13.225  1.00  0.00     0.046 A 
HETATM    5  C   UNL     1      57.998  -0.208  14.056  1.00  0.00     0.046 A 
HETATM    6  C   UNL     1      58.974  -1.050  13.546  1.00  0.00     0.090 A 
HETATM    7  C   UNL     1      60.198   0.719  12.755  1.00  0.00     0.090 A 
ENDROOT
BRANCH   3   8
HETATM    8  N   UNL     1      57.096   1.991  14.366  1.00  0.00    -0.333 N 
HETATM    9  H   UNL     1      57.238   2.313  15.286  1.00  0.00     0.168 HD
BRANCH   8  10
HETATM   10  C   UNL     1      55.924   2.416  13.785  1.00  0.00     0.169 C 
HETATM   11  S   UNL     1      55.405   2.349  12.208  1.00  0.00    -0.041 SA
BRANCH  10  12
HETATM   12  N   UNL     1      55.047   2.900  14.717  1.00  0.00    -0.376 N 
HETATM   13  H   UNL     1      55.059   2.545  15.635  1.00  0.00     0.158 HD
HETATM   14  H   UNL     1      54.404   3.602  14.470  1.00  0.00     0.158 HD
ENDBRANCH  10  12
ENDBRANCH   8  10
ENDBRANCH   3   8
TORSDOF 3
ENDMDL
MODEL 9
REMARK VINA RESULT:      -3.3      1.970      4.393
REMARK  3 active torsions:
REMARK  status: ('A' for Active; 'I' for Inactive)
REMARK    1  A    between atoms: C_1  and  N_2 
REMARK    2  A    between atoms: C_1  and  N_6 
REMARK    3  A    between atoms: N_2  and  C_7 
ROOT
HETATM    1  N   UNL     1      65.657   6.957   6.484  1.00  0.00    -0.375 N 
ATOM      2  HN  UNL     1      66.424   6.446   6.920  1.00  0.00     0.164 HD
HETATM    3  C   UNL     1      63.539   8.391   5.322  1.00  0.00     0.036 A 
HETATM    4  C   UNL     1      63.290   7.289   6.132  1.00  0.00     0.046 A 
HETATM    5  C   UNL     1      64.867   8.735   5.060  1.00  0.00     0.046 A 
HETATM    6  C   UNL     1      65.878   8.007   5.669  1.00  0.00     0.090 A 
HETATM    7  C   UNL     1      64.367   6.618   6.692  1.00  0.00     0.090 A 
ENDROOT
BRANCH   3   8
HETATM    8  N   UNL     1      62.538   9.182   4.711  1.00  0.00    -0.333 N 
HETATM    9  H   UNL     1      61.977   9.690   5.340  1.00  0.00     0.168 HD
BRANCH   8  10
HETATM   10  C   UNL     1      62.218   9.360   3.385  1.00  0.00     0.169 C 
HETATM   11  S   UNL     1      62.373   8.341   2.082  1.00  0.00    -0.041 SA
BRANCH  10  12
HETATM   12  N   UNL     1      61.606  10.566   3.173  1.00  0.00    -0.376 N 
HETATM   13  H   UNL     1      61.588  11.241   3.890  1.00  0.00     0.158 HD
HETATM   14  H   UNL     1      61.184  10.758   2.306  1.00  0.00     0.158 HD
ENDBRANCH  10  12
ENDBRANCH   8  10
ENDBRANCH   3   8
TORSDOF 3
ENDMDL
