MODEL 1
REMARK VINA RESULT:      -4.8      0.000      0.000
REMARK  2 active torsions:
REMARK  status: ('A' for Active; 'I' for Inactive)
REMARK    1  A    between atoms: C_2  and  C_4 
REMARK    2  A    between atoms: C_3  and  C_8 
ROOT
HETATM    1  S   UNL     1      63.606   9.765   5.289  1.00  0.00    -0.086 SA
HETATM    2  C   UNL     1      63.945   8.108   5.017  1.00  0.00     0.022 A 
HETATM    3  C   UNL     1      62.649   9.905   3.880  1.00  0.00     0.051 A 
HETATM    4  C   UNL     1      63.301   7.661   3.879  1.00  0.00     0.021 A 
HETATM    5  C   UNL     1      62.558   8.691   3.225  1.00  0.00     0.024 A 
ENDROOT
BRANCH   2   6
HETATM    6  C   UNL     1      64.818   7.372   5.900  1.00  0.00     0.021 A 
HETATM    7  S   UNL     1      66.395   7.942   6.281  1.00  0.00    -0.101 SA
HETATM    8  C   UNL     1      66.691   6.635   7.341  1.00  0.00     0.050 A 
HETATM    9  C   UNL     1      65.630   5.764   7.395  1.00  0.00     0.008 A 
HETATM   10  C   UNL     1      64.553   6.185   6.562  1.00  0.00     0.021 A 
ENDBRANCH   2   6
BRANCH   3  11
HETATM   11  C   UNL     1      62.043  11.171   3.480  1.00  0.00     0.162 C 
HETATM   12  O   UNL     1      61.775  12.057   4.292  1.00  0.00    -0.292 OA
HETATM   13  C   UNL     1      61.738  11.385   2.013  1.00  0.00     0.097 C 
ENDBRANCH   3  11
TORSDOF 2
ENDMDL
MODEL 2
REMARK VINA RESULT:      -4.6      0.976      1.189
REMARK  2 active torsions:
REMARK  status: ('A' for Active; 'I' for Inactive)
REMARK    1  A    between atoms: C_2  and  C_4 
REMARK    2  A    between atoms: C_3  and  C_8 
ROOT
HETATM    1  S   UNL     1      63.538   9.480   5.253  1.00  0.00    -0.086 SA
HETATM    2  C   UNL     1      64.033   7.874   4.921  1.00  0.00     0.022 A 
HETATM    3  C   UNL     1      62.719   9.643   3.761  1.00  0.00     0.051 A 
HETATM    4  C   UNL     1      63.543   7.458   3.698  1.00  0.00     0.021 A 
HETATM    5  C   UNL     1      62.791   8.473   3.030  1.00  0.00     0.024 A 
ENDROOT
BRANCH   2   6
HETATM    6  C   UNL     1      64.868   7.146   5.846  1.00  0.00     0.021 A 
HETATM    7  S   UNL     1      64.420   5.589   6.423  1.00  0.00    -0.101 SA
HETATM    8  C   UNL     1      65.861   5.429   7.328  1.00  0.00     0.050 A 
HETATM    9  C   UNL     1      66.664   6.539   7.220  1.00  0.00     0.008 A 
HETATM   10  C   UNL     1      66.090   7.530   6.371  1.00  0.00     0.021 A 
ENDBRANCH   2   6
BRANCH   3  11
HETATM   11  C   UNL     1      62.057  10.885   3.375  1.00  0.00     0.162 C 
HETATM   12  O   UNL     1      61.717  11.733   4.200  1.00  0.00    -0.292 OA
HETATM   13  C   UNL     1      61.786  11.123   1.905  1.00  0.00     0.097 C 
ENDBRANCH   3  11
TORSDOF 2
ENDMDL
MODEL 3
REMARK VINA RESULT:      -4.6      2.855      6.073
REMARK  2 active torsions:
REMARK  status: ('A' for Active; 'I' for Inactive)
REMARK    1  A    between atoms: C_2  and  C_4 
REMARK    2  A    between atoms: C_3  and  C_8 
ROOT
HETATM    1  S   UNL     1      64.275   6.868   6.569  1.00  0.00    -0.086 SA
HETATM    2  C   UNL     1      64.680   8.056   5.402  1.00  0.00     0.022 A 
HETATM    3  C   UNL     1      65.896   6.663   7.070  1.00  0.00     0.051 A 
HETATM    4  C   UNL     1      66.037   8.316   5.425  1.00  0.00     0.021 A 
HETATM    5  C   UNL     1      66.736   7.516   6.380  1.00  0.00     0.024 A 
ENDROOT
BRANCH   2   6
HETATM    6  C   UNL     1      63.672   8.629   4.542  1.00  0.00     0.021 A 
HETATM    7  S   UNL     1      62.878  10.099   4.950  1.00  0.00    -0.101 SA
HETATM    8  C   UNL     1      61.977  10.100   3.498  1.00  0.00     0.050 A 
HETATM    9  C   UNL     1      62.249   9.000   2.721  1.00  0.00     0.008 A 
HETATM   10  C   UNL     1      63.222   8.150   3.324  1.00  0.00     0.021 A 
ENDBRANCH   2   6
BRANCH   3  11
HETATM   11  C   UNL     1      66.271   5.692   8.093  1.00  0.00     0.162 C 
HETATM   12  O   UNL     1      65.768   4.570   8.151  1.00  0.00    -0.292 OA
HETATM   13  C   UNL     1      67.315   6.095   9.112  1.00  0.00     0.097 C 
ENDBRANCH   3  11
TORSDOF 2
ENDMDL
MODEL 4
REMARK VINA RESULT:      -4.5      2.422      5.769
REMARK  2 active torsions:
REMARK  status: ('A' for Active; 'I' for Inactive)
REMARK    1  A    between atoms: C_2  and  C_4 
REMARK    2  A    between atoms: C_3  and  C_8 
ROOT
HETATM    1  S   UNL     1      64.704   8.292   5.164  1.00  0.00    -0.086 SA
HETATM    2  C   UNL     1      63.057   8.324   4.693  1.00  0.00     0.022 A 
HETATM    3  C   UNL     1      64.463   7.028   6.288  1.00  0.00     0.051 A 
HETATM    4  C   UNL     1      62.341   7.351   5.364  1.00  0.00     0.021 A 
HETATM    5  C   UNL     1      63.146   6.608   6.282  1.00  0.00     0.024 A 
ENDROOT
BRANCH   2   6
HETATM    6  C   UNL     1      62.575   9.290   3.735  1.00  0.00     0.021 A 
HETATM    7  S   UNL     1      62.192  10.900   4.202  1.00  0.00    -0.101 SA
HETATM    8  C   UNL     1      61.802  11.350   2.601  1.00  0.00     0.050 A 
HETATM    9  C   UNL     1      61.934  10.301   1.723  1.00  0.00     0.008 A 
HETATM   10  C   UNL     1      62.374   9.113   2.377  1.00  0.00     0.021 A 
ENDBRANCH   2   6
BRANCH   3  11
HETATM   11  C   UNL     1      65.549   6.514   7.117  1.00  0.00     0.162 C 
HETATM   12  O   UNL     1      65.914   7.078   8.148  1.00  0.00    -0.292 OA
HETATM   13  C   UNL     1      66.242   5.241   6.676  1.00  0.00     0.097 C 
ENDBRANCH   3  11
TORSDOF 2
ENDMDL
MODEL 5
REMARK VINA RESULT:      -4.5      3.051      5.894
REMARK  2 active torsions:
REMARK  status: ('A' for Active; 'I' for Inactive)
REMARK    1  A    between atoms: C_2  and  C_4 
REMARK    2  A    between atoms: C_3  and  C_8 
ROOT
HETATM    1  S   UNL     1      63.291   7.569   3.537  1.00  0.00    -0.086 SA
HETATM    2  C   UNL     1      61.933   8.585   3.294  1.00  0.00     0.022 A 
HETATM    3  C   UNL     1      64.027   8.647   4.640  1.00  0.00     0.051 A 
HETATM    4  C   UNL     1      62.028   9.719   4.078  1.00  0.00     0.021 A 
HETATM    5  C   UNL     1      63.231   9.757   4.849  1.00  0.00     0.024 A 
ENDROOT
BRANCH   2   6
HETATM    6  C   UNL     1      60.895   8.228   2.357  1.00  0.00     0.021 A 
HETATM    7  S   UNL     1      59.492   7.371   2.858  1.00  0.00    -0.101 SA
HETATM    8  C   UNL     1      58.813   7.418   1.291  1.00  0.00     0.050 A 
HETATM    9  C   UNL     1      59.636   8.050   0.391  1.00  0.00     0.008 A 
HETATM   10  C   UNL     1      60.837   8.513   1.003  1.00  0.00     0.021 A 
ENDBRANCH   2   6
BRANCH   3  11
HETATM   11  C   UNL     1      65.329   8.370   5.238  1.00  0.00     0.162 C 
HETATM   12  O   UNL     1      65.771   9.022   6.185  1.00  0.00    -0.292 OA
HETATM   13  C   UNL     1      66.154   7.239   4.662  1.00  0.00     0.097 C 
ENDBRANCH   3  11
TORSDOF 2
ENDMDL
MODEL 6
REMARK VINA RESULT:      -4.2      2.301      3.155
REMARK  2 active torsions:
REMARK  status: ('A' for Active; 'I' for Inactive)
REMARK    1  A    between atoms: C_2  and  C_4 
REMARK    2  A    between atoms: C_3  and  C_8 
ROOT
HETATM    1  S   UNL     1      63.782   6.589   6.269  1.00  0.00    -0.086 SA
HETATM    2  C   UNL     1      65.407   7.061   6.533  1.00  0.00     0.022 A 
HETATM    3  C   UNL     1      63.486   7.860   5.165  1.00  0.00     0.051 A 
HETATM    4  C   UNL     1      65.727   8.157   5.755  1.00  0.00     0.021 A 
HETATM    5  C   UNL     1      64.625   8.619   4.971  1.00  0.00     0.024 A 
ENDROOT
BRANCH   2   6
HETATM    6  C   UNL     1      66.242   6.360   7.478  1.00  0.00     0.021 A 
HETATM    7  S   UNL     1      66.359   4.644   7.471  1.00  0.00    -0.101 SA
HETATM    8  C   UNL     1      67.501   4.642   8.742  1.00  0.00     0.050 A 
HETATM    9  C   UNL     1      67.779   5.912   9.187  1.00  0.00     0.008 A 
HETATM   10  C   UNL     1      67.051   6.901   8.463  1.00  0.00     0.021 A 
ENDBRANCH   2   6
BRANCH   3  11
HETATM   11  C   UNL     1      62.177   8.061   4.551  1.00  0.00     0.162 C 
HETATM   12  O   UNL     1      61.869   9.110   3.986  1.00  0.00    -0.292 OA
HETATM   13  C   UNL     1      61.174   6.929   4.623  1.00  0.00     0.097 C 
ENDBRANCH   3  11
TORSDOF 2
ENDMDL
MODEL 7
REMARK VINA RESULT:      -4.0      2.070      2.317
REMARK  2 active torsions:
REMARK  status: ('A' for Active; 'I' for Inactive)
REMARK    1  A    between atoms: C_2  and  C_4 
REMARK    2  A    between atoms: C_3  and  C_8 
ROOT
HETATM    1  S   UNL     1      63.934   7.069   3.571  1.00  0.00    -0.086 SA
HETATM    2  C   UNL     1      64.589   7.856   4.944  1.00  0.00     0.022 A 
HETATM    3  C   UNL     1      62.832   8.334   3.246  1.00  0.00     0.051 A 
HETATM    4  C   UNL     1      63.995   9.090   5.126  1.00  0.00     0.021 A 
HETATM    5  C   UNL     1      62.984   9.365   4.154  1.00  0.00     0.024 A 
ENDROOT
BRANCH   2   6
HETATM    6  C   UNL     1      65.605   7.224   5.751  1.00  0.00     0.021 A 
HETATM    7  S   UNL     1      67.211   7.019   5.171  1.00  0.00    -0.101 SA
HETATM    8  C   UNL     1      67.730   6.318   6.640  1.00  0.00     0.050 A 
HETATM    9  C   UNL     1      66.708   6.216   7.553  1.00  0.00     0.008 A 
HETATM   10  C   UNL     1      65.483   6.733   7.040  1.00  0.00     0.021 A 
ENDBRANCH   2   6
BRANCH   3  11
HETATM   11  C   UNL     1      61.880   8.265   2.141  1.00  0.00     0.162 C 
HETATM   12  O   UNL     1      60.961   7.446   2.116  1.00  0.00    -0.292 OA
HETATM   13  C   UNL     1      62.044   9.239   0.995  1.00  0.00     0.097 C 
ENDBRANCH   3  11
TORSDOF 2
ENDMDL
MODEL 8
REMARK VINA RESULT:      -4.0      3.945      6.064
REMARK  2 active torsions:
REMARK  status: ('A' for Active; 'I' for Inactive)
REMARK    1  A    between atoms: C_2  and  C_4 
REMARK    2  A    between atoms: C_3  and  C_8 
ROOT
HETATM    1  S   UNL     1      60.709   8.260   3.260  1.00  0.00    -0.086 SA
HETATM    2  C   UNL     1      60.691   7.863   1.594  1.00  0.00     0.022 A 
HETATM    3  C   UNL     1      61.734   9.609   3.030  1.00  0.00     0.051 A 
HETATM    4  C   UNL     1      61.431   8.777   0.868  1.00  0.00     0.021 A 
HETATM    5  C   UNL     1      62.032   9.778   1.692  1.00  0.00     0.024 A 
ENDROOT
BRANCH   2   6
HETATM    6  C   UNL     1      59.988   6.697   1.113  1.00  0.00     0.021 A 
HETATM    7  S   UNL     1      58.271   6.655   1.038  1.00  0.00    -0.101 SA
HETATM    8  C   UNL     1      58.266   5.089   0.354  1.00  0.00     0.050 A 
HETATM    9  C   UNL     1      59.537   4.589   0.201  1.00  0.00     0.008 A 
HETATM   10  C   UNL     1      60.528   5.513   0.643  1.00  0.00     0.021 A 
ENDBRANCH   2   6
BRANCH   3  11
HETATM   11  C   UNL     1      62.197  10.426   4.148  1.00  0.00     0.162 C 
HETATM   12  O   UNL     1      61.892  11.613   4.266  1.00  0.00    -0.292 OA
HETATM   13  C   UNL     1      63.083   9.776   5.189  1.00  0.00     0.097 C 
ENDBRANCH   3  11
TORSDOF 2
ENDMDL
MODEL 9
REMARK VINA RESULT:      -3.9      4.002      5.257
REMARK  2 active torsions:
REMARK  status: ('A' for Active; 'I' for Inactive)
REMARK    1  A    between atoms: C_2  and  C_4 
REMARK    2  A    between atoms: C_3  and  C_8 
ROOT
HETATM    1  S   UNL     1      59.752   7.340   2.923  1.00  0.00    -0.086 SA
HETATM    2  C   UNL     1      61.037   8.392   2.502  1.00  0.00     0.022 A 
HETATM    3  C   UNL     1      59.063   7.392   1.360  1.00  0.00     0.051 A 
HETATM    4  C   UNL     1      60.957   8.747   1.168  1.00  0.00     0.021 A 
HETATM    5  C   UNL     1      59.823   8.176   0.512  1.00  0.00     0.024 A 
ENDROOT
BRANCH   2   6
HETATM    6  C   UNL     1      62.008   8.812   3.483  1.00  0.00     0.021 A 
HETATM    7  S   UNL     1      63.375   7.841   3.863  1.00  0.00    -0.101 SA
HETATM    8  C   UNL     1      63.986   9.000   4.961  1.00  0.00     0.050 A 
HETATM    9  C   UNL     1      63.165  10.097   5.062  1.00  0.00     0.008 A 
HETATM   10  C   UNL     1      62.023   9.987   4.215  1.00  0.00     0.021 A 
ENDBRANCH   2   6
BRANCH   3  11
HETATM   11  C   UNL     1      57.829   6.682   1.036  1.00  0.00     0.162 C 
HETATM   12  O   UNL     1      56.727   7.228   1.072  1.00  0.00    -0.292 OA
HETATM   13  C   UNL     1      57.927   5.223   0.645  1.00  0.00     0.097 C 
ENDBRANCH   3  11
TORSDOF 2
ENDMDL
