MODEL 1
REMARK VINA RESULT:      -5.1      0.000      0.000
REMARK  1 active torsions:
REMARK  status: ('A' for Active; 'I' for Inactive)
REMARK    1  A    between atoms: C_3  and  C_7 
ROOT
HETATM    1  C   UNL     1      63.138   8.691   4.683  1.00  0.00    -0.001 A 
HETATM    2  C   UNL     1      62.842   8.433   3.336  1.00  0.00     0.015 A 
HETATM    3  C   UNL     1      62.884   9.977   5.180  1.00  0.00     0.015 A 
HETATM    4  C   UNL     1      62.369  10.980   4.353  1.00  0.00     0.007 A 
HETATM    5  C   UNL     1      62.327   9.436   2.506  1.00  0.00     0.007 A 
HETATM    6  C   UNL     1      62.094  10.719   3.007  1.00  0.00    -0.062 A 
HETATM    7  C   UNL     1      61.577  11.812   2.118  1.00  0.00     0.048 C 
ENDROOT
BRANCH   1   8
HETATM    8  C   UNL     1      63.712   7.648   5.524  1.00  0.00     0.102 A 
HETATM    9  C   UNL     1      63.409   6.331   5.805  1.00  0.00     0.127 A 
HETATM   10  N   UNL     1      64.324   5.804   6.683  1.00  0.00    -0.354 N 
HETATM   11  C   UNL     1      65.141   6.809   6.902  1.00  0.00     0.233 A 
ATOM     12  HN  UNL     1      64.360   4.861   7.070  1.00  0.00     0.166 HD
HETATM   13  O   UNL     1      64.840   7.959   6.240  1.00  0.00    -0.304 OA
ENDBRANCH   1   8
TORSDOF 1
ENDMDL
MODEL 2
REMARK VINA RESULT:      -4.9      0.133      1.395
REMARK  1 active torsions:
REMARK  status: ('A' for Active; 'I' for Inactive)
REMARK    1  A    between atoms: C_3  and  C_7 
ROOT
HETATM    1  C   UNL     1      63.140   8.666   4.600  1.00  0.00    -0.001 A 
HETATM    2  C   UNL     1      62.893   9.942   5.128  1.00  0.00     0.015 A 
HETATM    3  C   UNL     1      62.879   8.452   3.239  1.00  0.00     0.015 A 
HETATM    4  C   UNL     1      62.367   9.475   2.435  1.00  0.00     0.007 A 
HETATM    5  C   UNL     1      62.380  10.967   4.324  1.00  0.00     0.007 A 
HETATM    6  C   UNL     1      62.106  10.739   2.974  1.00  0.00    -0.062 A 
HETATM    7  C   UNL     1      61.522  11.819   2.112  1.00  0.00     0.048 C 
ENDROOT
BRANCH   1   8
HETATM    8  C   UNL     1      63.636   7.597   5.457  1.00  0.00     0.102 A 
HETATM    9  C   UNL     1      63.319   6.269   5.660  1.00  0.00     0.127 A 
HETATM   10  N   UNL     1      64.147   5.716   6.605  1.00  0.00    -0.354 N 
HETATM   11  C   UNL     1      64.930   6.716   6.940  1.00  0.00     0.233 A 
ATOM     12  HN  UNL     1      64.153   4.760   6.961  1.00  0.00     0.166 HD
HETATM   13  O   UNL     1      64.686   7.887   6.292  1.00  0.00    -0.304 OA
ENDBRANCH   1   8
TORSDOF 1
ENDMDL
MODEL 3
REMARK VINA RESULT:      -4.9      1.677      2.107
REMARK  1 active torsions:
REMARK  status: ('A' for Active; 'I' for Inactive)
REMARK    1  A    between atoms: C_3  and  C_7 
ROOT
HETATM    1  C   UNL     1      64.359   8.117   4.926  1.00  0.00    -0.001 A 
HETATM    2  C   UNL     1      64.171   7.297   3.803  1.00  0.00     0.015 A 
HETATM    3  C   UNL     1      63.590   9.285   5.027  1.00  0.00     0.015 A 
HETATM    4  C   UNL     1      62.678   9.634   4.027  1.00  0.00     0.007 A 
HETATM    5  C   UNL     1      63.259   7.645   2.801  1.00  0.00     0.007 A 
HETATM    6  C   UNL     1      62.510   8.821   2.902  1.00  0.00    -0.062 A 
HETATM    7  C   UNL     1      61.556   9.223   1.816  1.00  0.00     0.048 C 
ENDROOT
BRANCH   1   8
HETATM    8  C   UNL     1      65.342   7.762   5.943  1.00  0.00     0.102 A 
HETATM    9  C   UNL     1      66.685   8.008   6.143  1.00  0.00     0.127 A 
HETATM   10  N   UNL     1      67.111   7.429   7.312  1.00  0.00    -0.354 N 
HETATM   11  C   UNL     1      66.024   6.856   7.776  1.00  0.00     0.233 A 
ATOM     12  HN  UNL     1      68.045   7.440   7.721  1.00  0.00     0.166 HD
HETATM   13  O   UNL     1      64.912   7.010   7.007  1.00  0.00    -0.304 OA
ENDBRANCH   1   8
TORSDOF 1
ENDMDL
MODEL 4
REMARK VINA RESULT:      -4.3      2.857      5.287
REMARK  1 active torsions:
REMARK  status: ('A' for Active; 'I' for Inactive)
REMARK    1  A    between atoms: C_3  and  C_7 
ROOT
HETATM    1  C   UNL     1      63.878   8.228   4.034  1.00  0.00    -0.001 A 
HETATM    2  C   UNL     1      64.634   8.689   5.123  1.00  0.00     0.015 A 
HETATM    3  C   UNL     1      64.134   6.938   3.550  1.00  0.00     0.015 A 
HETATM    4  C   UNL     1      65.131   6.140   4.122  1.00  0.00     0.007 A 
HETATM    5  C   UNL     1      65.631   7.891   5.696  1.00  0.00     0.007 A 
HETATM    6  C   UNL     1      65.892   6.614   5.195  1.00  0.00    -0.062 A 
HETATM    7  C   UNL     1      66.983   5.764   5.778  1.00  0.00     0.048 C 
ENDROOT
BRANCH   1   8
HETATM    8  C   UNL     1      62.870   9.085   3.421  1.00  0.00     0.102 A 
HETATM    9  C   UNL     1      62.046  10.103   3.856  1.00  0.00     0.127 A 
HETATM   10  N   UNL     1      61.285  10.582   2.819  1.00  0.00    -0.354 N 
HETATM   11  C   UNL     1      61.668   9.846   1.802  1.00  0.00     0.233 A 
ATOM     12  HN  UNL     1      60.590  11.329   2.834  1.00  0.00     0.166 HD
HETATM   13  O   UNL     1      62.623   8.917   2.082  1.00  0.00    -0.304 OA
ENDBRANCH   1   8
TORSDOF 1
ENDMDL
MODEL 5
REMARK VINA RESULT:      -4.3      2.061      2.959
REMARK  1 active torsions:
REMARK  status: ('A' for Active; 'I' for Inactive)
REMARK    1  A    between atoms: C_3  and  C_7 
ROOT
HETATM    1  C   UNL     1      64.497   7.436   5.687  1.00  0.00    -0.001 A 
HETATM    2  C   UNL     1      64.444   8.591   4.893  1.00  0.00     0.015 A 
HETATM    3  C   UNL     1      63.385   6.582   5.687  1.00  0.00     0.015 A 
HETATM    4  C   UNL     1      62.247   6.885   4.933  1.00  0.00     0.007 A 
HETATM    5  C   UNL     1      63.306   8.895   4.138  1.00  0.00     0.007 A 
HETATM    6  C   UNL     1      62.195   8.047   4.158  1.00  0.00    -0.062 A 
HETATM    7  C   UNL     1      60.956   8.381   3.381  1.00  0.00     0.048 C 
ENDROOT
BRANCH   1   8
HETATM    8  C   UNL     1      65.674   7.153   6.500  1.00  0.00     0.102 A 
HETATM    9  C   UNL     1      67.030   7.046   6.266  1.00  0.00     0.127 A 
HETATM   10  N   UNL     1      67.698   6.772   7.433  1.00  0.00    -0.354 N 
HETATM   11  C   UNL     1      66.736   6.722   8.325  1.00  0.00     0.233 A 
ATOM     12  HN  UNL     1      68.700   6.640   7.574  1.00  0.00     0.166 HD
HETATM   13  O   UNL     1      65.483   6.941   7.842  1.00  0.00    -0.304 OA
ENDBRANCH   1   8
TORSDOF 1
ENDMDL
MODEL 6
REMARK VINA RESULT:      -4.2     11.875     13.469
REMARK  1 active torsions:
REMARK  status: ('A' for Active; 'I' for Inactive)
REMARK    1  A    between atoms: C_3  and  C_7 
ROOT
HETATM    1  C   UNL     1      56.920   1.902  13.428  1.00  0.00    -0.001 A 
HETATM    2  C   UNL     1      57.737   2.382  12.393  1.00  0.00     0.015 A 
HETATM    3  C   UNL     1      57.395   0.836  14.204  1.00  0.00     0.015 A 
HETATM    4  C   UNL     1      58.638   0.253  13.942  1.00  0.00     0.007 A 
HETATM    5  C   UNL     1      58.982   1.800  12.130  1.00  0.00     0.007 A 
HETATM    6  C   UNL     1      59.439   0.726  12.897  1.00  0.00    -0.062 A 
HETATM    7  C   UNL     1      60.755   0.070  12.600  1.00  0.00     0.048 C 
ENDROOT
BRANCH   1   8
HETATM    8  C   UNL     1      55.608   2.493  13.665  1.00  0.00     0.102 A 
HETATM    9  C   UNL     1      54.494   2.152  14.405  1.00  0.00     0.127 A 
HETATM   10  N   UNL     1      53.519   3.109  14.274  1.00  0.00    -0.354 N 
HETATM   11  C   UNL     1      54.069   3.988  13.469  1.00  0.00     0.233 A 
ATOM     12  HN  UNL     1      52.592   3.133  14.700  1.00  0.00     0.166 HD
HETATM   13  O   UNL     1      55.330   3.689  13.055  1.00  0.00    -0.304 OA
ENDBRANCH   1   8
TORSDOF 1
ENDMDL
MODEL 7
REMARK VINA RESULT:      -4.2      2.725      5.111
REMARK  1 active torsions:
REMARK  status: ('A' for Active; 'I' for Inactive)
REMARK    1  A    between atoms: C_3  and  C_7 
ROOT
HETATM    1  C   UNL     1      64.546   8.034   4.623  1.00  0.00    -0.001 A 
HETATM    2  C   UNL     1      65.694   8.020   5.429  1.00  0.00     0.015 A 
HETATM    3  C   UNL     1      64.309   6.930   3.792  1.00  0.00     0.015 A 
HETATM    4  C   UNL     1      65.203   5.855   3.752  1.00  0.00     0.007 A 
HETATM    5  C   UNL     1      66.589   6.945   5.390  1.00  0.00     0.007 A 
HETATM    6  C   UNL     1      66.354   5.857   4.546  1.00  0.00    -0.062 A 
HETATM    7  C   UNL     1      67.325   4.716   4.469  1.00  0.00     0.048 C 
ENDROOT
BRANCH   1   8
HETATM    8  C   UNL     1      63.644   9.178   4.644  1.00  0.00     0.102 A 
HETATM    9  C   UNL     1      62.590   9.617   3.869  1.00  0.00     0.127 A 
HETATM   10  N   UNL     1      62.075  10.785   4.373  1.00  0.00    -0.354 N 
HETATM   11  C   UNL     1      62.826  11.014   5.425  1.00  0.00     0.233 A 
ATOM     12  HN  UNL     1      61.298  11.341   4.016  1.00  0.00     0.166 HD
HETATM   13  O   UNL     1      63.798  10.090   5.658  1.00  0.00    -0.304 OA
ENDBRANCH   1   8
TORSDOF 1
ENDMDL
MODEL 8
REMARK VINA RESULT:      -4.2      2.264      5.087
REMARK  1 active torsions:
REMARK  status: ('A' for Active; 'I' for Inactive)
REMARK    1  A    between atoms: C_3  and  C_7 
ROOT
HETATM    1  C   UNL     1      63.977   8.077   5.336  1.00  0.00    -0.001 A 
HETATM    2  C   UNL     1      63.736   6.977   6.174  1.00  0.00     0.015 A 
HETATM    3  C   UNL     1      65.287   8.567   5.250  1.00  0.00     0.015 A 
HETATM    4  C   UNL     1      66.322   7.990   5.993  1.00  0.00     0.007 A 
HETATM    5  C   UNL     1      64.770   6.399   6.918  1.00  0.00     0.007 A 
HETATM    6  C   UNL     1      66.070   6.906   6.840  1.00  0.00    -0.062 A 
HETATM    7  C   UNL     1      67.179   6.317   7.661  1.00  0.00     0.048 C 
ENDROOT
BRANCH   1   8
HETATM    8  C   UNL     1      62.883   8.694   4.597  1.00  0.00     0.102 A 
HETATM    9  C   UNL     1      61.744   8.242   3.962  1.00  0.00     0.127 A 
HETATM   10  N   UNL     1      61.041   9.293   3.429  1.00  0.00    -0.354 N 
HETATM   11  C   UNL     1      61.769  10.336   3.755  1.00  0.00     0.233 A 
ATOM     12  HN  UNL     1      60.165   9.270   2.906  1.00  0.00     0.166 HD
HETATM   13  O   UNL     1      62.899  10.059   4.461  1.00  0.00    -0.304 OA
ENDBRANCH   1   8
TORSDOF 1
ENDMDL
MODEL 9
REMARK VINA RESULT:      -4.0      1.960      2.543
REMARK  1 active torsions:
REMARK  status: ('A' for Active; 'I' for Inactive)
REMARK    1  A    between atoms: C_3  and  C_7 
ROOT
HETATM    1  C   UNL     1      62.445   7.890   3.710  1.00  0.00    -0.001 A 
HETATM    2  C   UNL     1      62.772   8.431   2.458  1.00  0.00     0.015 A 
HETATM    3  C   UNL     1      61.137   7.427   3.909  1.00  0.00     0.015 A 
HETATM    4  C   UNL     1      60.179   7.521   2.895  1.00  0.00     0.007 A 
HETATM    5  C   UNL     1      61.814   8.526   1.442  1.00  0.00     0.007 A 
HETATM    6  C   UNL     1      60.507   8.079   1.656  1.00  0.00    -0.062 A 
HETATM    7  C   UNL     1      59.463   8.209   0.587  1.00  0.00     0.048 C 
ENDROOT
BRANCH   1   8
HETATM    8  C   UNL     1      63.443   7.833   4.772  1.00  0.00     0.102 A 
HETATM    9  C   UNL     1      63.522   7.247   6.019  1.00  0.00     0.127 A 
HETATM   10  N   UNL     1      64.738   7.513   6.598  1.00  0.00    -0.354 N 
HETATM   11  C   UNL     1      65.347   8.245   5.694  1.00  0.00     0.233 A 
ATOM     12  HN  UNL     1      65.084   7.215   7.511  1.00  0.00     0.166 HD
HETATM   13  O   UNL     1      64.632   8.484   4.562  1.00  0.00    -0.304 OA
ENDBRANCH   1   8
TORSDOF 1
ENDMDL
