MODEL 1
REMARK VINA RESULT:      -5.8      0.000      0.000
REMARK  0 active torsions:
REMARK  status: ('A' for Active; 'I' for Inactive)
ROOT
HETATM    1  S   UNL     1      63.704   7.676   5.813  1.00  0.00     0.176 S 
HETATM    2  C   UNL     1      63.097   8.873   4.671  1.00  0.00     0.073 A 
HETATM    3  C   UNL     1      62.943   8.568   3.318  1.00  0.00     0.033 A 
HETATM    4  C   UNL     1      63.306   7.246   2.736  1.00  0.00     0.162 C 
HETATM    5  C   UNL     1      63.563   6.145   4.937  1.00  0.00     0.153 C 
HETATM    6  O   UNL     1      62.775   7.640   6.925  1.00  0.00    -0.223 OA
HETATM    7  O   UNL     1      65.110   7.970   6.001  1.00  0.00    -0.223 OA
HETATM    8  C   UNL     1      62.745  10.132   5.174  1.00  0.00     0.026 A 
HETATM    9  C   UNL     1      64.148   6.299   3.555  1.00  0.00     0.099 C 
HETATM   10  C   UNL     1      62.428   9.549   2.457  1.00  0.00     0.040 A 
HETATM   11  O   UNL     1      62.955   6.963   1.597  1.00  0.00    -0.292 OA
HETATM   12  C   UNL     1      62.089  10.809   2.955  1.00  0.00     0.035 A 
HETATM   13  C   UNL     1      62.243  11.103   4.309  1.00  0.00     0.025 A 
HETATM   14 CL   UNL     1      61.478  12.013   1.888  1.00  0.00    -0.084 Cl
ENDROOT
TORSDOF 0
ENDMDL
MODEL 2
REMARK VINA RESULT:      -5.2      1.526      3.165
REMARK  0 active torsions:
REMARK  status: ('A' for Active; 'I' for Inactive)
ROOT
HETATM    1  S   UNL     1      63.072   6.115   3.146  1.00  0.00     0.176 S 
HETATM    2  C   UNL     1      62.642   7.796   2.836  1.00  0.00     0.073 A 
HETATM    3  C   UNL     1      62.602   8.734   3.869  1.00  0.00     0.033 A 
HETATM    4  C   UNL     1      62.877   8.389   5.291  1.00  0.00     0.162 C 
HETATM    5  C   UNL     1      63.796   6.153   4.761  1.00  0.00     0.153 C 
HETATM    6  O   UNL     1      64.112   5.761   2.201  1.00  0.00    -0.223 OA
HETATM    7  O   UNL     1      61.824   5.384   3.219  1.00  0.00    -0.223 OA
HETATM    8  C   UNL     1      62.373   8.165   1.512  1.00  0.00     0.026 A 
HETATM    9  C   UNL     1      62.905   6.936   5.694  1.00  0.00     0.099 C 
HETATM   10  C   UNL     1      62.282  10.065   3.563  1.00  0.00     0.040 A 
HETATM   11  O   UNL     1      63.036   9.281   6.117  1.00  0.00    -0.292 OA
HETATM   12  C   UNL     1      62.001  10.432   2.245  1.00  0.00     0.035 A 
HETATM   13  C   UNL     1      62.047   9.489   1.220  1.00  0.00     0.025 A 
HETATM   14 CL   UNL     1      61.588  12.062   1.882  1.00  0.00    -0.084 Cl
ENDROOT
TORSDOF 0
ENDMDL
MODEL 3
REMARK VINA RESULT:      -5.1      2.958      4.775
REMARK  0 active torsions:
REMARK  status: ('A' for Active; 'I' for Inactive)
ROOT
HETATM    1  S   UNL     1      62.142   7.885   2.602  1.00  0.00     0.176 S 
HETATM    2  C   UNL     1      63.627   7.747   3.540  1.00  0.00     0.073 A 
HETATM    3  C   UNL     1      63.929   8.658   4.554  1.00  0.00     0.033 A 
HETATM    4  C   UNL     1      63.056   9.817   4.891  1.00  0.00     0.162 C 
HETATM    5  C   UNL     1      61.146   9.002   3.546  1.00  0.00     0.153 C 
HETATM    6  O   UNL     1      61.501   6.586   2.628  1.00  0.00    -0.223 OA
HETATM    7  O   UNL     1      62.506   8.533   1.358  1.00  0.00    -0.223 OA
HETATM    8  C   UNL     1      64.480   6.674   3.255  1.00  0.00     0.026 A 
HETATM    9  C   UNL     1      61.966  10.211   3.926  1.00  0.00     0.099 C 
HETATM   10  C   UNL     1      65.111   8.486   5.290  1.00  0.00     0.040 A 
HETATM   11  O   UNL     1      63.257  10.455   5.919  1.00  0.00    -0.292 OA
HETATM   12  C   UNL     1      65.968   7.423   4.998  1.00  0.00     0.035 A 
HETATM   13  C   UNL     1      65.657   6.516   3.986  1.00  0.00     0.025 A 
HETATM   14 CL   UNL     1      67.426   7.231   5.891  1.00  0.00    -0.084 Cl
ENDROOT
TORSDOF 0
ENDMDL
MODEL 4
REMARK VINA RESULT:      -5.0      2.669      3.962
REMARK  0 active torsions:
REMARK  status: ('A' for Active; 'I' for Inactive)
ROOT
HETATM    1  S   UNL     1      65.935   5.426   4.202  1.00  0.00     0.176 S 
HETATM    2  C   UNL     1      64.876   6.835   4.189  1.00  0.00     0.073 A 
HETATM    3  C   UNL     1      65.080   7.899   5.069  1.00  0.00     0.033 A 
HETATM    4  C   UNL     1      66.161   7.912   6.093  1.00  0.00     0.162 C 
HETATM    5  C   UNL     1      67.341   5.960   5.134  1.00  0.00     0.153 C 
HETATM    6  O   UNL     1      66.364   5.205   2.835  1.00  0.00    -0.223 OA
HETATM    7  O   UNL     1      65.242   4.405   4.959  1.00  0.00    -0.223 OA
HETATM    8  C   UNL     1      63.843   6.865   3.244  1.00  0.00     0.026 A 
HETATM    9  C   UNL     1      66.879   6.623   6.408  1.00  0.00     0.099 C 
HETATM   10  C   UNL     1      64.225   9.010   4.998  1.00  0.00     0.040 A 
HETATM   11  O   UNL     1      66.426   8.950   6.690  1.00  0.00    -0.292 OA
HETATM   12  C   UNL     1      63.187   9.035   4.065  1.00  0.00     0.035 A 
HETATM   13  C   UNL     1      62.994   7.969   3.187  1.00  0.00     0.025 A 
HETATM   14 CL   UNL     1      62.131  10.391   3.999  1.00  0.00    -0.084 Cl
ENDROOT
TORSDOF 0
ENDMDL
MODEL 5
REMARK VINA RESULT:      -5.0      1.617      1.977
REMARK  0 active torsions:
REMARK  status: ('A' for Active; 'I' for Inactive)
ROOT
HETATM    1  S   UNL     1      65.245   7.473   5.920  1.00  0.00     0.176 S 
HETATM    2  C   UNL     1      64.142   7.930   4.624  1.00  0.00     0.073 A 
HETATM    3  C   UNL     1      64.085   7.202   3.434  1.00  0.00     0.033 A 
HETATM    4  C   UNL     1      64.959   6.030   3.156  1.00  0.00     0.162 C 
HETATM    5  C   UNL     1      65.744   5.830   5.494  1.00  0.00     0.153 C 
HETATM    6  O   UNL     1      64.463   7.399   7.138  1.00  0.00    -0.223 OA
HETATM    7  O   UNL     1      66.395   8.347   5.802  1.00  0.00    -0.223 OA
HETATM    8  C   UNL     1      63.302   9.029   4.842  1.00  0.00     0.026 A 
HETATM    9  C   UNL     1      66.155   5.788   4.042  1.00  0.00     0.099 C 
HETATM   10  C   UNL     1      63.168   7.592   2.447  1.00  0.00     0.040 A 
HETATM   11  O   UNL     1      64.722   5.306   2.195  1.00  0.00    -0.292 OA
HETATM   12  C   UNL     1      62.339   8.695   2.657  1.00  0.00     0.035 A 
HETATM   13  C   UNL     1      62.400   9.414   3.850  1.00  0.00     0.025 A 
HETATM   14 CL   UNL     1      61.232   9.179   1.432  1.00  0.00    -0.084 Cl
ENDROOT
TORSDOF 0
ENDMDL
MODEL 6
REMARK VINA RESULT:      -4.7      2.075      3.329
REMARK  0 active torsions:
REMARK  status: ('A' for Active; 'I' for Inactive)
ROOT
HETATM    1  S   UNL     1      64.310   5.557   4.072  1.00  0.00     0.176 S 
HETATM    2  C   UNL     1      63.691   7.206   4.119  1.00  0.00     0.073 A 
HETATM    3  C   UNL     1      64.269   8.172   4.944  1.00  0.00     0.033 A 
HETATM    4  C   UNL     1      65.407   7.882   5.860  1.00  0.00     0.162 C 
HETATM    5  C   UNL     1      65.895   5.676   4.852  1.00  0.00     0.153 C 
HETATM    6  O   UNL     1      64.524   5.222   2.679  1.00  0.00    -0.223 OA
HETATM    7  O   UNL     1      63.439   4.772   4.922  1.00  0.00    -0.223 OA
HETATM    8  C   UNL     1      62.619   7.522   3.275  1.00  0.00     0.026 A 
HETATM    9  C   UNL     1      65.765   6.445   6.144  1.00  0.00     0.099 C 
HETATM   10  C   UNL     1      63.755   9.477   4.921  1.00  0.00     0.040 A 
HETATM   11  O   UNL     1      66.008   8.806   6.398  1.00  0.00    -0.292 OA
HETATM   12  C   UNL     1      62.678   9.791   4.090  1.00  0.00     0.035 A 
HETATM   13  C   UNL     1      62.110   8.820   3.266  1.00  0.00     0.025 A 
HETATM   14 CL   UNL     1      62.041  11.388   4.084  1.00  0.00    -0.084 Cl
ENDROOT
TORSDOF 0
ENDMDL
MODEL 7
REMARK VINA RESULT:      -4.6      2.506      3.560
REMARK  0 active torsions:
REMARK  status: ('A' for Active; 'I' for Inactive)
ROOT
HETATM    1  S   UNL     1      63.358   7.725   5.603  1.00  0.00     0.176 S 
HETATM    2  C   UNL     1      62.130   7.550   4.352  1.00  0.00     0.073 A 
HETATM    3  C   UNL     1      61.680   8.652   3.622  1.00  0.00     0.033 A 
HETATM    4  C   UNL     1      62.165  10.039   3.863  1.00  0.00     0.162 C 
HETATM    5  C   UNL     1      64.050   9.325   5.299  1.00  0.00     0.153 C 
HETATM    6  O   UNL     1      64.385   6.738   5.332  1.00  0.00    -0.223 OA
HETATM    7  O   UNL     1      62.650   7.763   6.866  1.00  0.00    -0.223 OA
HETATM    8  C   UNL     1      61.642   6.263   4.094  1.00  0.00     0.026 A 
HETATM    9  C   UNL     1      62.937  10.330   5.125  1.00  0.00     0.099 C 
HETATM   10  C   UNL     1      60.721   8.452   2.618  1.00  0.00     0.040 A 
HETATM   11  O   UNL     1      61.899  10.927   3.060  1.00  0.00    -0.292 OA
HETATM   12  C   UNL     1      60.225   7.172   2.368  1.00  0.00     0.035 A 
HETATM   13  C   UNL     1      60.683   6.077   3.100  1.00  0.00     0.025 A 
HETATM   14 CL   UNL     1      59.034   6.939   1.149  1.00  0.00    -0.084 Cl
ENDROOT
TORSDOF 0
ENDMDL
MODEL 8
REMARK VINA RESULT:      -4.5      2.971      3.882
REMARK  0 active torsions:
REMARK  status: ('A' for Active; 'I' for Inactive)
ROOT
HETATM    1  S   UNL     1      65.340   4.856   6.143  1.00  0.00     0.176 S 
HETATM    2  C   UNL     1      64.633   6.434   5.805  1.00  0.00     0.073 A 
HETATM    3  C   UNL     1      65.426   7.510   5.403  1.00  0.00     0.033 A 
HETATM    4  C   UNL     1      66.906   7.422   5.266  1.00  0.00     0.162 C 
HETATM    5  C   UNL     1      66.957   4.954   5.429  1.00  0.00     0.153 C 
HETATM    6  O   UNL     1      64.579   3.879   5.389  1.00  0.00    -0.223 OA
HETATM    7  O   UNL     1      65.478   4.772   7.582  1.00  0.00    -0.223 OA
HETATM    8  C   UNL     1      63.244   6.563   5.925  1.00  0.00     0.026 A 
HETATM    9  C   UNL     1      67.622   6.237   5.863  1.00  0.00     0.099 C 
HETATM   10  C   UNL     1      64.808   8.737   5.119  1.00  0.00     0.040 A 
HETATM   11  O   UNL     1      67.522   8.324   4.710  1.00  0.00    -0.292 OA
HETATM   12  C   UNL     1      63.424   8.871   5.250  1.00  0.00     0.035 A 
HETATM   13  C   UNL     1      62.640   7.790   5.649  1.00  0.00     0.025 A 
HETATM   14 CL   UNL     1      62.678  10.385   4.921  1.00  0.00    -0.084 Cl
ENDROOT
TORSDOF 0
ENDMDL
MODEL 9
REMARK VINA RESULT:      -4.5      3.434      4.521
REMARK  0 active torsions:
REMARK  status: ('A' for Active; 'I' for Inactive)
ROOT
HETATM    1  S   UNL     1      66.632   7.690   6.217  1.00  0.00     0.176 S 
HETATM    2  C   UNL     1      64.944   7.257   5.960  1.00  0.00     0.073 A 
HETATM    3  C   UNL     1      64.442   6.024   6.380  1.00  0.00     0.033 A 
HETATM    4  C   UNL     1      65.285   4.982   7.030  1.00  0.00     0.162 C 
HETATM    5  C   UNL     1      67.199   6.506   7.404  1.00  0.00     0.153 C 
HETATM    6  O   UNL     1      66.646   8.994   6.848  1.00  0.00    -0.223 OA
HETATM    7  O   UNL     1      67.310   7.442   4.961  1.00  0.00    -0.223 OA
HETATM    8  C   UNL     1      64.114   8.206   5.350  1.00  0.00     0.026 A 
HETATM    9  C   UNL     1      66.786   5.120   6.970  1.00  0.00     0.099 C 
HETATM   10  C   UNL     1      63.083   5.741   6.177  1.00  0.00     0.040 A 
HETATM   11  O   UNL     1      64.756   4.015   7.566  1.00  0.00    -0.292 OA
HETATM   12  C   UNL     1      62.258   6.681   5.556  1.00  0.00     0.035 A 
HETATM   13  C   UNL     1      62.767   7.912   5.144  1.00  0.00     0.025 A 
HETATM   14 CL   UNL     1      60.597   6.318   5.293  1.00  0.00    -0.084 Cl
ENDROOT
TORSDOF 0
ENDMDL
