MODEL 1
REMARK VINA RESULT:      -4.9      0.000      0.000
REMARK  4 active torsions:
REMARK  status: ('A' for Active; 'I' for Inactive)
REMARK    1  A    between atoms: C_1  and  C_8 
REMARK    2  A    between atoms: C_2  and  N_9 
REMARK    3  A    between atoms: C_3  and  C_6 
REMARK    4  A    between atoms: C_8  and  N_15 
ROOT
HETATM    1  C   UNL     1      65.066   7.854   5.582  1.00  0.00     0.097 A 
HETATM    2  C   UNL     1      64.825   7.036   4.451  1.00  0.00     0.061 A 
HETATM    3  C   UNL     1      63.213   8.761   3.769  1.00  0.00     0.065 A 
HETATM    4  N   UNL     1      64.434   9.043   5.816  1.00  0.00    -0.361 N 
ATOM      5  HN  UNL     1      64.636   9.590   6.653  1.00  0.00     0.165 HD
HETATM    6  C   UNL     1      63.859   7.532   3.559  1.00  0.00     0.049 A 
HETATM    7  C   UNL     1      63.537   9.468   4.909  1.00  0.00     0.104 A 
ENDROOT
BRANCH   1   8
HETATM    8  C   UNL     1      66.140   7.545   6.592  1.00  0.00     0.123 C 
HETATM    9  S   UNL     1      65.996   6.434   7.840  1.00  0.00    -0.058 SA
BRANCH   8  10
HETATM   10  N   UNL     1      67.324   8.239   6.489  1.00  0.00    -0.388 N 
HETATM   11  H   UNL     1      67.362   9.188   6.748  1.00  0.00     0.157 HD
HETATM   12  H   UNL     1      68.133   7.787   6.157  1.00  0.00     0.157 HD
ENDBRANCH   8  10
ENDBRANCH   1   8
BRANCH   2  13
HETATM   13  N   UNL     1      65.477   5.824   4.215  1.00  0.00    -0.379 N 
HETATM   14  C   UNL     1      66.797   5.739   3.567  1.00  0.00     0.123 C 
HETATM   15  C   UNL     1      66.697   4.539   2.626  1.00  0.00     0.021 C 
HETATM   16  C   UNL     1      65.649   3.666   3.292  1.00  0.00     0.021 C 
HETATM   17  C   UNL     1      64.632   4.697   3.773  1.00  0.00     0.123 C 
ENDBRANCH   2  13
BRANCH   3  18
HETATM   18  C   UNL     1      62.212   9.324   2.807  1.00  0.00     0.418 C 
HETATM   19  F   UNL     1      62.513   9.071   1.503  1.00  0.00    -0.166 F 
HETATM   20  F   UNL     1      60.962   8.828   3.005  1.00  0.00    -0.166 F 
HETATM   21  F   UNL     1      62.102  10.677   2.906  1.00  0.00    -0.166 F 
ENDBRANCH   3  18
TORSDOF 4
ENDMDL
MODEL 2
REMARK VINA RESULT:      -4.8      3.865      5.548
REMARK  4 active torsions:
REMARK  status: ('A' for Active; 'I' for Inactive)
REMARK    1  A    between atoms: C_1  and  C_8 
REMARK    2  A    between atoms: C_2  and  N_9 
REMARK    3  A    between atoms: C_3  and  C_6 
REMARK    4  A    between atoms: C_8  and  N_15 
ROOT
HETATM    1  C   UNL     1      62.734   6.835   5.322  1.00  0.00     0.097 A 
HETATM    2  C   UNL     1      63.165   8.063   4.762  1.00  0.00     0.061 A 
HETATM    3  C   UNL     1      65.320   7.600   5.848  1.00  0.00     0.065 A 
HETATM    4  N   UNL     1      63.521   6.031   6.099  1.00  0.00    -0.361 N 
ATOM      5  HN  UNL     1      63.160   5.160   6.488  1.00  0.00     0.165 HD
HETATM    6  C   UNL     1      64.488   8.421   5.070  1.00  0.00     0.049 A 
HETATM    7  C   UNL     1      64.785   6.425   6.334  1.00  0.00     0.104 A 
ENDROOT
BRANCH   1   8
HETATM    8  C   UNL     1      61.388   6.231   5.018  1.00  0.00     0.123 C 
HETATM    9  S   UNL     1      61.014   5.362   3.633  1.00  0.00    -0.058 SA
BRANCH   8  10
HETATM   10  N   UNL     1      60.387   6.420   5.942  1.00  0.00    -0.388 N 
HETATM   11  H   UNL     1      59.601   6.967   5.711  1.00  0.00     0.157 HD
HETATM   12  H   UNL     1      60.455   6.010   6.834  1.00  0.00     0.157 HD
ENDBRANCH   8  10
ENDBRANCH   1   8
BRANCH   2  13
HETATM   13  N   UNL     1      62.358   8.878   3.966  1.00  0.00    -0.379 N 
HETATM   14  C   UNL     1      62.186   8.665   2.518  1.00  0.00     0.123 C 
HETATM   15  C   UNL     1      62.207  10.065   1.909  1.00  0.00     0.021 C 
HETATM   16  C   UNL     1      61.705  10.941   3.041  1.00  0.00     0.021 C 
HETATM   17  C   UNL     1      62.397  10.326   4.254  1.00  0.00     0.123 C 
ENDBRANCH   2  13
BRANCH   3  18
HETATM   18  C   UNL     1      66.745   7.947   6.150  1.00  0.00     0.418 C 
HETATM   19  F   UNL     1      67.455   6.910   6.675  1.00  0.00    -0.166 F 
HETATM   20  F   UNL     1      67.431   8.348   5.047  1.00  0.00    -0.166 F 
HETATM   21  F   UNL     1      66.852   8.962   7.051  1.00  0.00    -0.166 F 
ENDBRANCH   3  18
TORSDOF 4
ENDMDL
MODEL 3
REMARK VINA RESULT:      -4.8      1.628      3.207
REMARK  4 active torsions:
REMARK  status: ('A' for Active; 'I' for Inactive)
REMARK    1  A    between atoms: C_1  and  C_8 
REMARK    2  A    between atoms: C_2  and  N_9 
REMARK    3  A    between atoms: C_3  and  C_6 
REMARK    4  A    between atoms: C_8  and  N_15 
ROOT
HETATM    1  C   UNL     1      64.800   6.763   3.973  1.00  0.00     0.097 A 
HETATM    2  C   UNL     1      64.910   7.706   5.025  1.00  0.00     0.061 A 
HETATM    3  C   UNL     1      63.137   8.947   3.861  1.00  0.00     0.065 A 
HETATM    4  N   UNL     1      63.932   6.885   2.925  1.00  0.00    -0.361 N 
ATOM      5  HN  UNL     1      63.898   6.183   2.185  1.00  0.00     0.165 HD
HETATM    6  C   UNL     1      64.051   8.814   4.918  1.00  0.00     0.049 A 
HETATM    7  C   UNL     1      63.123   7.959   2.898  1.00  0.00     0.104 A 
ENDROOT
BRANCH   1   8
HETATM    8  C   UNL     1      65.558   5.462   3.967  1.00  0.00     0.123 C 
HETATM    9  S   UNL     1      65.098   4.076   4.793  1.00  0.00    -0.058 SA
BRANCH   8  10
HETATM   10  N   UNL     1      66.723   5.412   3.238  1.00  0.00    -0.388 N 
HETATM   11  H   UNL     1      66.872   6.052   2.504  1.00  0.00     0.157 HD
HETATM   12  H   UNL     1      67.408   4.737   3.448  1.00  0.00     0.157 HD
ENDBRANCH   8  10
ENDBRANCH   1   8
BRANCH   2  13
HETATM   13  N   UNL     1      65.797   7.575   6.095  1.00  0.00    -0.379 N 
HETATM   14  C   UNL     1      67.252   7.431   5.915  1.00  0.00     0.123 C 
HETATM   15  C   UNL     1      67.673   6.381   6.942  1.00  0.00     0.021 C 
HETATM   16  C   UNL     1      66.627   6.524   8.031  1.00  0.00     0.021 C 
HETATM   17  C   UNL     1      65.349   6.733   7.222  1.00  0.00     0.123 C 
ENDBRANCH   2  13
BRANCH   3  18
HETATM   18  C   UNL     1      62.186  10.099   3.755  1.00  0.00     0.418 C 
HETATM   19  F   UNL     1      62.387  11.056   4.703  1.00  0.00    -0.166 F 
HETATM   20  F   UNL     1      62.270  10.737   2.557  1.00  0.00    -0.166 F 
HETATM   21  F   UNL     1      60.887   9.714   3.887  1.00  0.00    -0.166 F 
ENDBRANCH   3  18
TORSDOF 4
ENDMDL
MODEL 4
REMARK VINA RESULT:      -4.6      4.141      5.944
REMARK  4 active torsions:
REMARK  status: ('A' for Active; 'I' for Inactive)
REMARK    1  A    between atoms: C_1  and  C_8 
REMARK    2  A    between atoms: C_2  and  N_9 
REMARK    3  A    between atoms: C_3  and  C_6 
REMARK    4  A    between atoms: C_8  and  N_15 
ROOT
HETATM    1  C   UNL     1      61.411   6.875   4.529  1.00  0.00     0.097 A 
HETATM    2  C   UNL     1      62.148   8.065   4.309  1.00  0.00     0.061 A 
HETATM    3  C   UNL     1      63.864   7.061   5.752  1.00  0.00     0.065 A 
HETATM    4  N   UNL     1      61.846   5.840   5.308  1.00  0.00    -0.361 N 
ATOM      5  HN  UNL     1      61.273   5.007   5.444  1.00  0.00     0.165 HD
HETATM    6  C   UNL     1      63.389   8.123   4.966  1.00  0.00     0.049 A 
HETATM    7  C   UNL     1      63.054   5.952   5.888  1.00  0.00     0.104 A 
ENDROOT
BRANCH   1   8
HETATM    8  C   UNL     1      60.111   6.583   3.827  1.00  0.00     0.123 C 
HETATM    9  S   UNL     1      58.623   7.233   4.248  1.00  0.00    -0.058 SA
BRANCH   8  10
HETATM   10  N   UNL     1      60.147   5.706   2.768  1.00  0.00    -0.388 N 
HETATM   11  H   UNL     1      59.460   5.755   2.065  1.00  0.00     0.157 HD
HETATM   12  H   UNL     1      60.860   5.030   2.712  1.00  0.00     0.157 HD
ENDBRANCH   8  10
ENDBRANCH   1   8
BRANCH   2  13
HETATM   13  N   UNL     1      61.699   9.119   3.510  1.00  0.00    -0.379 N 
HETATM   14  C   UNL     1      61.695   9.061   2.037  1.00  0.00     0.123 C 
HETATM   15  C   UNL     1      62.159  10.446   1.588  1.00  0.00     0.021 C 
HETATM   16  C   UNL     1      61.732  11.341   2.735  1.00  0.00     0.021 C 
HETATM   17  C   UNL     1      62.059  10.481   3.953  1.00  0.00     0.123 C 
ENDBRANCH   2  13
BRANCH   3  18
HETATM   18  C   UNL     1      65.201   7.089   6.425  1.00  0.00     0.418 C 
HETATM   19  F   UNL     1      65.833   8.292   6.324  1.00  0.00    -0.166 F 
HETATM   20  F   UNL     1      65.124   6.819   7.755  1.00  0.00    -0.166 F 
HETATM   21  F   UNL     1      66.064   6.173   5.904  1.00  0.00    -0.166 F 
ENDBRANCH   3  18
TORSDOF 4
ENDMDL
MODEL 5
REMARK VINA RESULT:      -4.6      4.488      5.606
REMARK  4 active torsions:
REMARK  status: ('A' for Active; 'I' for Inactive)
REMARK    1  A    between atoms: C_1  and  C_8 
REMARK    2  A    between atoms: C_2  and  N_9 
REMARK    3  A    between atoms: C_3  and  C_6 
REMARK    4  A    between atoms: C_8  and  N_15 
ROOT
HETATM    1  C   UNL     1      64.297   8.078   5.614  1.00  0.00     0.097 A 
HETATM    2  C   UNL     1      63.862   6.784   5.995  1.00  0.00     0.061 A 
HETATM    3  C   UNL     1      66.055   6.559   7.080  1.00  0.00     0.065 A 
HETATM    4  N   UNL     1      65.523   8.595   5.926  1.00  0.00    -0.361 N 
ATOM      5  HN  UNL     1      65.794   9.529   5.619  1.00  0.00     0.165 HD
HETATM    6  C   UNL     1      64.799   6.038   6.730  1.00  0.00     0.049 A 
HETATM    7  C   UNL     1      66.362   7.834   6.652  1.00  0.00     0.104 A 
ENDROOT
BRANCH   1   8
HETATM    8  C   UNL     1      63.398   9.064   4.917  1.00  0.00     0.123 C 
HETATM    9  S   UNL     1      62.792   8.883   3.363  1.00  0.00    -0.058 SA
BRANCH   8  10
HETATM   10  N   UNL     1      63.059  10.206   5.604  1.00  0.00    -0.388 N 
HETATM   11  H   UNL     1      63.160  10.240   6.583  1.00  0.00     0.157 HD
HETATM   12  H   UNL     1      62.715  10.991   5.119  1.00  0.00     0.157 HD
ENDBRANCH   8  10
ENDBRANCH   1   8
BRANCH   2  13
HETATM   13  N   UNL     1      62.607   6.262   5.675  1.00  0.00    -0.379 N 
HETATM   14  C   UNL     1      61.456   6.329   6.593  1.00  0.00     0.123 C 
HETATM   15  C   UNL     1      60.771   4.969   6.464  1.00  0.00     0.021 C 
HETATM   16  C   UNL     1      61.137   4.530   5.060  1.00  0.00     0.021 C 
HETATM   17  C   UNL     1      62.594   4.974   4.954  1.00  0.00     0.123 C 
ENDBRANCH   2  13
BRANCH   3  18
HETATM   18  C   UNL     1      67.048   5.793   7.898  1.00  0.00     0.418 C 
HETATM   19  F   UNL     1      67.629   6.536   8.880  1.00  0.00    -0.166 F 
HETATM   20  F   UNL     1      66.495   4.718   8.521  1.00  0.00    -0.166 F 
HETATM   21  F   UNL     1      68.074   5.306   7.146  1.00  0.00    -0.166 F 
ENDBRANCH   3  18
TORSDOF 4
ENDMDL
MODEL 6
REMARK VINA RESULT:      -4.5      3.542      5.423
REMARK  4 active torsions:
REMARK  status: ('A' for Active; 'I' for Inactive)
REMARK    1  A    between atoms: C_1  and  C_8 
REMARK    2  A    between atoms: C_2  and  N_9 
REMARK    3  A    between atoms: C_3  and  C_6 
REMARK    4  A    between atoms: C_8  and  N_15 
ROOT
HETATM    1  C   UNL     1      62.009   7.059   4.675  1.00  0.00     0.097 A 
HETATM    2  C   UNL     1      61.314   8.001   3.876  1.00  0.00     0.061 A 
HETATM    3  C   UNL     1      59.308   6.669   4.364  1.00  0.00     0.065 A 
HETATM    4  N   UNL     1      61.419   5.986   5.281  1.00  0.00    -0.361 N 
ATOM      5  HN  UNL     1      61.966   5.330   5.838  1.00  0.00     0.165 HD
HETATM    6  C   UNL     1      59.938   7.753   3.733  1.00  0.00     0.049 A 
HETATM    7  C   UNL     1      60.093   5.822   5.119  1.00  0.00     0.104 A 
ENDROOT
BRANCH   1   8
HETATM    8  C   UNL     1      63.464   7.215   5.033  1.00  0.00     0.123 C 
HETATM    9  S   UNL     1      64.749   6.746   4.062  1.00  0.00    -0.058 SA
BRANCH   8  10
HETATM   10  N   UNL     1      63.758   7.774   6.255  1.00  0.00    -0.388 N 
HETATM   11  H   UNL     1      63.052   7.868   6.936  1.00  0.00     0.157 HD
HETATM   12  H   UNL     1      64.673   8.079   6.450  1.00  0.00     0.157 HD
ENDBRANCH   8  10
ENDBRANCH   1   8
BRANCH   2  13
HETATM   13  N   UNL     1      61.922   9.098   3.263  1.00  0.00    -0.379 N 
HETATM   14  C   UNL     1      62.052  10.411   3.918  1.00  0.00     0.123 C 
HETATM   15  C   UNL     1      61.754  11.430   2.820  1.00  0.00     0.021 C 
HETATM   16  C   UNL     1      62.154  10.698   1.553  1.00  0.00     0.021 C 
HETATM   17  C   UNL     1      61.645   9.285   1.824  1.00  0.00     0.123 C 
ENDBRANCH   2  13
BRANCH   3  18
HETATM   18  C   UNL     1      57.836   6.414   4.255  1.00  0.00     0.418 C 
HETATM   19  F   UNL     1      57.234   6.195   5.457  1.00  0.00    -0.166 F 
HETATM   20  F   UNL     1      57.167   7.452   3.686  1.00  0.00    -0.166 F 
HETATM   21  F   UNL     1      57.554   5.320   3.495  1.00  0.00    -0.166 F 
ENDBRANCH   3  18
TORSDOF 4
ENDMDL
MODEL 7
REMARK VINA RESULT:      -4.5      2.132      2.584
REMARK  4 active torsions:
REMARK  status: ('A' for Active; 'I' for Inactive)
REMARK    1  A    between atoms: C_1  and  C_8 
REMARK    2  A    between atoms: C_2  and  N_9 
REMARK    3  A    between atoms: C_3  and  C_6 
REMARK    4  A    between atoms: C_8  and  N_15 
ROOT
HETATM    1  C   UNL     1      64.740   7.280   6.107  1.00  0.00     0.097 A 
HETATM    2  C   UNL     1      63.537   6.653   5.696  1.00  0.00     0.061 A 
HETATM    3  C   UNL     1      62.998   8.794   4.618  1.00  0.00     0.065 A 
HETATM    4  N   UNL     1      65.068   8.573   5.813  1.00  0.00    -0.361 N 
ATOM      5  HN  UNL     1      65.942   8.982   6.142  1.00  0.00     0.165 HD
HETATM    6  C   UNL     1      62.671   7.470   4.950  1.00  0.00     0.049 A 
HETATM    7  C   UNL     1      64.201   9.291   5.075  1.00  0.00     0.104 A 
ENDROOT
BRANCH   1   8
HETATM    8  C   UNL     1      65.839   6.537   6.820  1.00  0.00     0.123 C 
HETATM    9  S   UNL     1      67.063   5.673   6.067  1.00  0.00    -0.058 SA
BRANCH   8  10
HETATM   10  N   UNL     1      65.829   6.561   8.196  1.00  0.00    -0.388 N 
HETATM   11  H   UNL     1      64.991   6.392   8.685  1.00  0.00     0.157 HD
HETATM   12  H   UNL     1      66.659   6.746   8.692  1.00  0.00     0.157 HD
ENDBRANCH   8  10
ENDBRANCH   1   8
BRANCH   2  13
HETATM   13  N   UNL     1      63.209   5.330   5.997  1.00  0.00    -0.379 N 
HETATM   14  C   UNL     1      63.578   4.197   5.130  1.00  0.00     0.123 C 
HETATM   15  C   UNL     1      62.353   3.285   5.132  1.00  0.00     0.021 C 
HETATM   16  C   UNL     1      61.701   3.585   6.468  1.00  0.00     0.021 C 
HETATM   17  C   UNL     1      61.870   5.099   6.574  1.00  0.00     0.123 C 
ENDBRANCH   2  13
BRANCH   3  18
HETATM   18  C   UNL     1      62.104   9.665   3.789  1.00  0.00     0.418 C 
HETATM   19  F   UNL     1      62.450   9.698   2.472  1.00  0.00    -0.166 F 
HETATM   20  F   UNL     1      60.805   9.264   3.824  1.00  0.00    -0.166 F 
HETATM   21  F   UNL     1      62.110  10.961   4.206  1.00  0.00    -0.166 F 
ENDBRANCH   3  18
TORSDOF 4
ENDMDL
MODEL 8
REMARK VINA RESULT:      -4.4      2.884      3.572
REMARK  4 active torsions:
REMARK  status: ('A' for Active; 'I' for Inactive)
REMARK    1  A    between atoms: C_1  and  C_8 
REMARK    2  A    between atoms: C_2  and  N_9 
REMARK    3  A    between atoms: C_3  and  C_6 
REMARK    4  A    between atoms: C_8  and  N_15 
ROOT
HETATM    1  C   UNL     1      65.256   7.427   6.255  1.00  0.00     0.097 A 
HETATM    2  C   UNL     1      64.956   6.082   6.583  1.00  0.00     0.061 A 
HETATM    3  C   UNL     1      62.651   6.618   5.922  1.00  0.00     0.065 A 
HETATM    4  N   UNL     1      64.334   8.326   5.796  1.00  0.00    -0.361 N 
ATOM      5  HN  UNL     1      64.598   9.287   5.583  1.00  0.00     0.165 HD
HETATM    6  C   UNL     1      63.610   5.717   6.412  1.00  0.00     0.049 A 
HETATM    7  C   UNL     1      63.068   7.902   5.634  1.00  0.00     0.104 A 
ENDROOT
BRANCH   1   8
HETATM    8  C   UNL     1      66.659   7.973   6.270  1.00  0.00     0.123 C 
HETATM    9  S   UNL     1      67.780   7.781   5.036  1.00  0.00    -0.058 SA
BRANCH   8  10
HETATM   10  N   UNL     1      67.054   8.671   7.387  1.00  0.00    -0.388 N 
HETATM   11  H   UNL     1      67.035   8.236   8.271  1.00  0.00     0.157 HD
HETATM   12  H   UNL     1      67.356   9.604   7.305  1.00  0.00     0.157 HD
ENDBRANCH   8  10
ENDBRANCH   1   8
BRANCH   2  13
HETATM   13  N   UNL     1      65.903   5.167   7.048  1.00  0.00    -0.379 N 
HETATM   14  C   UNL     1      66.646   5.355   8.306  1.00  0.00     0.123 C 
HETATM   15  C   UNL     1      68.074   4.911   7.990  1.00  0.00     0.021 C 
HETATM   16  C   UNL     1      67.881   3.905   6.871  1.00  0.00     0.021 C 
HETATM   17  C   UNL     1      66.788   4.562   6.033  1.00  0.00     0.123 C 
ENDBRANCH   2  13
BRANCH   3  18
HETATM   18  C   UNL     1      61.222   6.234   5.694  1.00  0.00     0.418 C 
HETATM   19  F   UNL     1      60.588   7.023   4.783  1.00  0.00    -0.166 F 
HETATM   20  F   UNL     1      61.089   4.959   5.241  1.00  0.00    -0.166 F 
HETATM   21  F   UNL     1      60.477   6.310   6.832  1.00  0.00    -0.166 F 
ENDBRANCH   3  18
TORSDOF 4
ENDMDL
MODEL 9
REMARK VINA RESULT:      -4.4      2.430      3.393
REMARK  4 active torsions:
REMARK  status: ('A' for Active; 'I' for Inactive)
REMARK    1  A    between atoms: C_1  and  C_8 
REMARK    2  A    between atoms: C_2  and  N_9 
REMARK    3  A    between atoms: C_3  and  C_6 
REMARK    4  A    between atoms: C_8  and  N_15 
ROOT
HETATM    1  C   UNL     1      62.081   6.462   4.425  1.00  0.00     0.097 A 
HETATM    2  C   UNL     1      63.273   7.060   3.946  1.00  0.00     0.061 A 
HETATM    3  C   UNL     1      61.839   8.177   2.294  1.00  0.00     0.065 A 
HETATM    4  N   UNL     1      60.844   6.685   3.889  1.00  0.00    -0.361 N 
ATOM      5  HN  UNL     1      60.017   6.221   4.264  1.00  0.00     0.165 HD
HETATM    6  C   UNL     1      63.103   7.917   2.846  1.00  0.00     0.049 A 
HETATM    7  C   UNL     1      60.752   7.536   2.851  1.00  0.00     0.104 A 
ENDROOT
BRANCH   1   8
HETATM    8  C   UNL     1      62.045   5.600   5.660  1.00  0.00     0.123 C 
HETATM    9  S   UNL     1      62.779   4.099   5.808  1.00  0.00    -0.058 SA
BRANCH   8  10
HETATM   10  N   UNL     1      61.346   6.078   6.744  1.00  0.00    -0.388 N 
HETATM   11  H   UNL     1      61.160   7.042   6.824  1.00  0.00     0.157 HD
HETATM   12  H   UNL     1      61.030   5.457   7.440  1.00  0.00     0.157 HD
ENDBRANCH   8  10
ENDBRANCH   1   8
BRANCH   2  13
HETATM   13  N   UNL     1      64.534   6.831   4.500  1.00  0.00    -0.379 N 
HETATM   14  C   UNL     1      65.151   7.735   5.486  1.00  0.00     0.123 C 
HETATM   15  C   UNL     1      66.622   7.816   5.080  1.00  0.00     0.021 C 
HETATM   16  C   UNL     1      66.860   6.490   4.382  1.00  0.00     0.021 C 
HETATM   17  C   UNL     1      65.570   6.310   3.586  1.00  0.00     0.123 C 
ENDBRANCH   2  13
BRANCH   3  18
HETATM   18  C   UNL     1      61.635   9.120   1.148  1.00  0.00     0.418 C 
HETATM   19  F   UNL     1      60.469   8.911   0.475  1.00  0.00    -0.166 F 
HETATM   20  F   UNL     1      61.611  10.422   1.540  1.00  0.00    -0.166 F 
HETATM   21  F   UNL     1      62.623   9.025   0.216  1.00  0.00    -0.166 F 
ENDBRANCH   3  18
TORSDOF 4
ENDMDL
