MODEL 1
REMARK VINA RESULT:      -4.3      0.000      0.000
REMARK  1 active torsions:
REMARK  status: ('A' for Active; 'I' for Inactive)
REMARK    1  A    between atoms: C_1  and  C_6 
ROOT
HETATM    1  C   UNL     1      63.179   9.779   4.732  1.00  0.00     0.083 A 
HETATM    2  S   UNL     1      62.219   9.378   3.363  1.00  0.00    -0.082 SA
HETATM    3  C   UNL     1      64.164   8.845   4.990  1.00  0.00     0.046 A 
HETATM    4  C   UNL     1      63.138   7.919   3.114  1.00  0.00     0.023 A 
HETATM    5  C   UNL     1      64.125   7.774   4.048  1.00  0.00     0.023 A 
HETATM    6  S   UNL     1      65.046   6.311   3.805  1.00  0.00    -0.101 SA
HETATM    7  C   UNL     1      63.102   6.849   2.168  1.00  0.00     0.027 A 
HETATM    8  C   UNL     1      64.082   5.923   2.443  1.00  0.00     0.052 A 
ENDROOT
BRANCH   1   9
HETATM    9  C   UNL     1      62.882  10.999   5.454  1.00  0.00     0.216 C 
HETATM   10  O   UNL     1      63.260  11.348   6.562  1.00  0.00    -0.643 OA
HETATM   11  O   UNL     1      62.072  11.812   4.738  1.00  0.00    -0.643 OA
ENDBRANCH   1   9
TORSDOF 1
ENDMDL
MODEL 2
REMARK VINA RESULT:      -4.3      1.374      1.718
REMARK  1 active torsions:
REMARK  status: ('A' for Active; 'I' for Inactive)
REMARK    1  A    between atoms: C_1  and  C_6 
ROOT
HETATM    1  C   UNL     1      63.040   9.741   4.513  1.00  0.00     0.083 A 
HETATM    2  S   UNL     1      64.281   8.673   5.037  1.00  0.00    -0.082 SA
HETATM    3  C   UNL     1      62.396   9.300   3.372  1.00  0.00     0.046 A 
HETATM    4  C   UNL     1      63.955   7.600   3.703  1.00  0.00     0.023 A 
HETATM    5  C   UNL     1      62.940   8.063   2.914  1.00  0.00     0.023 A 
HETATM    6  S   UNL     1      62.612   6.993   1.574  1.00  0.00    -0.101 SA
HETATM    7  C   UNL     1      64.496   6.358   3.247  1.00  0.00     0.027 A 
HETATM    8  C   UNL     1      63.852   5.937   2.106  1.00  0.00     0.052 A 
ENDROOT
BRANCH   1   9
HETATM    9  C   UNL     1      62.793  10.945   5.278  1.00  0.00     0.216 C 
HETATM   10  O   UNL     1      63.175  11.236   6.402  1.00  0.00    -0.643 OA
HETATM   11  O   UNL     1      62.027  11.821   4.587  1.00  0.00    -0.643 OA
ENDBRANCH   1   9
TORSDOF 1
ENDMDL
MODEL 3
REMARK VINA RESULT:      -4.2      2.021      2.433
REMARK  1 active torsions:
REMARK  status: ('A' for Active; 'I' for Inactive)
REMARK    1  A    between atoms: C_1  and  C_6 
ROOT
HETATM    1  C   UNL     1      62.147   9.926   3.971  1.00  0.00     0.083 A 
HETATM    2  S   UNL     1      61.178   8.666   3.315  1.00  0.00    -0.082 SA
HETATM    3  C   UNL     1      63.008   9.485   4.957  1.00  0.00     0.046 A 
HETATM    4  C   UNL     1      61.923   7.505   4.379  1.00  0.00     0.023 A 
HETATM    5  C   UNL     1      62.864   8.083   5.185  1.00  0.00     0.023 A 
HETATM    6  S   UNL     1      63.610   6.924   6.256  1.00  0.00    -0.101 SA
HETATM    7  C   UNL     1      61.782   6.101   4.604  1.00  0.00     0.027 A 
HETATM    8  C   UNL     1      62.639   5.678   5.594  1.00  0.00     0.052 A 
ENDROOT
BRANCH   1   9
HETATM    9  C   UNL     1      61.981  11.269   3.455  1.00  0.00     0.216 C 
HETATM   10  O   UNL     1      61.955  11.650   2.294  1.00  0.00    -0.643 OA
HETATM   11  O   UNL     1      61.842  12.169   4.455  1.00  0.00    -0.643 OA
ENDBRANCH   1   9
TORSDOF 1
ENDMDL
MODEL 4
REMARK VINA RESULT:      -4.1      2.030      2.268
REMARK  1 active torsions:
REMARK  status: ('A' for Active; 'I' for Inactive)
REMARK    1  A    between atoms: C_1  and  C_6 
ROOT
HETATM    1  C   UNL     1      62.194  10.047   3.900  1.00  0.00     0.083 A 
HETATM    2  S   UNL     1      61.893  10.542   2.281  1.00  0.00    -0.082 SA
HETATM    3  C   UNL     1      62.112   8.679   4.069  1.00  0.00     0.046 A 
HETATM    4  C   UNL     1      61.641   8.888   1.796  1.00  0.00     0.023 A 
HETATM    5  C   UNL     1      61.788   8.022   2.843  1.00  0.00     0.023 A 
HETATM    6  S   UNL     1      61.533   6.364   2.362  1.00  0.00    -0.101 SA
HETATM    7  C   UNL     1      61.322   8.230   0.568  1.00  0.00     0.027 A 
HETATM    8  C   UNL     1      61.235   6.869   0.753  1.00  0.00     0.052 A 
ENDROOT
BRANCH   1   9
HETATM    9  C   UNL     1      62.491  11.060   4.891  1.00  0.00     0.216 C 
HETATM   10  O   UNL     1      63.176  10.973   5.899  1.00  0.00    -0.643 OA
HETATM   11  O   UNL     1      61.894  12.237   4.590  1.00  0.00    -0.643 OA
ENDBRANCH   1   9
TORSDOF 1
ENDMDL
MODEL 5
REMARK VINA RESULT:      -4.1      2.208      2.910
REMARK  1 active torsions:
REMARK  status: ('A' for Active; 'I' for Inactive)
REMARK    1  A    between atoms: C_1  and  C_6 
ROOT
HETATM    1  C   UNL     1      62.190   9.868   2.360  1.00  0.00     0.083 A 
HETATM    2  S   UNL     1      62.804   8.888   3.632  1.00  0.00    -0.082 SA
HETATM    3  C   UNL     1      62.084   9.191   1.161  1.00  0.00     0.046 A 
HETATM    4  C   UNL     1      62.938   7.527   2.552  1.00  0.00     0.023 A 
HETATM    5  C   UNL     1      62.525   7.839   1.287  1.00  0.00     0.023 A 
HETATM    6  S   UNL     1      62.660   6.479   0.200  1.00  0.00    -0.101 SA
HETATM    7  C   UNL     1      63.374   6.172   2.679  1.00  0.00     0.027 A 
HETATM    8  C   UNL     1      63.272   5.512   1.476  1.00  0.00     0.052 A 
ENDROOT
BRANCH   1   9
HETATM    9  C   UNL     1      61.855  11.247   2.648  1.00  0.00     0.216 C 
HETATM   10  O   UNL     1      61.760  12.193   1.879  1.00  0.00    -0.643 OA
HETATM   11  O   UNL     1      61.629  11.436   3.969  1.00  0.00    -0.643 OA
ENDBRANCH   1   9
TORSDOF 1
ENDMDL
MODEL 6
REMARK VINA RESULT:      -4.0      2.439      3.080
REMARK  1 active torsions:
REMARK  status: ('A' for Active; 'I' for Inactive)
REMARK    1  A    between atoms: C_1  and  C_6 
ROOT
HETATM    1  C   UNL     1      63.842   8.161   4.549  1.00  0.00     0.083 A 
HETATM    2  S   UNL     1      62.842   9.527   4.248  1.00  0.00    -0.082 SA
HETATM    3  C   UNL     1      63.834   7.248   3.512  1.00  0.00     0.046 A 
HETATM    4  C   UNL     1      62.384   8.880   2.696  1.00  0.00     0.023 A 
HETATM    5  C   UNL     1      62.983   7.677   2.449  1.00  0.00     0.023 A 
HETATM    6  S   UNL     1      62.523   7.023   0.897  1.00  0.00    -0.101 SA
HETATM    7  C   UNL     1      61.535   9.311   1.630  1.00  0.00     0.027 A 
HETATM    8  C   UNL     1      61.530   8.389   0.609  1.00  0.00     0.052 A 
ENDROOT
BRANCH   1   9
HETATM    9  C   UNL     1      64.566   8.094   5.802  1.00  0.00     0.216 C 
HETATM   10  O   UNL     1      64.463   7.281   6.708  1.00  0.00    -0.643 OA
HETATM   11  O   UNL     1      65.461   9.103   5.909  1.00  0.00    -0.643 OA
ENDBRANCH   1   9
TORSDOF 1
ENDMDL
MODEL 7
REMARK VINA RESULT:      -3.9      2.410      3.634
REMARK  1 active torsions:
REMARK  status: ('A' for Active; 'I' for Inactive)
REMARK    1  A    between atoms: C_1  and  C_6 
ROOT
HETATM    1  C   UNL     1      64.725   8.044   5.118  1.00  0.00     0.083 A 
HETATM    2  S   UNL     1      64.448   6.975   3.801  1.00  0.00    -0.082 SA
HETATM    3  C   UNL     1      63.920   9.167   5.078  1.00  0.00     0.046 A 
HETATM    4  C   UNL     1      63.229   8.041   3.159  1.00  0.00     0.023 A 
HETATM    5  C   UNL     1      63.064   9.152   3.936  1.00  0.00     0.023 A 
HETATM    6  S   UNL     1      61.846  10.226   3.295  1.00  0.00    -0.101 SA
HETATM    7  C   UNL     1      62.368   8.024   2.018  1.00  0.00     0.027 A 
HETATM    8  C   UNL     1      61.580   9.152   1.987  1.00  0.00     0.052 A 
ENDROOT
BRANCH   1   9
HETATM    9  C   UNL     1      65.726   7.689   6.102  1.00  0.00     0.216 C 
HETATM   10  O   UNL     1      66.034   6.583   6.521  1.00  0.00    -0.643 OA
HETATM   11  O   UNL     1      66.365   8.784   6.575  1.00  0.00    -0.643 OA
ENDBRANCH   1   9
TORSDOF 1
ENDMDL
MODEL 8
REMARK VINA RESULT:      -3.8      3.853      4.764
REMARK  1 active torsions:
REMARK  status: ('A' for Active; 'I' for Inactive)
REMARK    1  A    between atoms: C_1  and  C_6 
ROOT
HETATM    1  C   UNL     1      65.243   7.659   5.801  1.00  0.00     0.083 A 
HETATM    2  S   UNL     1      66.777   8.056   6.467  1.00  0.00    -0.082 SA
HETATM    3  C   UNL     1      64.898   6.335   5.993  1.00  0.00     0.046 A 
HETATM    4  C   UNL     1      66.988   6.417   7.021  1.00  0.00     0.023 A 
HETATM    5  C   UNL     1      65.920   5.629   6.697  1.00  0.00     0.023 A 
HETATM    6  S   UNL     1      66.128   3.985   7.247  1.00  0.00    -0.101 SA
HETATM    7  C   UNL     1      68.008   5.711   7.730  1.00  0.00     0.027 A 
HETATM    8  C   UNL     1      67.656   4.393   7.907  1.00  0.00     0.052 A 
ENDROOT
BRANCH   1   9
HETATM    9  C   UNL     1      64.488   8.697   5.131  1.00  0.00     0.216 C 
HETATM   10  O   UNL     1      63.802   8.622   4.122  1.00  0.00    -0.643 OA
HETATM   11  O   UNL     1      64.608   9.885   5.769  1.00  0.00    -0.643 OA
ENDBRANCH   1   9
TORSDOF 1
ENDMDL
MODEL 9
REMARK VINA RESULT:      -3.7      2.536      3.317
REMARK  1 active torsions:
REMARK  status: ('A' for Active; 'I' for Inactive)
REMARK    1  A    between atoms: C_1  and  C_6 
ROOT
HETATM    1  C   UNL     1      62.893   8.628   4.712  1.00  0.00     0.083 A 
HETATM    2  S   UNL     1      62.522   7.211   5.613  1.00  0.00    -0.082 SA
HETATM    3  C   UNL     1      64.221   8.996   4.810  1.00  0.00     0.046 A 
HETATM    4  C   UNL     1      64.175   7.091   6.152  1.00  0.00     0.023 A 
HETATM    5  C   UNL     1      64.948   8.099   5.650  1.00  0.00     0.023 A 
HETATM    6  S   UNL     1      66.604   7.985   6.191  1.00  0.00    -0.101 SA
HETATM    7  C   UNL     1      64.904   6.191   6.989  1.00  0.00     0.027 A 
HETATM    8  C   UNL     1      66.222   6.574   7.085  1.00  0.00     0.052 A 
ENDROOT
BRANCH   1   9
HETATM    9  C   UNL     1      61.833   9.274   3.968  1.00  0.00     0.216 C 
HETATM   10  O   UNL     1      61.013   8.780   3.209  1.00  0.00    -0.643 OA
HETATM   11  O   UNL     1      61.810  10.608   4.197  1.00  0.00    -0.643 OA
ENDBRANCH   1   9
TORSDOF 1
ENDMDL
