MODEL 1
REMARK VINA RESULT:      -5.3      0.000      0.000
REMARK  2 active torsions:
REMARK  status: ('A' for Active; 'I' for Inactive)
REMARK    1  A    between atoms: C_1  and  C_3 
REMARK    2  A    between atoms: C_2  and  N_4 
ROOT
HETATM    1  C   UNL     1      62.809   9.038   3.720  1.00  0.00     0.091 A 
HETATM    2  C   UNL     1      63.450   9.012   4.962  1.00  0.00     0.118 A 
HETATM    3  N   UNL     1      63.425  10.096   5.776  1.00  0.00    -0.352 N 
ATOM      4  HN  UNL     1      63.911  10.080   6.673  1.00  0.00     0.166 HD
HETATM    5  C   UNL     1      62.102  10.199   3.350  1.00  0.00     0.021 A 
HETATM    6  C   UNL     1      62.745  11.198   5.384  1.00  0.00     0.089 A 
HETATM    7  C   UNL     1      62.070  11.299   4.189  1.00  0.00     0.018 A 
ENDROOT
BRANCH   2   8
HETATM    8  N   UNL     1      64.189   7.919   5.372  1.00  0.00    -0.363 N 
HETATM    9  C   UNL     1      65.619   8.111   5.662  1.00  0.00     0.152 C 
HETATM   10  C   UNL     1      66.312   6.729   5.517  1.00  0.00     0.252 C 
HETATM   11  N   UNL     1      65.726   5.663   6.370  1.00  0.00    -0.072 N 
HETATM   12  C   UNL     1      64.259   5.613   6.161  1.00  0.00     0.252 C 
HETATM   13  H   UNL     1      66.137   4.763   6.119  1.00  0.00     0.277 HD
HETATM   14  H   UNL     1      65.924   5.865   7.350  1.00  0.00     0.277 HD
HETATM   15  C   UNL     1      63.568   6.990   6.330  1.00  0.00     0.152 C 
ENDBRANCH   2   8
BRANCH   1  16
HETATM   16  C   UNL     1      62.864   7.930   2.705  1.00  0.00     0.421 C 
HETATM   17  F   UNL     1      64.009   7.203   2.618  1.00  0.00    -0.166 F 
HETATM   18  F   UNL     1      61.877   7.010   2.924  1.00  0.00    -0.166 F 
HETATM   19  F   UNL     1      62.644   8.388   1.435  1.00  0.00    -0.166 F 
ENDBRANCH   1  16
TORSDOF 2
ENDMDL
MODEL 2
REMARK VINA RESULT:      -5.1      2.204      3.525
REMARK  2 active torsions:
REMARK  status: ('A' for Active; 'I' for Inactive)
REMARK    1  A    between atoms: C_1  and  C_3 
REMARK    2  A    between atoms: C_2  and  N_4 
ROOT
HETATM    1  C   UNL     1      62.400   9.026   2.422  1.00  0.00     0.091 A 
HETATM    2  C   UNL     1      63.029   7.846   2.828  1.00  0.00     0.118 A 
HETATM    3  N   UNL     1      63.191   6.815   1.962  1.00  0.00    -0.352 N 
ATOM      4  HN  UNL     1      63.632   5.948   2.268  1.00  0.00     0.166 HD
HETATM    5  C   UNL     1      61.974   9.139   1.084  1.00  0.00     0.021 A 
HETATM    6  C   UNL     1      62.761   6.954   0.687  1.00  0.00     0.089 A 
HETATM    7  C   UNL     1      62.153   8.089   0.200  1.00  0.00     0.018 A 
ENDROOT
BRANCH   2   8
HETATM    8  N   UNL     1      63.438   7.656   4.134  1.00  0.00    -0.363 N 
HETATM    9  C   UNL     1      62.575   6.870   5.031  1.00  0.00     0.152 C 
HETATM   10  C   UNL     1      62.918   7.286   6.487  1.00  0.00     0.252 C 
HETATM   11  N   UNL     1      64.351   7.129   6.842  1.00  0.00    -0.072 N 
HETATM   12  C   UNL     1      65.191   7.803   5.823  1.00  0.00     0.252 C 
HETATM   13  H   UNL     1      64.523   7.548   7.757  1.00  0.00     0.277 HD
HETATM   14  H   UNL     1      64.587   6.136   6.875  1.00  0.00     0.277 HD
HETATM   15  C   UNL     1      64.862   7.368   4.372  1.00  0.00     0.152 C 
ENDBRANCH   2   8
BRANCH   1  16
HETATM   16  C   UNL     1      62.081  10.182   3.331  1.00  0.00     0.421 C 
HETATM   17  F   UNL     1      61.886  11.402   2.764  1.00  0.00    -0.166 F 
HETATM   18  F   UNL     1      60.947   9.943   4.055  1.00  0.00    -0.166 F 
HETATM   19  F   UNL     1      63.060  10.383   4.264  1.00  0.00    -0.166 F 
ENDBRANCH   1  16
TORSDOF 2
ENDMDL
MODEL 3
REMARK VINA RESULT:      -4.9      2.249      3.407
REMARK  2 active torsions:
REMARK  status: ('A' for Active; 'I' for Inactive)
REMARK    1  A    between atoms: C_1  and  C_3 
REMARK    2  A    between atoms: C_2  and  N_4 
ROOT
HETATM    1  C   UNL     1      63.334   8.426   3.989  1.00  0.00     0.091 A 
HETATM    2  C   UNL     1      64.308   7.435   4.139  1.00  0.00     0.118 A 
HETATM    3  N   UNL     1      64.448   6.456   3.212  1.00  0.00    -0.352 N 
ATOM      4  HN  UNL     1      65.146   5.723   3.335  1.00  0.00     0.166 HD
HETATM    5  C   UNL     1      62.527   8.410   2.834  1.00  0.00     0.021 A 
HETATM    6  C   UNL     1      63.648   6.465   2.120  1.00  0.00     0.089 A 
HETATM    7  C   UNL     1      62.680   7.414   1.884  1.00  0.00     0.018 A 
ENDROOT
BRANCH   2   8
HETATM    8  N   UNL     1      65.109   7.372   5.263  1.00  0.00    -0.363 N 
HETATM    9  C   UNL     1      65.072   6.149   6.081  1.00  0.00     0.152 C 
HETATM   10  C   UNL     1      65.550   6.531   7.508  1.00  0.00     0.252 C 
HETATM   11  N   UNL     1      66.891   7.168   7.550  1.00  0.00    -0.072 N 
HETATM   12  C   UNL     1      66.932   8.298   6.592  1.00  0.00     0.252 C 
HETATM   13  H   UNL     1      67.075   7.513   8.492  1.00  0.00     0.277 HD
HETATM   14  H   UNL     1      67.602   6.481   7.296  1.00  0.00     0.277 HD
HETATM   15  C   UNL     1      66.477   7.908   5.162  1.00  0.00     0.152 C 
ENDBRANCH   2   8
BRANCH   1  16
HETATM   16  C   UNL     1      63.033   9.492   5.007  1.00  0.00     0.421 C 
HETATM   17  F   UNL     1      64.051  10.300   5.402  1.00  0.00    -0.166 F 
HETATM   18  F   UNL     1      62.060  10.341   4.559  1.00  0.00    -0.166 F 
HETATM   19  F   UNL     1      62.535   8.964   6.166  1.00  0.00    -0.166 F 
ENDBRANCH   1  16
TORSDOF 2
ENDMDL
MODEL 4
REMARK VINA RESULT:      -4.8      2.916      4.133
REMARK  2 active torsions:
REMARK  status: ('A' for Active; 'I' for Inactive)
REMARK    1  A    between atoms: C_1  and  C_3 
REMARK    2  A    between atoms: C_2  and  N_4 
ROOT
HETATM    1  C   UNL     1      65.801   7.358   5.344  1.00  0.00     0.091 A 
HETATM    2  C   UNL     1      65.139   6.651   6.353  1.00  0.00     0.118 A 
HETATM    3  N   UNL     1      63.852   6.938   6.667  1.00  0.00    -0.352 N 
ATOM      4  HN  UNL     1      63.379   6.435   7.418  1.00  0.00     0.166 HD
HETATM    5  C   UNL     1      65.091   8.345   4.634  1.00  0.00     0.021 A 
HETATM    6  C   UNL     1      63.203   7.900   5.971  1.00  0.00     0.089 A 
HETATM    7  C   UNL     1      63.773   8.626   4.950  1.00  0.00     0.018 A 
ENDROOT
BRANCH   2   8
HETATM    8  N   UNL     1      65.787   5.696   7.111  1.00  0.00    -0.363 N 
HETATM    9  C   UNL     1      66.256   6.069   8.456  1.00  0.00     0.152 C 
HETATM   10  C   UNL     1      67.402   5.093   8.835  1.00  0.00     0.252 C 
HETATM   11  N   UNL     1      67.025   3.658   8.774  1.00  0.00    -0.072 N 
HETATM   12  C   UNL     1      66.411   3.363   7.457  1.00  0.00     0.252 C 
HETATM   13  H   UNL     1      67.858   3.082   8.898  1.00  0.00     0.277 HD
HETATM   14  H   UNL     1      66.355   3.451   9.516  1.00  0.00     0.277 HD
HETATM   15  C   UNL     1      65.250   4.325   7.092  1.00  0.00     0.152 C 
ENDBRANCH   2   8
BRANCH   1  16
HETATM   16  C   UNL     1      67.253   7.186   4.991  1.00  0.00     0.421 C 
HETATM   17  F   UNL     1      67.672   5.954   4.601  1.00  0.00    -0.166 F 
HETATM   18  F   UNL     1      67.615   8.023   3.972  1.00  0.00    -0.166 F 
HETATM   19  F   UNL     1      68.075   7.521   6.032  1.00  0.00    -0.166 F 
ENDBRANCH   1  16
TORSDOF 2
ENDMDL
MODEL 5
REMARK VINA RESULT:      -4.8      2.290      3.207
REMARK  2 active torsions:
REMARK  status: ('A' for Active; 'I' for Inactive)
REMARK    1  A    between atoms: C_1  and  C_3 
REMARK    2  A    between atoms: C_2  and  N_4 
ROOT
HETATM    1  C   UNL     1      62.814   9.548   3.863  1.00  0.00     0.091 A 
HETATM    2  C   UNL     1      63.372   8.278   3.694  1.00  0.00     0.118 A 
HETATM    3  N   UNL     1      63.174   7.583   2.547  1.00  0.00    -0.352 N 
ATOM      4  HN  UNL     1      63.566   6.648   2.435  1.00  0.00     0.166 HD
HETATM    5  C   UNL     1      62.075  10.108   2.803  1.00  0.00     0.021 A 
HETATM    6  C   UNL     1      62.450   8.147   1.553  1.00  0.00     0.089 A 
HETATM    7  C   UNL     1      61.885   9.399   1.629  1.00  0.00     0.018 A 
ENDROOT
BRANCH   2   8
HETATM    8  N   UNL     1      64.077   7.657   4.706  1.00  0.00    -0.363 N 
HETATM    9  C   UNL     1      63.659   6.309   5.125  1.00  0.00     0.152 C 
HETATM   10  C   UNL     1      64.171   6.094   6.575  1.00  0.00     0.252 C 
HETATM   11  N   UNL     1      65.636   6.279   6.736  1.00  0.00    -0.072 N 
HETATM   12  C   UNL     1      66.037   7.583   6.157  1.00  0.00     0.252 C 
HETATM   13  H   UNL     1      65.875   6.259   7.728  1.00  0.00     0.277 HD
HETATM   14  H   UNL     1      66.129   5.526   6.254  1.00  0.00     0.277 HD
HETATM   15  C   UNL     1      65.544   7.785   4.700  1.00  0.00     0.152 C 
ENDBRANCH   2   8
BRANCH   1  16
HETATM   16  C   UNL     1      62.889  10.354   5.131  1.00  0.00     0.421 C 
HETATM   17  F   UNL     1      62.202  11.525   5.183  1.00  0.00    -0.166 F 
HETATM   18  F   UNL     1      62.439   9.632   6.202  1.00  0.00    -0.166 F 
HETATM   19  F   UNL     1      64.176  10.689   5.448  1.00  0.00    -0.166 F 
ENDBRANCH   1  16
TORSDOF 2
ENDMDL
MODEL 6
REMARK VINA RESULT:      -4.6      2.444      4.983
REMARK  2 active torsions:
REMARK  status: ('A' for Active; 'I' for Inactive)
REMARK    1  A    between atoms: C_1  and  C_3 
REMARK    2  A    between atoms: C_2  and  N_4 
ROOT
HETATM    1  C   UNL     1      66.661   6.115   5.842  1.00  0.00     0.091 A 
HETATM    2  C   UNL     1      65.608   6.791   6.465  1.00  0.00     0.118 A 
HETATM    3  N   UNL     1      65.614   6.992   7.806  1.00  0.00    -0.352 N 
ATOM      4  HN  UNL     1      64.834   7.468   8.261  1.00  0.00     0.166 HD
HETATM    5  C   UNL     1      67.746   5.682   6.629  1.00  0.00     0.021 A 
HETATM    6  C   UNL     1      66.667   6.554   8.533  1.00  0.00     0.089 A 
HETATM    7  C   UNL     1      67.753   5.900   7.996  1.00  0.00     0.018 A 
ENDROOT
BRANCH   2   8
HETATM    8  N   UNL     1      64.499   7.212   5.759  1.00  0.00    -0.363 N 
HETATM    9  C   UNL     1      63.166   6.841   6.264  1.00  0.00     0.152 C 
HETATM   10  C   UNL     1      62.183   6.896   5.063  1.00  0.00     0.252 C 
HETATM   11  N   UNL     1      62.151   8.205   4.364  1.00  0.00    -0.072 N 
HETATM   12  C   UNL     1      63.532   8.614   4.013  1.00  0.00     0.252 C 
HETATM   13  H   UNL     1      61.594   8.122   3.512  1.00  0.00     0.277 HD
HETATM   14  H   UNL     1      61.732   8.908   4.975  1.00  0.00     0.277 HD
HETATM   15  C   UNL     1      64.506   8.581   5.220  1.00  0.00     0.152 C 
ENDBRANCH   2   8
BRANCH   1  16
HETATM   16  C   UNL     1      66.700   5.753   4.382  1.00  0.00     0.421 C 
HETATM   17  F   UNL     1      67.666   4.894   3.965  1.00  0.00    -0.166 F 
HETATM   18  F   UNL     1      65.523   5.183   3.984  1.00  0.00    -0.166 F 
HETATM   19  F   UNL     1      66.845   6.856   3.586  1.00  0.00    -0.166 F 
ENDBRANCH   1  16
TORSDOF 2
ENDMDL
MODEL 7
REMARK VINA RESULT:      -4.6      3.554      6.227
REMARK  2 active torsions:
REMARK  status: ('A' for Active; 'I' for Inactive)
REMARK    1  A    between atoms: C_1  and  C_3 
REMARK    2  A    between atoms: C_2  and  N_4 
ROOT
HETATM    1  C   UNL     1      66.924   5.480   7.116  1.00  0.00     0.091 A 
HETATM    2  C   UNL     1      66.094   5.492   5.991  1.00  0.00     0.118 A 
HETATM    3  N   UNL     1      66.250   4.574   5.006  1.00  0.00    -0.352 N 
ATOM      4  HN  UNL     1      65.657   4.598   4.177  1.00  0.00     0.166 HD
HETATM    5  C   UNL     1      67.900   4.469   7.224  1.00  0.00     0.021 A 
HETATM    6  C   UNL     1      67.204   3.623   5.138  1.00  0.00     0.089 A 
HETATM    7  C   UNL     1      68.048   3.526   6.221  1.00  0.00     0.018 A 
ENDROOT
BRANCH   2   8
HETATM    8  N   UNL     1      65.142   6.475   5.806  1.00  0.00    -0.363 N 
HETATM    9  C   UNL     1      65.373   7.484   4.759  1.00  0.00     0.152 C 
HETATM   10  C   UNL     1      64.533   8.737   5.129  1.00  0.00     0.252 C 
HETATM   11  N   UNL     1      63.083   8.466   5.307  1.00  0.00    -0.072 N 
HETATM   12  C   UNL     1      62.903   7.336   6.250  1.00  0.00     0.252 C 
HETATM   13  H   UNL     1      62.625   9.297   5.681  1.00  0.00     0.277 HD
HETATM   14  H   UNL     1      62.669   8.227   4.406  1.00  0.00     0.277 HD
HETATM   15  C   UNL     1      63.725   6.078   5.864  1.00  0.00     0.152 C 
ENDBRANCH   2   8
BRANCH   1  16
HETATM   16  C   UNL     1      66.899   6.512   8.209  1.00  0.00     0.421 C 
HETATM   17  F   UNL     1      65.841   6.511   9.061  1.00  0.00    -0.166 F 
HETATM   18  F   UNL     1      68.000   6.407   9.013  1.00  0.00    -0.166 F 
HETATM   19  F   UNL     1      66.946   7.785   7.711  1.00  0.00    -0.166 F 
ENDBRANCH   1  16
TORSDOF 2
ENDMDL
MODEL 8
REMARK VINA RESULT:      -4.5      2.807      4.827
REMARK  2 active torsions:
REMARK  status: ('A' for Active; 'I' for Inactive)
REMARK    1  A    between atoms: C_1  and  C_3 
REMARK    2  A    between atoms: C_2  and  N_4 
ROOT
HETATM    1  C   UNL     1      64.072   8.493   4.580  1.00  0.00     0.091 A 
HETATM    2  C   UNL     1      63.602   7.631   3.585  1.00  0.00     0.118 A 
HETATM    3  N   UNL     1      64.378   6.619   3.125  1.00  0.00    -0.352 N 
ATOM      4  HN  UNL     1      64.041   6.004   2.384  1.00  0.00     0.166 HD
HETATM    5  C   UNL     1      65.352   8.265   5.122  1.00  0.00     0.021 A 
HETATM    6  C   UNL     1      65.607   6.435   3.661  1.00  0.00     0.089 A 
HETATM    7  C   UNL     1      66.136   7.224   4.657  1.00  0.00     0.018 A 
ENDROOT
BRANCH   2   8
HETATM    8  N   UNL     1      62.372   7.818   2.986  1.00  0.00    -0.363 N 
HETATM    9  C   UNL     1      62.328   8.036   1.531  1.00  0.00     0.152 C 
HETATM   10  C   UNL     1      61.001   8.777   1.213  1.00  0.00     0.252 C 
HETATM   11  N   UNL     1      59.783   8.074   1.690  1.00  0.00    -0.072 N 
HETATM   12  C   UNL     1      59.938   7.733   3.124  1.00  0.00     0.252 C 
HETATM   13  H   UNL     1      58.971   8.681   1.570  1.00  0.00     0.277 HD
HETATM   14  H   UNL     1      59.650   7.218   1.149  1.00  0.00     0.277 HD
HETATM   15  C   UNL     1      61.254   6.973   3.435  1.00  0.00     0.152 C 
ENDBRANCH   2   8
BRANCH   1  16
HETATM   16  C   UNL     1      63.331   9.702   5.083  1.00  0.00     0.421 C 
HETATM   17  F   UNL     1      62.641  10.447   4.181  1.00  0.00    -0.166 F 
HETATM   18  F   UNL     1      62.412   9.357   6.034  1.00  0.00    -0.166 F 
HETATM   19  F   UNL     1      64.166  10.590   5.704  1.00  0.00    -0.166 F 
ENDBRANCH   1  16
TORSDOF 2
ENDMDL
MODEL 9
REMARK VINA RESULT:      -4.5      2.806      4.664
REMARK  2 active torsions:
REMARK  status: ('A' for Active; 'I' for Inactive)
REMARK    1  A    between atoms: C_1  and  C_3 
REMARK    2  A    between atoms: C_2  and  N_4 
ROOT
HETATM    1  C   UNL     1      63.150   8.979   4.084  1.00  0.00     0.091 A 
HETATM    2  C   UNL     1      63.113   7.756   3.408  1.00  0.00     0.118 A 
HETATM    3  N   UNL     1      64.087   6.832   3.596  1.00  0.00    -0.352 N 
ATOM      4  HN  UNL     1      64.068   5.950   3.085  1.00  0.00     0.166 HD
HETATM    5  C   UNL     1      64.198   9.215   4.996  1.00  0.00     0.021 A 
HETATM    6  C   UNL     1      65.085   7.097   4.472  1.00  0.00     0.089 A 
HETATM    7  C   UNL     1      65.184   8.264   5.194  1.00  0.00     0.018 A 
ENDROOT
BRANCH   2   8
HETATM    8  N   UNL     1      62.135   7.475   2.475  1.00  0.00    -0.363 N 
HETATM    9  C   UNL     1      62.497   7.506   1.049  1.00  0.00     0.152 C 
HETATM   10  C   UNL     1      61.192   7.745   0.243  1.00  0.00     0.252 C 
HETATM   11  N   UNL     1      60.124   6.747   0.506  1.00  0.00    -0.072 N 
HETATM   12  C   UNL     1      59.902   6.633   1.968  1.00  0.00     0.252 C 
HETATM   13  H   UNL     1      59.259   7.046   0.053  1.00  0.00     0.277 HD
HETATM   14  H   UNL     1      60.406   5.840   0.133  1.00  0.00     0.277 HD
HETATM   15  C   UNL     1      61.205   6.371   2.767  1.00  0.00     0.152 C 
ENDBRANCH   2   8
BRANCH   1  16
HETATM   16  C   UNL     1      62.178  10.106   3.868  1.00  0.00     0.421 C 
HETATM   17  F   UNL     1      62.266  11.188   4.685  1.00  0.00    -0.166 F 
HETATM   18  F   UNL     1      62.279  10.610   2.601  1.00  0.00    -0.166 F 
HETATM   19  F   UNL     1      60.880   9.689   3.979  1.00  0.00    -0.166 F 
ENDBRANCH   1  16
TORSDOF 2
ENDMDL
