MODEL 1
REMARK VINA RESULT:      -4.5      0.000      0.000
REMARK  2 active torsions:
REMARK  status: ('A' for Active; 'I' for Inactive)
REMARK    1  A    between atoms: C_1  and  C_5 
REMARK    2  A    between atoms: C_5  and  O_8 
ROOT
HETATM    1  C   UNL     1      62.841   9.171   4.103  1.00  0.00     0.063 A 
HETATM    2  C   UNL     1      62.243  10.369   3.721  1.00  0.00     0.021 A 
HETATM    3  N   UNL     1      61.800  10.226   2.425  1.00  0.00    -0.363 N 
HETATM    4  C   UNL     1      62.734   8.300   2.973  1.00  0.00     0.044 A 
HETATM    5  C   UNL     1      62.090   8.972   1.958  1.00  0.00     0.006 A 
HETATM    6  C   UNL     1      62.030  11.660   4.431  1.00  0.00     0.069 C 
HETATM    7  C   UNL     1      61.721   8.540   0.589  1.00  0.00     0.068 C 
HETATM    8  H   UNL     1      61.339  10.926   1.909  1.00  0.00     0.165 HD
ENDROOT
BRANCH   1   9
HETATM    9  C   UNL     1      63.455   8.850   5.393  1.00  0.00     0.294 C 
HETATM   10  O   UNL     1      62.875   8.292   6.316  1.00  0.00    -0.259 OA
BRANCH   9  11
HETATM   11  O   UNL     1      64.763   9.251   5.443  1.00  0.00    -0.322 OA
HETATM   12  C   UNL     1      65.712   8.189   5.363  1.00  0.00     0.213 C 
ENDBRANCH   9  11
ENDBRANCH   1   9
TORSDOF 2
ENDMDL
MODEL 2
REMARK VINA RESULT:      -4.2      1.689      2.378
REMARK  2 active torsions:
REMARK  status: ('A' for Active; 'I' for Inactive)
REMARK    1  A    between atoms: C_1  and  C_5 
REMARK    2  A    between atoms: C_5  and  O_8 
ROOT
HETATM    1  C   UNL     1      62.412   8.558   4.699  1.00  0.00     0.063 A 
HETATM    2  C   UNL     1      61.363   8.115   3.897  1.00  0.00     0.021 A 
HETATM    3  N   UNL     1      61.066   9.115   2.998  1.00  0.00    -0.363 N 
HETATM    4  C   UNL     1      62.731   9.874   4.237  1.00  0.00     0.044 A 
HETATM    5  C   UNL     1      61.892  10.190   3.192  1.00  0.00     0.006 A 
HETATM    6  C   UNL     1      60.586   6.846   3.866  1.00  0.00     0.069 C 
HETATM    7  C   UNL     1      61.798  11.411   2.358  1.00  0.00     0.068 C 
HETATM    8  H   UNL     1      60.361   9.063   2.313  1.00  0.00     0.165 HD
ENDROOT
BRANCH   1   9
HETATM    9  C   UNL     1      63.066   7.838   5.793  1.00  0.00     0.294 C 
HETATM   10  O   UNL     1      62.614   7.744   6.928  1.00  0.00    -0.259 OA
BRANCH   9  11
HETATM   11  O   UNL     1      64.249   7.278   5.394  1.00  0.00    -0.322 OA
HETATM   12  C   UNL     1      65.146   6.964   6.458  1.00  0.00     0.213 C 
ENDBRANCH   9  11
ENDBRANCH   1   9
TORSDOF 2
ENDMDL
MODEL 3
REMARK VINA RESULT:      -4.1      2.476      3.854
REMARK  2 active torsions:
REMARK  status: ('A' for Active; 'I' for Inactive)
REMARK    1  A    between atoms: C_1  and  C_5 
REMARK    2  A    between atoms: C_5  and  O_8 
ROOT
HETATM    1  C   UNL     1      62.997   8.944   3.999  1.00  0.00     0.063 A 
HETATM    2  C   UNL     1      63.417   9.760   5.047  1.00  0.00     0.021 A 
HETATM    3  N   UNL     1      64.550   9.198   5.592  1.00  0.00    -0.363 N 
HETATM    4  C   UNL     1      63.935   7.866   3.940  1.00  0.00     0.044 A 
HETATM    5  C   UNL     1      64.877   8.047   4.928  1.00  0.00     0.006 A 
HETATM    6  C   UNL     1      62.880  11.026   5.616  1.00  0.00     0.069 C 
HETATM    7  C   UNL     1      66.060   7.235   5.301  1.00  0.00     0.068 C 
HETATM    8  H   UNL     1      65.053   9.572   6.351  1.00  0.00     0.165 HD
ENDROOT
BRANCH   1   9
HETATM    9  C   UNL     1      61.839   9.138   3.125  1.00  0.00     0.294 C 
HETATM   10  O   UNL     1      60.715   8.712   3.360  1.00  0.00    -0.259 OA
BRANCH   9  11
HETATM   11  O   UNL     1      62.164   9.858   2.007  1.00  0.00    -0.322 OA
HETATM   12  C   UNL     1      61.801  11.237   2.063  1.00  0.00     0.213 C 
ENDBRANCH   9  11
ENDBRANCH   1   9
TORSDOF 2
ENDMDL
MODEL 4
REMARK VINA RESULT:      -3.8      2.618      4.413
REMARK  2 active torsions:
REMARK  status: ('A' for Active; 'I' for Inactive)
REMARK    1  A    between atoms: C_1  and  C_5 
REMARK    2  A    between atoms: C_5  and  O_8 
ROOT
HETATM    1  C   UNL     1      62.975   8.458   4.847  1.00  0.00     0.063 A 
HETATM    2  C   UNL     1      62.858   7.478   5.829  1.00  0.00     0.021 A 
HETATM    3  N   UNL     1      64.104   7.281   6.380  1.00  0.00    -0.363 N 
HETATM    4  C   UNL     1      64.353   8.841   4.835  1.00  0.00     0.044 A 
HETATM    5  C   UNL     1      65.023   8.105   5.786  1.00  0.00     0.006 A 
HETATM    6  C   UNL     1      61.702   6.685   6.328  1.00  0.00     0.069 C 
HETATM    7  C   UNL     1      66.450   8.107   6.188  1.00  0.00     0.068 C 
HETATM    8  H   UNL     1      64.306   6.639   7.099  1.00  0.00     0.165 HD
ENDROOT
BRANCH   1   9
HETATM    9  C   UNL     1      61.914   8.999   3.994  1.00  0.00     0.294 C 
HETATM   10  O   UNL     1      61.271   8.340   3.187  1.00  0.00    -0.259 OA
BRANCH   9  11
HETATM   11  O   UNL     1      61.726  10.338   4.209  1.00  0.00    -0.322 OA
HETATM   12  C   UNL     1      61.866  11.151   3.046  1.00  0.00     0.213 C 
ENDBRANCH   9  11
ENDBRANCH   1   9
TORSDOF 2
ENDMDL
MODEL 5
REMARK VINA RESULT:      -3.8      2.476      3.969
REMARK  2 active torsions:
REMARK  status: ('A' for Active; 'I' for Inactive)
REMARK    1  A    between atoms: C_1  and  C_5 
REMARK    2  A    between atoms: C_5  and  O_8 
ROOT
HETATM    1  C   UNL     1      62.901   9.049   3.978  1.00  0.00     0.063 A 
HETATM    2  C   UNL     1      63.336   9.851   5.030  1.00  0.00     0.021 A 
HETATM    3  N   UNL     1      64.451   9.260   5.580  1.00  0.00    -0.363 N 
HETATM    4  C   UNL     1      63.810   7.947   3.922  1.00  0.00     0.044 A 
HETATM    5  C   UNL     1      64.752   8.102   4.915  1.00  0.00     0.006 A 
HETATM    6  C   UNL     1      62.828  11.130   5.598  1.00  0.00     0.069 C 
HETATM    7  C   UNL     1      65.912   7.259   5.293  1.00  0.00     0.068 C 
HETATM    8  H   UNL     1      64.959   9.620   6.342  1.00  0.00     0.165 HD
ENDROOT
BRANCH   1   9
HETATM    9  C   UNL     1      61.752   9.274   3.098  1.00  0.00     0.294 C 
HETATM   10  O   UNL     1      61.746  10.054   2.153  1.00  0.00    -0.259 OA
BRANCH   9  11
HETATM   11  O   UNL     1      60.681   8.504   3.459  1.00  0.00    -0.322 OA
HETATM   12  C   UNL     1      60.255   7.574   2.464  1.00  0.00     0.213 C 
ENDBRANCH   9  11
ENDBRANCH   1   9
TORSDOF 2
ENDMDL
MODEL 6
REMARK VINA RESULT:      -3.8      1.667      2.258
REMARK  2 active torsions:
REMARK  status: ('A' for Active; 'I' for Inactive)
REMARK    1  A    between atoms: C_1  and  C_5 
REMARK    2  A    between atoms: C_5  and  O_8 
ROOT
HETATM    1  C   UNL     1      62.414   8.341   4.583  1.00  0.00     0.063 A 
HETATM    2  C   UNL     1      62.564   9.720   4.460  1.00  0.00     0.021 A 
HETATM    3  N   UNL     1      62.384  10.050   3.135  1.00  0.00    -0.363 N 
HETATM    4  C   UNL     1      62.136   7.858   3.266  1.00  0.00     0.044 A 
HETATM    5  C   UNL     1      62.121   8.927   2.398  1.00  0.00     0.006 A 
HETATM    6  C   UNL     1      62.860  10.793   5.449  1.00  0.00     0.069 C 
HETATM    7  C   UNL     1      61.880   8.987   0.936  1.00  0.00     0.068 C 
HETATM    8  H   UNL     1      62.437  10.962   2.771  1.00  0.00     0.165 HD
ENDROOT
BRANCH   1   9
HETATM    9  C   UNL     1      62.516   7.536   5.801  1.00  0.00     0.294 C 
HETATM   10  O   UNL     1      63.105   7.888   6.817  1.00  0.00    -0.259 OA
BRANCH   9  11
HETATM   11  O   UNL     1      61.872   6.336   5.670  1.00  0.00    -0.322 OA
HETATM   12  C   UNL     1      60.928   6.053   6.701  1.00  0.00     0.213 C 
ENDBRANCH   9  11
ENDBRANCH   1   9
TORSDOF 2
ENDMDL
MODEL 7
REMARK VINA RESULT:      -3.6      1.441      1.466
REMARK  2 active torsions:
REMARK  status: ('A' for Active; 'I' for Inactive)
REMARK    1  A    between atoms: C_1  and  C_5 
REMARK    2  A    between atoms: C_5  and  O_8 
ROOT
HETATM    1  C   UNL     1      62.339   8.709   4.001  1.00  0.00     0.063 A 
HETATM    2  C   UNL     1      61.738   9.703   3.233  1.00  0.00     0.021 A 
HETATM    3  N   UNL     1      60.798   9.102   2.425  1.00  0.00    -0.363 N 
HETATM    4  C   UNL     1      61.714   7.482   3.615  1.00  0.00     0.044 A 
HETATM    5  C   UNL     1      60.772   7.752   2.648  1.00  0.00     0.006 A 
HETATM    6  C   UNL     1      61.936  11.176   3.158  1.00  0.00     0.069 C 
HETATM    7  C   UNL     1      59.847   6.854   1.916  1.00  0.00     0.068 C 
HETATM    8  H   UNL     1      60.227   9.577   1.779  1.00  0.00     0.165 HD
ENDROOT
BRANCH   1   9
HETATM    9  C   UNL     1      63.394   8.870   5.003  1.00  0.00     0.294 C 
HETATM   10  O   UNL     1      63.312   9.600   5.984  1.00  0.00    -0.259 OA
BRANCH   9  11
HETATM   11  O   UNL     1      64.489   8.103   4.712  1.00  0.00    -0.322 OA
HETATM   12  C   UNL     1      65.593   8.283   5.598  1.00  0.00     0.213 C 
ENDBRANCH   9  11
ENDBRANCH   1   9
TORSDOF 2
ENDMDL
MODEL 8
REMARK VINA RESULT:      -3.6     11.286     12.512
REMARK  2 active torsions:
REMARK  status: ('A' for Active; 'I' for Inactive)
REMARK    1  A    between atoms: C_1  and  C_5 
REMARK    2  A    between atoms: C_5  and  O_8 
ROOT
HETATM    1  C   UNL     1      57.571   2.455  11.987  1.00  0.00     0.063 A 
HETATM    2  C   UNL     1      58.100   1.975  13.182  1.00  0.00     0.021 A 
HETATM    3  N   UNL     1      57.071   1.878  14.092  1.00  0.00    -0.363 N 
HETATM    4  C   UNL     1      56.173   2.642  12.223  1.00  0.00     0.044 A 
HETATM    5  C   UNL     1      55.893   2.279  13.521  1.00  0.00     0.006 A 
HETATM    6  C   UNL     1      59.478   1.587  13.590  1.00  0.00     0.069 C 
HETATM    7  C   UNL     1      54.615   2.273  14.273  1.00  0.00     0.068 C 
HETATM    8  H   UNL     1      57.169   1.565  15.020  1.00  0.00     0.165 HD
ENDROOT
BRANCH   1   9
HETATM    9  C   UNL     1      58.285   2.718  10.736  1.00  0.00     0.294 C 
HETATM   10  O   UNL     1      58.811   1.855  10.044  1.00  0.00    -0.259 OA
BRANCH   9  11
HETATM   11  O   UNL     1      58.293   4.052  10.430  1.00  0.00    -0.322 OA
HETATM   12  C   UNL     1      58.782   4.358   9.125  1.00  0.00     0.213 C 
ENDBRANCH   9  11
ENDBRANCH   1   9
TORSDOF 2
ENDMDL
MODEL 9
REMARK VINA RESULT:      -3.4      2.585      4.621
REMARK  2 active torsions:
REMARK  status: ('A' for Active; 'I' for Inactive)
REMARK    1  A    between atoms: C_1  and  C_5 
REMARK    2  A    between atoms: C_5  and  O_8 
ROOT
HETATM    1  C   UNL     1      64.552   8.136   4.559  1.00  0.00     0.063 A 
HETATM    2  C   UNL     1      64.745   6.984   3.801  1.00  0.00     0.021 A 
HETATM    3  N   UNL     1      65.950   6.430   4.174  1.00  0.00    -0.363 N 
HETATM    4  C   UNL     1      65.699   8.248   5.405  1.00  0.00     0.044 A 
HETATM    5  C   UNL     1      66.540   7.188   5.150  1.00  0.00     0.006 A 
HETATM    6  C   UNL     1      63.927   6.320   2.750  1.00  0.00     0.069 C 
HETATM    7  C   UNL     1      67.849   6.822   5.742  1.00  0.00     0.068 C 
HETATM    8  H   UNL     1      66.332   5.607   3.792  1.00  0.00     0.165 HD
ENDROOT
BRANCH   1   9
HETATM    9  C   UNL     1      63.413   9.055   4.512  1.00  0.00     0.294 C 
HETATM   10  O   UNL     1      62.722   9.253   3.519  1.00  0.00    -0.259 OA
BRANCH   9  11
HETATM   11  O   UNL     1      63.210   9.670   5.718  1.00  0.00    -0.322 OA
HETATM   12  C   UNL     1      62.914  11.063   5.632  1.00  0.00     0.213 C 
ENDBRANCH   9  11
ENDBRANCH   1   9
TORSDOF 2
ENDMDL
