MODEL 1
REMARK VINA RESULT:      -5.2      0.000      0.000
REMARK  3 active torsions:
REMARK  status: ('A' for Active; 'I' for Inactive)
REMARK    1  A    between atoms: C_1  and  C_6 
REMARK    2  A    between atoms: N_2  and  C_7 
REMARK    3  A    between atoms: C_7  and  C_8 
ROOT
HETATM    1  C   UNL     1      62.111  10.031   3.592  1.00  0.00     0.065 A 
HETATM    2  N   UNL     1      62.703   8.272   4.875  1.00  0.00    -0.349 N 
HETATM    3  C   UNL     1      62.781   9.659   4.755  1.00  0.00     0.025 A 
HETATM    4  C   UNL     1      61.639   8.829   3.001  1.00  0.00     0.045 A 
HETATM    5  C   UNL     1      62.029   7.763   3.780  1.00  0.00     0.009 A 
HETATM    6  C   UNL     1      63.492  10.510   5.758  1.00  0.00     0.069 C 
HETATM    7  C   UNL     1      61.777   6.323   3.502  1.00  0.00     0.068 C 
ENDROOT
BRANCH   2   8
HETATM    8  C   UNL     1      63.332   7.487   5.948  1.00  0.00     0.174 C 
BRANCH   8   9
HETATM    9  C   UNL     1      64.788   7.189   5.715  1.00  0.00     0.001 A 
HETATM   10  S   UNL     1      65.738   6.625   7.038  1.00  0.00    -0.105 SA
HETATM   11  C   UNL     1      67.183   6.713   6.129  1.00  0.00     0.050 A 
HETATM   12  C   UNL     1      66.937   7.022   4.811  1.00  0.00     0.008 A 
HETATM   13  C   UNL     1      65.558   7.272   4.566  1.00  0.00     0.017 A 
ENDBRANCH   8   9
ENDBRANCH   2   8
BRANCH   1  14
HETATM   14  C   UNL     1      61.927  11.369   3.047  1.00  0.00     0.211 C 
HETATM   15  O   UNL     1      61.958  11.678   1.862  1.00  0.00    -0.644 OA
HETATM   16  O   UNL     1      61.698  12.319   3.978  1.00  0.00    -0.644 OA
ENDBRANCH   1  14
TORSDOF 3
ENDMDL
MODEL 2
REMARK VINA RESULT:      -5.2      1.922      2.315
REMARK  3 active torsions:
REMARK  status: ('A' for Active; 'I' for Inactive)
REMARK    1  A    between atoms: C_1  and  C_6 
REMARK    2  A    between atoms: N_2  and  C_7 
REMARK    3  A    between atoms: C_7  and  C_8 
ROOT
HETATM    1  C   UNL     1      62.177   9.912   2.766  1.00  0.00     0.065 A 
HETATM    2  N   UNL     1      62.679   7.721   2.966  1.00  0.00    -0.349 N 
HETATM    3  C   UNL     1      62.546   8.918   3.669  1.00  0.00     0.025 A 
HETATM    4  C   UNL     1      62.105   9.287   1.492  1.00  0.00     0.045 A 
HETATM    5  C   UNL     1      62.438   7.958   1.624  1.00  0.00     0.009 A 
HETATM    6  C   UNL     1      62.788   9.011   5.141  1.00  0.00     0.069 C 
HETATM    7  C   UNL     1      62.527   6.953   0.531  1.00  0.00     0.068 C 
ENDROOT
BRANCH   2   8
HETATM    8  C   UNL     1      63.106   6.444   3.557  1.00  0.00     0.174 C 
BRANCH   8   9
HETATM    9  C   UNL     1      64.591   6.211   3.504  1.00  0.00     0.001 A 
HETATM   10  S   UNL     1      65.187   4.881   2.584  1.00  0.00    -0.105 SA
HETATM   11  C   UNL     1      66.787   5.126   3.137  1.00  0.00     0.050 A 
HETATM   12  C   UNL     1      66.896   6.275   3.885  1.00  0.00     0.008 A 
HETATM   13  C   UNL     1      65.640   6.913   4.077  1.00  0.00     0.017 A 
ENDBRANCH   8   9
ENDBRANCH   2   8
BRANCH   1  14
HETATM   14  C   UNL     1      61.926  11.321   3.031  1.00  0.00     0.211 C 
HETATM   15  O   UNL     1      61.786  11.837   4.133  1.00  0.00    -0.644 OA
HETATM   16  O   UNL     1      61.857  12.089   1.923  1.00  0.00    -0.644 OA
ENDBRANCH   1  14
TORSDOF 3
ENDMDL
MODEL 3
REMARK VINA RESULT:      -5.1      3.610      5.723
REMARK  3 active torsions:
REMARK  status: ('A' for Active; 'I' for Inactive)
REMARK    1  A    between atoms: C_1  and  C_6 
REMARK    2  A    between atoms: N_2  and  C_7 
REMARK    3  A    between atoms: C_7  and  C_8 
ROOT
HETATM    1  C   UNL     1      64.091   8.697   5.024  1.00  0.00     0.065 A 
HETATM    2  N   UNL     1      62.765   8.874   3.207  1.00  0.00    -0.349 N 
HETATM    3  C   UNL     1      63.680   8.051   3.862  1.00  0.00     0.025 A 
HETATM    4  C   UNL     1      63.411   9.945   5.049  1.00  0.00     0.045 A 
HETATM    5  C   UNL     1      62.626  10.051   3.923  1.00  0.00     0.009 A 
HETATM    6  C   UNL     1      64.087   6.719   3.318  1.00  0.00     0.069 C 
HETATM    7  C   UNL     1      61.782  11.213   3.537  1.00  0.00     0.068 C 
ENDROOT
BRANCH   2   8
HETATM    8  C   UNL     1      62.136   8.569   1.914  1.00  0.00     0.174 C 
BRANCH   8   9
HETATM    9  C   UNL     1      60.730   8.046   2.025  1.00  0.00     0.001 A 
HETATM   10  S   UNL     1      59.759   7.977   0.603  1.00  0.00    -0.105 SA
HETATM   11  C   UNL     1      58.368   7.527   1.490  1.00  0.00     0.050 A 
HETATM   12  C   UNL     1      58.663   7.292   2.813  1.00  0.00     0.008 A 
HETATM   13  C   UNL     1      60.025   7.566   3.117  1.00  0.00     0.017 A 
ENDBRANCH   8   9
ENDBRANCH   2   8
BRANCH   1  14
HETATM   14  C   UNL     1      65.038   8.232   6.027  1.00  0.00     0.211 C 
HETATM   15  O   UNL     1      66.166   8.671   6.217  1.00  0.00    -0.644 OA
HETATM   16  O   UNL     1      64.577   7.225   6.799  1.00  0.00    -0.644 OA
ENDBRANCH   1  14
TORSDOF 3
ENDMDL
MODEL 4
REMARK VINA RESULT:      -5.1      1.651      2.738
REMARK  3 active torsions:
REMARK  status: ('A' for Active; 'I' for Inactive)
REMARK    1  A    between atoms: C_1  and  C_6 
REMARK    2  A    between atoms: N_2  and  C_7 
REMARK    3  A    between atoms: C_7  and  C_8 
ROOT
HETATM    1  C   UNL     1      61.888   8.951   2.507  1.00  0.00     0.065 A 
HETATM    2  N   UNL     1      62.707   8.601   4.580  1.00  0.00    -0.349 N 
HETATM    3  C   UNL     1      62.290   7.970   3.409  1.00  0.00     0.025 A 
HETATM    4  C   UNL     1      62.058  10.196   3.169  1.00  0.00     0.045 A 
HETATM    5  C   UNL     1      62.533   9.967   4.441  1.00  0.00     0.009 A 
HETATM    6  C   UNL     1      62.306   6.483   3.254  1.00  0.00     0.069 C 
HETATM    7  C   UNL     1      62.811  10.994   5.481  1.00  0.00     0.068 C 
ENDROOT
BRANCH   2   8
HETATM    8  C   UNL     1      63.159   7.905   5.794  1.00  0.00     0.174 C 
BRANCH   8   9
HETATM    9  C   UNL     1      64.637   7.624   5.823  1.00  0.00     0.001 A 
HETATM   10  S   UNL     1      65.242   6.503   6.984  1.00  0.00    -0.105 SA
HETATM   11  C   UNL     1      66.866   6.850   6.575  1.00  0.00     0.050 A 
HETATM   12  C   UNL     1      66.949   7.686   5.486  1.00  0.00     0.008 A 
HETATM   13  C   UNL     1      65.668   8.113   5.037  1.00  0.00     0.017 A 
ENDBRANCH   8   9
ENDBRANCH   2   8
BRANCH   1  14
HETATM   14  C   UNL     1      61.374   8.776   1.156  1.00  0.00     0.211 C 
HETATM   15  O   UNL     1      60.195   8.666   0.839  1.00  0.00    -0.644 OA
HETATM   16  O   UNL     1      62.326   8.747   0.200  1.00  0.00    -0.644 OA
ENDBRANCH   1  14
TORSDOF 3
ENDMDL
MODEL 5
REMARK VINA RESULT:      -4.9      3.215      5.316
REMARK  3 active torsions:
REMARK  status: ('A' for Active; 'I' for Inactive)
REMARK    1  A    between atoms: C_1  and  C_6 
REMARK    2  A    between atoms: N_2  and  C_7 
REMARK    3  A    between atoms: C_7  and  C_8 
ROOT
HETATM    1  C   UNL     1      62.808   9.157   4.497  1.00  0.00     0.065 A 
HETATM    2  N   UNL     1      61.395   7.652   3.586  1.00  0.00    -0.349 N 
HETATM    3  C   UNL     1      62.174   7.935   4.707  1.00  0.00     0.025 A 
HETATM    4  C   UNL     1      62.404   9.600   3.209  1.00  0.00     0.045 A 
HETATM    5  C   UNL     1      61.563   8.661   2.655  1.00  0.00     0.009 A 
HETATM    6  C   UNL     1      62.250   7.013   5.881  1.00  0.00     0.069 C 
HETATM    7  C   UNL     1      60.945   8.713   1.302  1.00  0.00     0.068 C 
ENDROOT
BRANCH   2   8
HETATM    8  C   UNL     1      60.608   6.424   3.400  1.00  0.00     0.174 C 
BRANCH   8   9
HETATM    9  C   UNL     1      59.172   6.545   3.834  1.00  0.00     0.001 A 
HETATM   10  S   UNL     1      58.672   5.740   5.273  1.00  0.00    -0.105 SA
HETATM   11  C   UNL     1      57.029   6.133   5.006  1.00  0.00     0.050 A 
HETATM   12  C   UNL     1      56.878   6.978   3.931  1.00  0.00     0.008 A 
HETATM   13  C   UNL     1      58.111   7.235   3.270  1.00  0.00     0.017 A 
ENDBRANCH   8   9
ENDBRANCH   2   8
BRANCH   1  14
HETATM   14  C   UNL     1      63.722   9.862   5.384  1.00  0.00     0.211 C 
HETATM   15  O   UNL     1      64.866   9.525   5.661  1.00  0.00    -0.644 OA
HETATM   16  O   UNL     1      63.213  10.991   5.920  1.00  0.00    -0.644 OA
ENDBRANCH   1  14
TORSDOF 3
ENDMDL
MODEL 6
REMARK VINA RESULT:      -4.8      2.706      4.406
REMARK  3 active torsions:
REMARK  status: ('A' for Active; 'I' for Inactive)
REMARK    1  A    between atoms: C_1  and  C_6 
REMARK    2  A    between atoms: N_2  and  C_7 
REMARK    3  A    between atoms: C_7  and  C_8 
ROOT
HETATM    1  C   UNL     1      62.305   9.713   3.993  1.00  0.00     0.065 A 
HETATM    2  N   UNL     1      62.143   7.514   4.470  1.00  0.00    -0.349 N 
HETATM    3  C   UNL     1      61.567   8.558   3.747  1.00  0.00     0.025 A 
HETATM    4  C   UNL     1      63.335   9.344   4.898  1.00  0.00     0.045 A 
HETATM    5  C   UNL     1      63.209   8.007   5.200  1.00  0.00     0.009 A 
HETATM    6  C   UNL     1      60.359   8.365   2.888  1.00  0.00     0.069 C 
HETATM    7  C   UNL     1      64.059   7.227   6.140  1.00  0.00     0.068 C 
ENDROOT
BRANCH   2   8
HETATM    8  C   UNL     1      61.624   6.139   4.515  1.00  0.00     0.174 C 
BRANCH   8   9
HETATM    9  C   UNL     1      60.619   5.900   5.609  1.00  0.00     0.001 A 
HETATM   10  S   UNL     1      58.962   5.693   5.180  1.00  0.00    -0.105 SA
HETATM   11  C   UNL     1      58.467   5.688   6.816  1.00  0.00     0.050 A 
HETATM   12  C   UNL     1      59.543   5.695   7.673  1.00  0.00     0.008 A 
HETATM   13  C   UNL     1      60.781   5.792   6.981  1.00  0.00     0.017 A 
ENDBRANCH   8   9
ENDBRANCH   2   8
BRANCH   1  14
HETATM   14  C   UNL     1      62.085  11.052   3.464  1.00  0.00     0.211 C 
HETATM   15  O   UNL     1      61.897  12.068   4.122  1.00  0.00    -0.644 OA
HETATM   16  O   UNL     1      62.107  11.126   2.117  1.00  0.00    -0.644 OA
ENDBRANCH   1  14
TORSDOF 3
ENDMDL
MODEL 7
REMARK VINA RESULT:      -4.6      4.930      6.359
REMARK  3 active torsions:
REMARK  status: ('A' for Active; 'I' for Inactive)
REMARK    1  A    between atoms: C_1  and  C_6 
REMARK    2  A    between atoms: N_2  and  C_7 
REMARK    3  A    between atoms: C_7  and  C_8 
ROOT
HETATM    1  C   UNL     1      58.617   6.140   7.345  1.00  0.00     0.065 A 
HETATM    2  N   UNL     1      59.184   6.052   5.163  1.00  0.00    -0.349 N 
HETATM    3  C   UNL     1      59.646   5.832   6.460  1.00  0.00     0.025 A 
HETATM    4  C   UNL     1      57.521   6.569   6.549  1.00  0.00     0.045 A 
HETATM    5  C   UNL     1      57.889   6.535   5.223  1.00  0.00     0.009 A 
HETATM    6  C   UNL     1      61.033   5.351   6.743  1.00  0.00     0.069 C 
HETATM    7  C   UNL     1      57.054   6.941   4.061  1.00  0.00     0.068 C 
ENDROOT
BRANCH   2   8
HETATM    8  C   UNL     1      59.992   5.888   3.945  1.00  0.00     0.174 C 
BRANCH   8   9
HETATM    9  C   UNL     1      60.656   7.154   3.476  1.00  0.00     0.001 A 
HETATM   10  S   UNL     1      60.285   7.748   1.901  1.00  0.00    -0.105 SA
HETATM   11  C   UNL     1      61.475   8.971   2.006  1.00  0.00     0.050 A 
HETATM   12  C   UNL     1      62.041   9.023   3.259  1.00  0.00     0.008 A 
HETATM   13  C   UNL     1      61.554   7.995   4.112  1.00  0.00     0.017 A 
ENDBRANCH   8   9
ENDBRANCH   2   8
BRANCH   1  14
HETATM   14  C   UNL     1      58.627   6.070   8.799  1.00  0.00     0.211 C 
HETATM   15  O   UNL     1      58.830   5.068   9.474  1.00  0.00    -0.644 OA
HETATM   16  O   UNL     1      58.393   7.249   9.412  1.00  0.00    -0.644 OA
ENDBRANCH   1  14
TORSDOF 3
ENDMDL
MODEL 8
REMARK VINA RESULT:      -4.4      3.664      5.277
REMARK  3 active torsions:
REMARK  status: ('A' for Active; 'I' for Inactive)
REMARK    1  A    between atoms: C_1  and  C_6 
REMARK    2  A    between atoms: N_2  and  C_7 
REMARK    3  A    between atoms: C_7  and  C_8 
ROOT
HETATM    1  C   UNL     1      64.721   7.924   5.252  1.00  0.00     0.065 A 
HETATM    2  N   UNL     1      62.714   7.061   4.687  1.00  0.00    -0.349 N 
HETATM    3  C   UNL     1      63.975   6.750   5.193  1.00  0.00     0.025 A 
HETATM    4  C   UNL     1      63.882   8.955   4.750  1.00  0.00     0.045 A 
HETATM    5  C   UNL     1      62.671   8.411   4.386  1.00  0.00     0.009 A 
HETATM    6  C   UNL     1      64.362   5.357   5.574  1.00  0.00     0.069 C 
HETATM    7  C   UNL     1      61.521   9.134   3.778  1.00  0.00     0.068 C 
ENDROOT
BRANCH   2   8
HETATM    8  C   UNL     1      61.649   6.081   4.426  1.00  0.00     0.174 C 
BRANCH   8   9
HETATM    9  C   UNL     1      60.651   5.949   5.545  1.00  0.00     0.001 A 
HETATM   10  S   UNL     1      58.972   6.042   5.169  1.00  0.00    -0.105 SA
HETATM   11  C   UNL     1      58.531   6.025   6.821  1.00  0.00     0.050 A 
HETATM   12  C   UNL     1      59.618   5.808   7.636  1.00  0.00     0.008 A 
HETATM   13  C   UNL     1      60.835   5.740   6.902  1.00  0.00     0.017 A 
ENDBRANCH   8   9
ENDBRANCH   2   8
BRANCH   1  14
HETATM   14  C   UNL     1      66.092   8.099   5.708  1.00  0.00     0.211 C 
HETATM   15  O   UNL     1      67.072   8.296   4.999  1.00  0.00    -0.644 OA
HETATM   16  O   UNL     1      66.242   8.035   7.048  1.00  0.00    -0.644 OA
ENDBRANCH   1  14
TORSDOF 3
ENDMDL
MODEL 9
REMARK VINA RESULT:      -4.3      4.120      5.945
REMARK  3 active torsions:
REMARK  status: ('A' for Active; 'I' for Inactive)
REMARK    1  A    between atoms: C_1  and  C_6 
REMARK    2  A    between atoms: N_2  and  C_7 
REMARK    3  A    between atoms: C_7  and  C_8 
ROOT
HETATM    1  C   UNL     1      63.921   5.183   6.264  1.00  0.00     0.065 A 
HETATM    2  N   UNL     1      63.661   7.370   5.778  1.00  0.00    -0.349 N 
HETATM    3  C   UNL     1      62.984   6.203   6.128  1.00  0.00     0.025 A 
HETATM    4  C   UNL     1      65.186   5.761   5.970  1.00  0.00     0.045 A 
HETATM    5  C   UNL     1      65.009   7.088   5.651  1.00  0.00     0.009 A 
HETATM    6  C   UNL     1      61.499   6.160   6.298  1.00  0.00     0.069 C 
HETATM    7  C   UNL     1      66.068   8.050   5.242  1.00  0.00     0.068 C 
ENDROOT
BRANCH   2   8
HETATM    8  C   UNL     1      63.015   8.661   5.494  1.00  0.00     0.174 C 
BRANCH   8   9
HETATM    9  C   UNL     1      62.725   8.892   4.036  1.00  0.00     0.001 A 
HETATM   10  S   UNL     1      62.007  10.386   3.563  1.00  0.00    -0.105 SA
HETATM   11  C   UNL     1      61.808   9.859   1.948  1.00  0.00     0.050 A 
HETATM   12  C   UNL     1      62.403   8.637   1.735  1.00  0.00     0.008 A 
HETATM   13  C   UNL     1      62.952   8.091   2.928  1.00  0.00     0.017 A 
ENDBRANCH   8   9
ENDBRANCH   2   8
BRANCH   1  14
HETATM   14  C   UNL     1      63.692   3.789   6.615  1.00  0.00     0.211 C 
HETATM   15  O   UNL     1      63.877   3.279   7.714  1.00  0.00    -0.644 OA
HETATM   16  O   UNL     1      63.225   3.032   5.600  1.00  0.00    -0.644 OA
ENDBRANCH   1  14
TORSDOF 3
ENDMDL
