MODEL 1
REMARK VINA RESULT:      -3.9      0.000      0.000
REMARK  2 active torsions:
REMARK  status: ('A' for Active; 'I' for Inactive)
REMARK    1  A    between atoms: C_1  and  C_7 
REMARK    2  A    between atoms: N_6  and  C_7 
ROOT
HETATM    1  C   UNL     1      62.364  10.333   4.002  1.00  0.00     0.013 A 
HETATM    2  C   UNL     1      62.034  10.521   2.665  1.00  0.00    -0.047 A 
HETATM    3  S   UNL     1      62.679   8.680   4.352  1.00  0.00    -0.104 SA
HETATM    4  C   UNL     1      62.380   8.208   2.743  1.00  0.00     0.051 A 
HETATM    5  C   UNL     1      62.049   9.278   1.948  1.00  0.00     0.015 A 
HETATM    6  C   UNL     1      61.707  11.827   2.012  1.00  0.00     0.049 C 
ENDROOT
BRANCH   1   7
HETATM    7  C   UNL     1      62.459  11.339   5.114  1.00  0.00     0.276 C 
BRANCH   7   8
HETATM    8  N   UNL     1      63.631  11.089   5.948  1.00  0.00    -0.075 N 
HETATM    9  H   UNL     1      63.517  11.560   6.845  1.00  0.00     0.274 HD
HETATM   10  H   UNL     1      64.464  11.445   5.479  1.00  0.00     0.274 HD
HETATM   11  H   UNL     1      63.730  10.085   6.102  1.00  0.00     0.274 HD
ENDBRANCH   7   8
ENDBRANCH   1   7
TORSDOF 2
ENDMDL
MODEL 2
REMARK VINA RESULT:      -3.5      2.457      3.270
REMARK  2 active torsions:
REMARK  status: ('A' for Active; 'I' for Inactive)
REMARK    1  A    between atoms: C_1  and  C_7 
REMARK    2  A    between atoms: N_6  and  C_7 
ROOT
HETATM    1  C   UNL     1      61.765   9.325   2.457  1.00  0.00     0.013 A 
HETATM    2  C   UNL     1      61.938  10.645   2.858  1.00  0.00    -0.047 A 
HETATM    3  S   UNL     1      62.147   8.222   3.719  1.00  0.00    -0.104 SA
HETATM    4  C   UNL     1      62.543   9.481   4.796  1.00  0.00     0.051 A 
HETATM    5  C   UNL     1      62.389  10.718   4.218  1.00  0.00     0.015 A 
HETATM    6  C   UNL     1      61.694  11.860   2.021  1.00  0.00     0.049 C 
ENDROOT
BRANCH   1   7
HETATM    7  C   UNL     1      61.324   8.779   1.129  1.00  0.00     0.276 C 
BRANCH   7   8
HETATM    8  N   UNL     1      59.877   8.594   1.092  1.00  0.00    -0.075 N 
HETATM    9  H   UNL     1      59.657   7.605   1.206  1.00  0.00     0.274 HD
HETATM   10  H   UNL     1      59.514   8.923   0.196  1.00  0.00     0.274 HD
HETATM   11  H   UNL     1      59.447   9.127   1.849  1.00  0.00     0.274 HD
ENDBRANCH   7   8
ENDBRANCH   1   7
TORSDOF 2
ENDMDL
MODEL 3
REMARK VINA RESULT:      -3.4      1.501      1.852
REMARK  2 active torsions:
REMARK  status: ('A' for Active; 'I' for Inactive)
REMARK    1  A    between atoms: C_1  and  C_7 
REMARK    2  A    between atoms: N_6  and  C_7 
ROOT
HETATM    1  C   UNL     1      62.597   9.091   3.674  1.00  0.00     0.013 A 
HETATM    2  C   UNL     1      62.145  10.334   3.247  1.00  0.00    -0.047 A 
HETATM    3  S   UNL     1      62.682   7.965   2.377  1.00  0.00    -0.104 SA
HETATM    4  C   UNL     1      62.122   9.113   1.250  1.00  0.00     0.051 A 
HETATM    5  C   UNL     1      61.875  10.330   1.838  1.00  0.00     0.015 A 
HETATM    6  C   UNL     1      61.957  11.546   4.103  1.00  0.00     0.049 C 
ENDROOT
BRANCH   1   7
HETATM    7  C   UNL     1      62.984   8.635   5.053  1.00  0.00     0.276 C 
BRANCH   7   8
HETATM    8  N   UNL     1      64.308   9.130   5.416  1.00  0.00    -0.075 N 
HETATM    9  H   UNL     1      64.651   8.618   6.228  1.00  0.00     0.274 HD
HETATM   10  H   UNL     1      64.251  10.124   5.639  1.00  0.00     0.274 HD
HETATM   11  H   UNL     1      64.948   8.993   4.633  1.00  0.00     0.274 HD
ENDBRANCH   7   8
ENDBRANCH   1   7
TORSDOF 2
ENDMDL
MODEL 4
REMARK VINA RESULT:      -3.4      1.551      2.516
REMARK  2 active torsions:
REMARK  status: ('A' for Active; 'I' for Inactive)
REMARK    1  A    between atoms: C_1  and  C_7 
REMARK    2  A    between atoms: N_6  and  C_7 
ROOT
HETATM    1  C   UNL     1      62.482   9.425   3.773  1.00  0.00     0.013 A 
HETATM    2  C   UNL     1      62.408   8.945   2.471  1.00  0.00    -0.047 A 
HETATM    3  S   UNL     1      62.044  11.085   3.864  1.00  0.00    -0.104 SA
HETATM    4  C   UNL     1      61.757  11.175   2.188  1.00  0.00     0.051 A 
HETATM    5  C   UNL     1      61.985   9.973   1.563  1.00  0.00     0.015 A 
HETATM    6  C   UNL     1      62.711   7.550   2.026  1.00  0.00     0.049 C 
ENDROOT
BRANCH   1   7
HETATM    7  C   UNL     1      62.889   8.714   5.033  1.00  0.00     0.276 C 
BRANCH   7   8
HETATM    8  N   UNL     1      64.191   9.180   5.500  1.00  0.00    -0.075 N 
HETATM    9  H   UNL     1      64.697   9.608   4.725  1.00  0.00     0.274 HD
HETATM   10  H   UNL     1      64.726   8.389   5.860  1.00  0.00     0.274 HD
HETATM   11  H   UNL     1      64.060   9.867   6.242  1.00  0.00     0.274 HD
ENDBRANCH   7   8
ENDBRANCH   1   7
TORSDOF 2
ENDMDL
MODEL 5
REMARK VINA RESULT:      -3.4      1.345      1.786
REMARK  2 active torsions:
REMARK  status: ('A' for Active; 'I' for Inactive)
REMARK    1  A    between atoms: C_1  and  C_7 
REMARK    2  A    between atoms: N_6  and  C_7 
ROOT
HETATM    1  C   UNL     1      63.166   9.590   4.516  1.00  0.00     0.013 A 
HETATM    2  C   UNL     1      62.752   9.009   3.323  1.00  0.00    -0.047 A 
HETATM    3  S   UNL     1      64.321   8.613   5.331  1.00  0.00    -0.104 SA
HETATM    4  C   UNL     1      64.279   7.422   4.116  1.00  0.00     0.051 A 
HETATM    5  C   UNL     1      63.408   7.752   3.105  1.00  0.00     0.015 A 
HETATM    6  C   UNL     1      61.764   9.583   2.358  1.00  0.00     0.049 C 
ENDROOT
BRANCH   1   7
HETATM    7  C   UNL     1      62.739  10.885   5.147  1.00  0.00     0.276 C 
BRANCH   7   8
HETATM    8  N   UNL     1      63.716  11.333   6.136  1.00  0.00    -0.075 N 
HETATM    9  H   UNL     1      64.092  10.526   6.632  1.00  0.00     0.274 HD
HETATM   10  H   UNL     1      63.264  11.962   6.800  1.00  0.00     0.274 HD
HETATM   11  H   UNL     1      64.475  11.825   5.664  1.00  0.00     0.274 HD
ENDBRANCH   7   8
ENDBRANCH   1   7
TORSDOF 2
ENDMDL
MODEL 6
REMARK VINA RESULT:      -3.2      2.189      2.951
REMARK  2 active torsions:
REMARK  status: ('A' for Active; 'I' for Inactive)
REMARK    1  A    between atoms: C_1  and  C_7 
REMARK    2  A    between atoms: N_6  and  C_7 
ROOT
HETATM    1  C   UNL     1      62.519   9.251   3.347  1.00  0.00     0.013 A 
HETATM    2  C   UNL     1      63.528   8.483   3.915  1.00  0.00    -0.047 A 
HETATM    3  S   UNL     1      61.835   8.484   1.970  1.00  0.00    -0.104 SA
HETATM    4  C   UNL     1      62.867   7.137   2.118  1.00  0.00     0.051 A 
HETATM    5  C   UNL     1      63.717   7.259   3.191  1.00  0.00     0.015 A 
HETATM    6  C   UNL     1      64.333   8.839   5.125  1.00  0.00     0.049 C 
ENDROOT
BRANCH   1   7
HETATM    7  C   UNL     1      61.996  10.599   3.758  1.00  0.00     0.276 C 
BRANCH   7   8
HETATM    8  N   UNL     1      61.626  11.395   2.592  1.00  0.00    -0.075 N 
HETATM    9  H   UNL     1      62.467  11.667   2.085  1.00  0.00     0.274 HD
HETATM   10  H   UNL     1      61.126  12.232   2.896  1.00  0.00     0.274 HD
HETATM   11  H   UNL     1      61.024  10.843   1.981  1.00  0.00     0.274 HD
ENDBRANCH   7   8
ENDBRANCH   1   7
TORSDOF 2
ENDMDL
MODEL 7
REMARK VINA RESULT:      -3.0     13.051     13.723
REMARK  2 active torsions:
REMARK  status: ('A' for Active; 'I' for Inactive)
REMARK    1  A    between atoms: C_1  and  C_7 
REMARK    2  A    between atoms: N_6  and  C_7 
ROOT
HETATM    1  C   UNL     1      56.497   1.952  12.974  1.00  0.00     0.013 A 
HETATM    2  C   UNL     1      57.876   1.971  13.150  1.00  0.00    -0.047 A 
HETATM    3  S   UNL     1      56.057   2.352  11.361  1.00  0.00    -0.104 SA
HETATM    4  C   UNL     1      57.682   2.553  10.891  1.00  0.00     0.051 A 
HETATM    5  C   UNL     1      58.548   2.321  11.932  1.00  0.00     0.015 A 
HETATM    6  C   UNL     1      58.607   1.668  14.419  1.00  0.00     0.049 C 
ENDROOT
BRANCH   1   7
HETATM    7  C   UNL     1      55.410   1.655  13.967  1.00  0.00     0.276 C 
BRANCH   7   8
HETATM    8  N   UNL     1      55.083   2.839  14.756  1.00  0.00    -0.075 N 
HETATM    9  H   UNL     1      54.113   2.787  15.063  1.00  0.00     0.274 HD
HETATM   10  H   UNL     1      55.216   3.675  14.186  1.00  0.00     0.274 HD
HETATM   11  H   UNL     1      55.695   2.883  15.572  1.00  0.00     0.274 HD
ENDBRANCH   7   8
ENDBRANCH   1   7
TORSDOF 2
ENDMDL
MODEL 8
REMARK VINA RESULT:      -2.9      2.616      3.837
REMARK  2 active torsions:
REMARK  status: ('A' for Active; 'I' for Inactive)
REMARK    1  A    between atoms: C_1  and  C_7 
REMARK    2  A    between atoms: N_6  and  C_7 
ROOT
HETATM    1  C   UNL     1      62.339   9.041   3.067  1.00  0.00     0.013 A 
HETATM    2  C   UNL     1      63.333   8.293   3.687  1.00  0.00    -0.047 A 
HETATM    3  S   UNL     1      61.995  10.484   3.935  1.00  0.00    -0.104 SA
HETATM    4  C   UNL     1      63.153  10.126   5.131  1.00  0.00     0.051 A 
HETATM    5  C   UNL     1      63.795   8.936   4.883  1.00  0.00     0.015 A 
HETATM    6  C   UNL     1      63.886   6.989   3.206  1.00  0.00     0.049 C 
ENDROOT
BRANCH   1   7
HETATM    7  C   UNL     1      61.566   8.751   1.811  1.00  0.00     0.276 C 
BRANCH   7   8
HETATM    8  N   UNL     1      62.338   9.110   0.626  1.00  0.00    -0.075 N 
HETATM    9  H   UNL     1      62.307   8.343  -0.046  1.00  0.00     0.274 HD
HETATM   10  H   UNL     1      63.306   9.291   0.892  1.00  0.00     0.274 HD
HETATM   11  H   UNL     1      61.940   9.949   0.203  1.00  0.00     0.274 HD
ENDBRANCH   7   8
ENDBRANCH   1   7
TORSDOF 2
ENDMDL
MODEL 9
REMARK VINA RESULT:      -2.8      1.527      1.777
REMARK  2 active torsions:
REMARK  status: ('A' for Active; 'I' for Inactive)
REMARK    1  A    between atoms: C_1  and  C_7 
REMARK    2  A    between atoms: N_6  and  C_7 
ROOT
HETATM    1  C   UNL     1      62.518   8.717   4.333  1.00  0.00     0.013 A 
HETATM    2  C   UNL     1      61.773   9.049   3.207  1.00  0.00    -0.047 A 
HETATM    3  S   UNL     1      62.035   7.205   4.991  1.00  0.00    -0.104 SA
HETATM    4  C   UNL     1      60.842   6.984   3.796  1.00  0.00     0.051 A 
HETATM    5  C   UNL     1      60.805   8.033   2.909  1.00  0.00     0.015 A 
HETATM    6  C   UNL     1      61.927  10.286   2.380  1.00  0.00     0.049 C 
ENDROOT
BRANCH   1   7
HETATM    7  C   UNL     1      63.619   9.482   5.011  1.00  0.00     0.276 C 
BRANCH   7   8
HETATM    8  N   UNL     1      63.076  10.506   5.899  1.00  0.00    -0.075 N 
HETATM    9  H   UNL     1      62.313  10.993   5.430  1.00  0.00     0.274 HD
HETATM   10  H   UNL     1      63.810  11.173   6.138  1.00  0.00     0.274 HD
HETATM   11  H   UNL     1      62.726  10.066   6.750  1.00  0.00     0.274 HD
ENDBRANCH   7   8
ENDBRANCH   1   7
TORSDOF 2
ENDMDL
