MODEL 1
REMARK VINA RESULT:      -4.5      0.000      0.000
REMARK  1 active torsions:
REMARK  status: ('A' for Active; 'I' for Inactive)
REMARK    1  A    between atoms: C_5  and  O_10 
ROOT
HETATM    1  N   UNL     1      61.707  12.008   1.976  1.00  0.00    -0.191 NA
HETATM    2  N   UNL     1      63.080   9.683   5.956  1.00  0.00    -0.345 N 
ATOM      3  HN  UNL     1      63.517   9.983   6.828  1.00  0.00     0.167 HD
HETATM    4  C   UNL     1      61.925  11.198   2.777  1.00  0.00     0.101 C 
HETATM    5  C   UNL     1      62.767   8.389   5.730  1.00  0.00     0.141 A 
HETATM    6  C   UNL     1      62.198  10.208   3.768  1.00  0.00     0.060 A 
HETATM    7  C   UNL     1      62.788  10.565   4.971  1.00  0.00     0.112 A 
HETATM    8  C   UNL     1      62.173   7.936   4.562  1.00  0.00     0.057 A 
HETATM    9  C   UNL     1      61.883   8.865   3.563  1.00  0.00     0.028 A 
ENDROOT
BRANCH   5  10
HETATM   10  O   UNL     1      63.038   7.440   6.694  1.00  0.00    -0.341 OA
HETATM   11  C   UNL     1      64.322   6.842   6.531  1.00  0.00     0.211 C 
ENDBRANCH   5  10
TORSDOF 1
ENDMDL
MODEL 2
REMARK VINA RESULT:      -4.4      2.611      4.151
REMARK  1 active torsions:
REMARK  status: ('A' for Active; 'I' for Inactive)
REMARK    1  A    between atoms: C_5  and  O_10 
ROOT
HETATM    1  N   UNL     1      63.250  11.356   6.473  1.00  0.00    -0.191 NA
HETATM    2  N   UNL     1      61.460  10.556   2.082  1.00  0.00    -0.345 N 
ATOM      3  HN  UNL     1      60.941  11.133   1.420  1.00  0.00     0.167 HD
HETATM    4  C   UNL     1      62.945  10.877   5.462  1.00  0.00     0.101 C 
HETATM    5  C   UNL     1      61.781   9.274   1.801  1.00  0.00     0.141 A 
HETATM    6  C   UNL     1      62.563  10.295   4.216  1.00  0.00     0.060 A 
HETATM    7  C   UNL     1      61.859  11.038   3.282  1.00  0.00     0.112 A 
HETATM    8  C   UNL     1      62.485   8.453   2.669  1.00  0.00     0.057 A 
HETATM    9  C   UNL     1      62.883   8.974   3.899  1.00  0.00     0.028 A 
ENDROOT
BRANCH   5  10
HETATM   10  O   UNL     1      61.405   8.721   0.595  1.00  0.00    -0.341 OA
HETATM   11  C   UNL     1      60.091   8.169   0.629  1.00  0.00     0.211 C 
ENDBRANCH   5  10
TORSDOF 1
ENDMDL
MODEL 3
REMARK VINA RESULT:      -4.0      3.975      6.995
REMARK  1 active torsions:
REMARK  status: ('A' for Active; 'I' for Inactive)
REMARK    1  A    between atoms: C_5  and  O_10 
ROOT
HETATM    1  N   UNL     1      67.606   3.458   9.109  1.00  0.00    -0.191 NA
HETATM    2  N   UNL     1      65.414   7.264   7.150  1.00  0.00    -0.345 N 
ATOM      3  HN  UNL     1      64.542   7.753   7.353  1.00  0.00     0.167 HD
HETATM    4  C   UNL     1      67.331   4.370   8.448  1.00  0.00     0.101 C 
HETATM    5  C   UNL     1      66.226   7.656   6.144  1.00  0.00     0.141 A 
HETATM    6  C   UNL     1      66.985   5.493   7.638  1.00  0.00     0.060 A 
HETATM    7  C   UNL     1      65.811   6.193   7.876  1.00  0.00     0.112 A 
HETATM    8  C   UNL     1      67.419   7.023   5.831  1.00  0.00     0.057 A 
HETATM    9  C   UNL     1      67.805   5.921   6.594  1.00  0.00     0.028 A 
ENDROOT
BRANCH   5  10
HETATM   10  O   UNL     1      65.879   8.741   5.366  1.00  0.00    -0.341 OA
HETATM   11  C   UNL     1      64.498   8.746   5.014  1.00  0.00     0.211 C 
ENDBRANCH   5  10
TORSDOF 1
ENDMDL
MODEL 4
REMARK VINA RESULT:      -4.0      2.553      4.598
REMARK  1 active torsions:
REMARK  status: ('A' for Active; 'I' for Inactive)
REMARK    1  A    between atoms: C_5  and  O_10 
ROOT
HETATM    1  N   UNL     1      62.095   5.200   5.108  1.00  0.00    -0.191 NA
HETATM    2  N   UNL     1      61.120   9.492   3.171  1.00  0.00    -0.345 N 
ATOM      3  HN  UNL     1      60.476   9.803   2.443  1.00  0.00     0.167 HD
HETATM    4  C   UNL     1      62.080   6.330   4.848  1.00  0.00     0.101 C 
HETATM    5  C   UNL     1      61.935  10.358   3.811  1.00  0.00     0.141 A 
HETATM    6  C   UNL     1      62.056   7.718   4.519  1.00  0.00     0.060 A 
HETATM    7  C   UNL     1      61.197   8.192   3.539  1.00  0.00     0.112 A 
HETATM    8  C   UNL     1      62.825   9.981   4.806  1.00  0.00     0.057 A 
HETATM    9  C   UNL     1      62.885   8.635   5.166  1.00  0.00     0.028 A 
ENDROOT
BRANCH   5  10
HETATM   10  O   UNL     1      61.905  11.697   3.484  1.00  0.00    -0.341 OA
HETATM   11  C   UNL     1      61.749  11.918   2.084  1.00  0.00     0.211 C 
ENDBRANCH   5  10
TORSDOF 1
ENDMDL
MODEL 5
REMARK VINA RESULT:      -3.9      2.218      2.512
REMARK  1 active torsions:
REMARK  status: ('A' for Active; 'I' for Inactive)
REMARK    1  A    between atoms: C_5  and  O_10 
ROOT
HETATM    1  N   UNL     1      60.764   8.349   2.205  1.00  0.00    -0.191 NA
HETATM    2  N   UNL     1      63.946   9.697   5.549  1.00  0.00    -0.345 N 
ATOM      3  HN  UNL     1      63.976  10.465   6.219  1.00  0.00     0.167 HD
HETATM    4  C   UNL     1      61.686   8.419   2.905  1.00  0.00     0.101 C 
HETATM    5  C   UNL     1      64.944   8.790   5.468  1.00  0.00     0.141 A 
HETATM    6  C   UNL     1      62.817   8.515   3.769  1.00  0.00     0.060 A 
HETATM    7  C   UNL     1      62.905   9.539   4.699  1.00  0.00     0.112 A 
HETATM    8  C   UNL     1      64.946   7.730   4.573  1.00  0.00     0.057 A 
HETATM    9  C   UNL     1      63.861   7.591   3.709  1.00  0.00     0.028 A 
ENDROOT
BRANCH   5  10
HETATM   10  O   UNL     1      66.034   8.894   6.306  1.00  0.00    -0.341 OA
HETATM   11  C   UNL     1      66.673   7.640   6.534  1.00  0.00     0.211 C 
ENDBRANCH   5  10
TORSDOF 1
ENDMDL
MODEL 6
REMARK VINA RESULT:      -3.9      2.582      4.675
REMARK  1 active torsions:
REMARK  status: ('A' for Active; 'I' for Inactive)
REMARK    1  A    between atoms: C_5  and  O_10 
ROOT
HETATM    1  N   UNL     1      64.974   7.126   6.755  1.00  0.00    -0.191 NA
HETATM    2  N   UNL     1      62.891   8.454   2.629  1.00  0.00    -0.345 N 
ATOM      3  HN  UNL     1      62.842   8.033   1.701  1.00  0.00     0.167 HD
HETATM    4  C   UNL     1      64.382   7.694   5.936  1.00  0.00     0.101 C 
HETATM    5  C   UNL     1      62.294   9.634   2.902  1.00  0.00     0.141 A 
HETATM    6  C   UNL     1      63.656   8.386   4.920  1.00  0.00     0.060 A 
HETATM    7  C   UNL     1      63.558   7.855   3.643  1.00  0.00     0.112 A 
HETATM    8  C   UNL     1      62.334  10.243   4.148  1.00  0.00     0.057 A 
HETATM    9  C   UNL     1      63.028   9.605   5.175  1.00  0.00     0.028 A 
ENDROOT
BRANCH   5  10
HETATM   10  O   UNL     1      61.598  10.296   1.913  1.00  0.00    -0.341 OA
HETATM   11  C   UNL     1      61.753  11.711   1.985  1.00  0.00     0.211 C 
ENDBRANCH   5  10
TORSDOF 1
ENDMDL
MODEL 7
REMARK VINA RESULT:      -3.9      3.193      3.755
REMARK  1 active torsions:
REMARK  status: ('A' for Active; 'I' for Inactive)
REMARK    1  A    between atoms: C_5  and  O_10 
ROOT
HETATM    1  N   UNL     1      61.915  11.861   4.158  1.00  0.00    -0.191 NA
HETATM    2  N   UNL     1      63.028   7.441   2.622  1.00  0.00    -0.345 N 
ATOM      3  HN  UNL     1      63.445   6.626   3.073  1.00  0.00     0.167 HD
HETATM    4  C   UNL     1      62.064  10.906   3.516  1.00  0.00     0.101 C 
HETATM    5  C   UNL     1      62.663   7.421   1.322  1.00  0.00     0.141 A 
HETATM    6  C   UNL     1      62.254   9.728   2.734  1.00  0.00     0.060 A 
HETATM    7  C   UNL     1      62.814   8.593   3.300  1.00  0.00     0.112 A 
HETATM    8  C   UNL     1      62.093   8.503   0.668  1.00  0.00     0.057 A 
HETATM    9  C   UNL     1      61.885   9.678   1.389  1.00  0.00     0.028 A 
ENDROOT
BRANCH   5  10
HETATM   10  O   UNL     1      62.853   6.277   0.574  1.00  0.00    -0.341 OA
HETATM   11  C   UNL     1      62.993   5.110   1.381  1.00  0.00     0.211 C 
ENDBRANCH   5  10
TORSDOF 1
ENDMDL
MODEL 8
REMARK VINA RESULT:      -3.8      2.138      2.566
REMARK  1 active torsions:
REMARK  status: ('A' for Active; 'I' for Inactive)
REMARK    1  A    between atoms: C_5  and  O_10 
ROOT
HETATM    1  N   UNL     1      60.350   8.418   1.104  1.00  0.00    -0.191 NA
HETATM    2  N   UNL     1      64.176   8.011   3.990  1.00  0.00    -0.345 N 
ATOM      3  HN  UNL     1      64.959   7.358   4.029  1.00  0.00     0.167 HD
HETATM    4  C   UNL     1      61.144   8.576   1.935  1.00  0.00     0.101 C 
HETATM    5  C   UNL     1      64.056   9.024   4.875  1.00  0.00     0.141 A 
HETATM    6  C   UNL     1      62.124   8.760   2.956  1.00  0.00     0.060 A 
HETATM    7  C   UNL     1      63.209   7.902   3.049  1.00  0.00     0.112 A 
HETATM    8  C   UNL     1      63.010   9.935   4.861  1.00  0.00     0.057 A 
HETATM    9  C   UNL     1      62.027   9.799   3.882  1.00  0.00     0.028 A 
ENDROOT
BRANCH   5  10
HETATM   10  O   UNL     1      65.008   9.191   5.859  1.00  0.00    -0.341 OA
HETATM   11  C   UNL     1      65.902   8.085   5.952  1.00  0.00     0.211 C 
ENDBRANCH   5  10
TORSDOF 1
ENDMDL
MODEL 9
REMARK VINA RESULT:      -3.8      2.067      2.289
REMARK  1 active torsions:
REMARK  status: ('A' for Active; 'I' for Inactive)
REMARK    1  A    between atoms: C_5  and  O_10 
ROOT
HETATM    1  N   UNL     1      60.338   8.482   0.987  1.00  0.00    -0.191 NA
HETATM    2  N   UNL     1      62.949   9.967   4.743  1.00  0.00    -0.345 N 
ATOM      3  HN  UNL     1      62.874  10.760   5.380  1.00  0.00     0.167 HD
HETATM    4  C   UNL     1      61.137   8.582   1.823  1.00  0.00     0.101 C 
HETATM    5  C   UNL     1      63.944   9.060   4.858  1.00  0.00     0.141 A 
HETATM    6  C   UNL     1      62.116   8.714   2.852  1.00  0.00     0.060 A 
HETATM    7  C   UNL     1      62.057   9.773   3.745  1.00  0.00     0.112 A 
HETATM    8  C   UNL     1      64.086   7.967   4.016  1.00  0.00     0.057 A 
HETATM    9  C   UNL     1      63.153   7.792   2.995  1.00  0.00     0.028 A 
ENDROOT
BRANCH   5  10
HETATM   10  O   UNL     1      64.887   9.199   5.855  1.00  0.00    -0.341 OA
HETATM   11  C   UNL     1      65.857   8.154   5.843  1.00  0.00     0.211 C 
ENDBRANCH   5  10
TORSDOF 1
ENDMDL
