MODEL 1
REMARK VINA RESULT:      -5.9      0.000      0.000
REMARK  4 active torsions:
REMARK  status: ('A' for Active; 'I' for Inactive)
REMARK    1  A    between atoms: C_3  and  C_8 
REMARK    2  A    between atoms: C_4  and  C_9 
REMARK    3  A    between atoms: C_7  and  O_10 
REMARK    4  A    between atoms: O_10  and  C_17 
ROOT
HETATM    1  C   UNL     1      64.733   7.488   5.230  1.00  0.00    -0.002 A 
HETATM    2  C   UNL     1      64.670   6.095   5.392  1.00  0.00     0.017 A 
HETATM    3  C   UNL     1      65.767   8.176   5.881  1.00  0.00     0.017 A 
HETATM    4  C   UNL     1      66.691   6.091   6.726  1.00  0.00     0.078 A 
HETATM    5  C   UNL     1      65.633   5.401   6.141  1.00  0.00     0.038 A 
HETATM    6  C   UNL     1      66.729   7.483   6.621  1.00  0.00     0.038 A 
ENDROOT
BRANCH   1   7
HETATM    7  C   UNL     1      63.718   8.175   4.411  1.00  0.00     0.085 A 
HETATM    8  N   UNL     1      63.457   9.468   4.472  1.00  0.00    -0.347 N 
HETATM    9  C   UNL     1      62.436   9.806   3.584  1.00  0.00     0.085 A 
ATOM     10  HN  UNL     1      63.936  10.128   5.085  1.00  0.00     0.167 HD
HETATM   11  C   UNL     1      61.915   8.736   2.881  1.00  0.00     0.085 A 
HETATM   12  S   UNL     1      62.715   7.292   3.317  1.00  0.00    -0.081 SA
BRANCH   9  13
HETATM   13  C   UNL     1      61.967  11.183   3.423  1.00  0.00     0.172 C 
HETATM   14  O   UNL     1      61.824  11.940   4.386  1.00  0.00    -0.291 OA
HETATM   15  C   UNL     1      61.659  11.652   2.022  1.00  0.00     0.098 C 
ENDBRANCH   9  13
ENDBRANCH   1   7
BRANCH   4  16
HETATM   16  O   UNL     1      67.707   5.556   7.454  1.00  0.00    -0.255 OA
BRANCH  16  17
HETATM   17  C   UNL     1      67.524   5.296   8.838  1.00  0.00     0.530 C 
HETATM   18  F   UNL     1      68.039   6.244   9.649  1.00  0.00    -0.144 F 
HETATM   19  F   UNL     1      66.196   5.223   9.084  1.00  0.00    -0.144 F 
HETATM   20  F   UNL     1      68.075   4.104   9.148  1.00  0.00    -0.144 F 
ENDBRANCH  16  17
ENDBRANCH   4  16
TORSDOF 4
ENDMDL
MODEL 2
REMARK VINA RESULT:      -5.7      4.627      7.669
REMARK  4 active torsions:
REMARK  status: ('A' for Active; 'I' for Inactive)
REMARK    1  A    between atoms: C_3  and  C_8 
REMARK    2  A    between atoms: C_4  and  C_9 
REMARK    3  A    between atoms: C_7  and  O_10 
REMARK    4  A    between atoms: O_10  and  C_17 
ROOT
HETATM    1  C   UNL     1      64.744   7.322   4.805  1.00  0.00    -0.002 A 
HETATM    2  C   UNL     1      63.929   6.822   3.777  1.00  0.00     0.017 A 
HETATM    3  C   UNL     1      64.566   8.659   5.189  1.00  0.00     0.017 A 
HETATM    4  C   UNL     1      62.728   8.919   3.619  1.00  0.00     0.078 A 
HETATM    5  C   UNL     1      62.936   7.614   3.180  1.00  0.00     0.038 A 
HETATM    6  C   UNL     1      63.572   9.445   4.599  1.00  0.00     0.038 A 
ENDROOT
BRANCH   1   7
HETATM    7  C   UNL     1      65.756   6.448   5.425  1.00  0.00     0.085 A 
HETATM    8  N   UNL     1      65.876   6.248   6.725  1.00  0.00    -0.347 N 
HETATM    9  C   UNL     1      66.937   5.381   6.993  1.00  0.00     0.085 A 
ATOM     10  HN  UNL     1      65.277   6.668   7.435  1.00  0.00     0.167 HD
HETATM   11  C   UNL     1      67.628   4.964   5.872  1.00  0.00     0.085 A 
HETATM   12  S   UNL     1      66.943   5.643   4.463  1.00  0.00    -0.081 SA
BRANCH   9  13
HETATM   13  C   UNL     1      67.275   4.961   8.354  1.00  0.00     0.172 C 
HETATM   14  O   UNL     1      67.041   3.820   8.760  1.00  0.00    -0.291 OA
HETATM   15  C   UNL     1      67.927   5.981   9.253  1.00  0.00     0.098 C 
ENDBRANCH   9  13
ENDBRANCH   1   7
BRANCH   4  16
HETATM   16  O   UNL     1      61.793   9.792   3.159  1.00  0.00    -0.255 OA
BRANCH  16  17
HETATM   17  C   UNL     1      61.745  10.113   1.776  1.00  0.00     0.530 C 
HETATM   18  F   UNL     1      62.863   9.786   1.096  1.00  0.00    -0.144 F 
HETATM   19  F   UNL     1      60.714   9.438   1.220  1.00  0.00    -0.144 F 
HETATM   20  F   UNL     1      61.511  11.434   1.629  1.00  0.00    -0.144 F 
ENDBRANCH  16  17
ENDBRANCH   4  16
TORSDOF 4
ENDMDL
MODEL 3
REMARK VINA RESULT:      -5.5      3.233      4.183
REMARK  4 active torsions:
REMARK  status: ('A' for Active; 'I' for Inactive)
REMARK    1  A    between atoms: C_3  and  C_8 
REMARK    2  A    between atoms: C_4  and  C_9 
REMARK    3  A    between atoms: C_7  and  O_10 
REMARK    4  A    between atoms: O_10  and  C_17 
ROOT
HETATM    1  C   UNL     1      62.526   8.159   3.319  1.00  0.00    -0.002 A 
HETATM    2  C   UNL     1      63.554   7.209   3.205  1.00  0.00     0.017 A 
HETATM    3  C   UNL     1      62.675   9.174   4.274  1.00  0.00     0.017 A 
HETATM    4  C   UNL     1      64.878   8.344   4.885  1.00  0.00     0.078 A 
HETATM    5  C   UNL     1      64.716   7.292   3.988  1.00  0.00     0.038 A 
HETATM    6  C   UNL     1      63.837   9.260   5.048  1.00  0.00     0.038 A 
ENDROOT
BRANCH   1   7
HETATM    7  C   UNL     1      61.334   8.051   2.457  1.00  0.00     0.085 A 
HETATM    8  N   UNL     1      60.141   7.671   2.876  1.00  0.00    -0.347 N 
HETATM    9  C   UNL     1      59.230   7.657   1.819  1.00  0.00     0.085 A 
ATOM     10  HN  UNL     1      59.916   7.423   3.840  1.00  0.00     0.167 HD
HETATM   11  C   UNL     1      59.773   8.001   0.596  1.00  0.00     0.085 A 
HETATM   12  S   UNL     1      61.433   8.363   0.763  1.00  0.00    -0.081 SA
BRANCH   9  13
HETATM   13  C   UNL     1      57.822   7.305   2.008  1.00  0.00     0.172 C 
HETATM   14  O   UNL     1      57.035   7.236   1.060  1.00  0.00    -0.291 OA
HETATM   15  C   UNL     1      57.359   7.025   3.416  1.00  0.00     0.098 C 
ENDBRANCH   9  13
ENDBRANCH   1   7
BRANCH   4  16
HETATM   16  O   UNL     1      65.953   8.571   5.686  1.00  0.00    -0.255 OA
BRANCH  16  17
HETATM   17  C   UNL     1      66.334   7.599   6.649  1.00  0.00     0.530 C 
HETATM   18  F   UNL     1      67.143   6.634   6.166  1.00  0.00    -0.144 F 
HETATM   19  F   UNL     1      66.997   8.228   7.647  1.00  0.00    -0.144 F 
HETATM   20  F   UNL     1      65.230   7.028   7.173  1.00  0.00    -0.144 F 
ENDBRANCH  16  17
ENDBRANCH   4  16
TORSDOF 4
ENDMDL
MODEL 4
REMARK VINA RESULT:      -5.4      4.840      7.664
REMARK  4 active torsions:
REMARK  status: ('A' for Active; 'I' for Inactive)
REMARK    1  A    between atoms: C_3  and  C_8 
REMARK    2  A    between atoms: C_4  and  C_9 
REMARK    3  A    between atoms: C_7  and  O_10 
REMARK    4  A    between atoms: O_10  and  C_17 
ROOT
HETATM    1  C   UNL     1      64.102   7.663   4.939  1.00  0.00    -0.002 A 
HETATM    2  C   UNL     1      63.705   8.998   4.755  1.00  0.00     0.017 A 
HETATM    3  C   UNL     1      63.318   6.661   4.351  1.00  0.00     0.017 A 
HETATM    4  C   UNL     1      61.858   8.322   3.341  1.00  0.00     0.078 A 
HETATM    5  C   UNL     1      62.588   9.326   3.973  1.00  0.00     0.038 A 
HETATM    6  C   UNL     1      62.209   6.990   3.566  1.00  0.00     0.038 A 
ENDROOT
BRANCH   1   7
HETATM    7  C   UNL     1      65.299   7.363   5.745  1.00  0.00     0.085 A 
HETATM    8  N   UNL     1      65.279   7.065   7.032  1.00  0.00    -0.347 N 
HETATM    9  C   UNL     1      66.573   6.848   7.507  1.00  0.00     0.085 A 
ATOM     10  HN  UNL     1      64.434   7.002   7.600  1.00  0.00     0.167 HD
HETATM   11  C   UNL     1      67.564   7.022   6.559  1.00  0.00     0.085 A 
HETATM   12  S   UNL     1      66.879   7.445   5.053  1.00  0.00    -0.081 SA
BRANCH   9  13
HETATM   13  C   UNL     1      66.841   6.470   8.895  1.00  0.00     0.172 C 
HETATM   14  O   UNL     1      66.095   6.808   9.818  1.00  0.00    -0.291 OA
HETATM   15  C   UNL     1      68.074   5.644   9.163  1.00  0.00     0.098 C 
ENDBRANCH   9  13
ENDBRANCH   1   7
BRANCH   4  16
HETATM   16  O   UNL     1      60.775   8.488   2.536  1.00  0.00    -0.255 OA
BRANCH  16  17
HETATM   17  C   UNL     1      60.941   8.525   1.126  1.00  0.00     0.530 C 
HETATM   18  F   UNL     1      61.338   7.354   0.587  1.00  0.00    -0.144 F 
HETATM   19  F   UNL     1      59.753   8.852   0.568  1.00  0.00    -0.144 F 
HETATM   20  F   UNL     1      61.834   9.484   0.804  1.00  0.00    -0.144 F 
ENDBRANCH  16  17
ENDBRANCH   4  16
TORSDOF 4
ENDMDL
MODEL 5
REMARK VINA RESULT:      -5.2      4.708      7.664
REMARK  4 active torsions:
REMARK  status: ('A' for Active; 'I' for Inactive)
REMARK    1  A    between atoms: C_3  and  C_8 
REMARK    2  A    between atoms: C_4  and  C_9 
REMARK    3  A    between atoms: C_7  and  O_10 
REMARK    4  A    between atoms: O_10  and  C_17 
ROOT
HETATM    1  C   UNL     1      64.275   7.681   4.163  1.00  0.00    -0.002 A 
HETATM    2  C   UNL     1      64.010   6.885   3.036  1.00  0.00     0.017 A 
HETATM    3  C   UNL     1      63.552   8.874   4.305  1.00  0.00     0.017 A 
HETATM    4  C   UNL     1      62.269   8.397   2.295  1.00  0.00     0.078 A 
HETATM    5  C   UNL     1      63.024   7.243   2.104  1.00  0.00     0.038 A 
HETATM    6  C   UNL     1      62.565   9.226   3.378  1.00  0.00     0.038 A 
ENDROOT
BRANCH   1   7
HETATM    7  C   UNL     1      65.298   7.254   5.134  1.00  0.00     0.085 A 
HETATM    8  N   UNL     1      65.035   6.684   6.295  1.00  0.00    -0.347 N 
HETATM    9  C   UNL     1      66.215   6.414   6.989  1.00  0.00     0.085 A 
ATOM     10  HN  UNL     1      64.099   6.469   6.638  1.00  0.00     0.167 HD
HETATM   11  C   UNL     1      67.364   6.824   6.339  1.00  0.00     0.085 A 
HETATM   12  S   UNL     1      66.975   7.540   4.839  1.00  0.00    -0.081 SA
BRANCH   9  13
HETATM   13  C   UNL     1      66.219   5.752   8.295  1.00  0.00     0.172 C 
HETATM   14  O   UNL     1      65.856   4.581   8.433  1.00  0.00    -0.291 OA
HETATM   15  C   UNL     1      66.685   6.560   9.480  1.00  0.00     0.098 C 
ENDBRANCH   9  13
ENDBRANCH   1   7
BRANCH   4  16
HETATM   16  O   UNL     1      61.269   8.856   1.496  1.00  0.00    -0.255 OA
BRANCH  16  17
HETATM   17  C   UNL     1      60.158   8.021   1.204  1.00  0.00     0.530 C 
HETATM   18  F   UNL     1      59.084   8.682   0.724  1.00  0.00    -0.144 F 
HETATM   19  F   UNL     1      60.538   7.122   0.267  1.00  0.00    -0.144 F 
HETATM   20  F   UNL     1      59.800   7.344   2.314  1.00  0.00    -0.144 F 
ENDBRANCH  16  17
ENDBRANCH   4  16
TORSDOF 4
ENDMDL
MODEL 6
REMARK VINA RESULT:      -5.0      4.556      7.647
REMARK  4 active torsions:
REMARK  status: ('A' for Active; 'I' for Inactive)
REMARK    1  A    between atoms: C_3  and  C_8 
REMARK    2  A    between atoms: C_4  and  C_9 
REMARK    3  A    between atoms: C_7  and  O_10 
REMARK    4  A    between atoms: O_10  and  C_17 
ROOT
HETATM    1  C   UNL     1      63.345   7.291   5.333  1.00  0.00    -0.002 A 
HETATM    2  C   UNL     1      62.159   7.125   4.600  1.00  0.00     0.017 A 
HETATM    3  C   UNL     1      63.937   8.562   5.340  1.00  0.00     0.017 A 
HETATM    4  C   UNL     1      62.121   9.471   4.002  1.00  0.00     0.078 A 
HETATM    5  C   UNL     1      61.556   8.201   3.931  1.00  0.00     0.038 A 
HETATM    6  C   UNL     1      63.331   9.634   4.679  1.00  0.00     0.038 A 
ENDROOT
BRANCH   1   7
HETATM    7  C   UNL     1      63.930   6.140   6.045  1.00  0.00     0.085 A 
HETATM    8  N   UNL     1      65.146   6.119   6.559  1.00  0.00    -0.347 N 
HETATM    9  C   UNL     1      65.408   4.884   7.153  1.00  0.00     0.085 A 
ATOM     10  HN  UNL     1      65.804   6.898   6.527  1.00  0.00     0.167 HD
HETATM   11  C   UNL     1      64.377   3.970   7.044  1.00  0.00     0.085 A 
HETATM   12  S   UNL     1      63.058   4.659   6.206  1.00  0.00    -0.081 SA
BRANCH   9  13
HETATM   13  C   UNL     1      66.673   4.596   7.830  1.00  0.00     0.172 C 
HETATM   14  O   UNL     1      66.813   3.611   8.559  1.00  0.00    -0.291 OA
HETATM   15  C   UNL     1      67.814   5.556   7.605  1.00  0.00     0.098 C 
ENDBRANCH   9  13
ENDBRANCH   1   7
BRANCH   4  16
HETATM   16  O   UNL     1      61.640  10.608   3.433  1.00  0.00    -0.255 OA
BRANCH  16  17
HETATM   17  C   UNL     1      61.670  10.759   2.021  1.00  0.00     0.530 C 
HETATM   18  F   UNL     1      60.667  10.125   1.378  1.00  0.00    -0.144 F 
HETATM   19  F   UNL     1      61.573  12.077   1.733  1.00  0.00    -0.144 F 
HETATM   20  F   UNL     1      62.850  10.311   1.546  1.00  0.00    -0.144 F 
ENDBRANCH  16  17
ENDBRANCH   4  16
TORSDOF 4
ENDMDL
MODEL 7
REMARK VINA RESULT:      -5.0      5.171      7.701
REMARK  4 active torsions:
REMARK  status: ('A' for Active; 'I' for Inactive)
REMARK    1  A    between atoms: C_3  and  C_8 
REMARK    2  A    between atoms: C_4  and  C_9 
REMARK    3  A    between atoms: C_7  and  O_10 
REMARK    4  A    between atoms: O_10  and  C_17 
ROOT
HETATM    1  C   UNL     1      62.327   7.015   5.448  1.00  0.00    -0.002 A 
HETATM    2  C   UNL     1      61.839   7.558   4.248  1.00  0.00     0.017 A 
HETATM    3  C   UNL     1      61.433   6.289   6.248  1.00  0.00     0.017 A 
HETATM    4  C   UNL     1      59.658   6.569   4.609  1.00  0.00     0.078 A 
HETATM    5  C   UNL     1      60.515   7.347   3.835  1.00  0.00     0.038 A 
HETATM    6  C   UNL     1      60.116   6.074   5.832  1.00  0.00     0.038 A 
ENDROOT
BRANCH   1   7
HETATM    7  C   UNL     1      63.733   7.235   5.830  1.00  0.00     0.085 A 
HETATM    8  N   UNL     1      64.356   6.586   6.797  1.00  0.00    -0.347 N 
HETATM    9  C   UNL     1      65.672   7.033   6.922  1.00  0.00     0.085 A 
ATOM     10  HN  UNL     1      63.934   5.857   7.372  1.00  0.00     0.167 HD
HETATM   11  C   UNL     1      66.011   8.052   6.053  1.00  0.00     0.085 A 
HETATM   12  S   UNL     1      64.683   8.451   5.056  1.00  0.00    -0.081 SA
BRANCH   9  13
HETATM   13  C   UNL     1      66.601   6.460   7.896  1.00  0.00     0.172 C 
HETATM   14  O   UNL     1      66.350   6.442   9.104  1.00  0.00    -0.291 OA
HETATM   15  C   UNL     1      67.893   5.886   7.369  1.00  0.00     0.098 C 
ENDBRANCH   9  13
ENDBRANCH   1   7
BRANCH   4  16
HETATM   16  O   UNL     1      58.365   6.257   4.328  1.00  0.00    -0.255 OA
BRANCH  16  17
HETATM   17  C   UNL     1      57.327   7.158   4.686  1.00  0.00     0.530 C 
HETATM   18  F   UNL     1      57.645   8.458   4.521  1.00  0.00    -0.144 F 
HETATM   19  F   UNL     1      56.252   6.896   3.907  1.00  0.00    -0.144 F 
HETATM   20  F   UNL     1      56.974   6.950   5.971  1.00  0.00    -0.144 F 
ENDBRANCH  16  17
ENDBRANCH   4  16
TORSDOF 4
ENDMDL
MODEL 8
REMARK VINA RESULT:      -4.7      4.301      7.681
REMARK  4 active torsions:
REMARK  status: ('A' for Active; 'I' for Inactive)
REMARK    1  A    between atoms: C_3  and  C_8 
REMARK    2  A    between atoms: C_4  and  C_9 
REMARK    3  A    between atoms: C_7  and  O_10 
REMARK    4  A    between atoms: O_10  and  C_17 
ROOT
HETATM    1  C   UNL     1      65.202   6.618   5.826  1.00  0.00    -0.002 A 
HETATM    2  C   UNL     1      64.246   6.029   4.982  1.00  0.00     0.017 A 
HETATM    3  C   UNL     1      65.426   7.996   5.698  1.00  0.00     0.017 A 
HETATM    4  C   UNL     1      63.693   8.173   4.002  1.00  0.00     0.078 A 
HETATM    5  C   UNL     1      63.505   6.795   4.070  1.00  0.00     0.038 A 
HETATM    6  C   UNL     1      64.682   8.759   4.793  1.00  0.00     0.038 A 
ENDROOT
BRANCH   1   7
HETATM    7  C   UNL     1      65.938   5.782   6.791  1.00  0.00     0.085 A 
HETATM    8  N   UNL     1      66.281   4.524   6.581  1.00  0.00    -0.347 N 
HETATM    9  C   UNL     1      66.954   4.006   7.688  1.00  0.00     0.085 A 
ATOM     10  HN  UNL     1      66.081   4.002   5.727  1.00  0.00     0.167 HD
HETATM   11  C   UNL     1      67.079   4.890   8.742  1.00  0.00     0.085 A 
HETATM   12  S   UNL     1      66.365   6.390   8.349  1.00  0.00    -0.081 SA
BRANCH   9  13
HETATM   13  C   UNL     1      67.477   2.639   7.714  1.00  0.00     0.172 C 
HETATM   14  O   UNL     1      67.664   1.993   6.679  1.00  0.00    -0.291 OA
HETATM   15  C   UNL     1      67.781   2.038   9.063  1.00  0.00     0.098 C 
ENDBRANCH   9  13
ENDBRANCH   1   7
BRANCH   4  16
HETATM   16  O   UNL     1      63.035   9.044   3.192  1.00  0.00    -0.255 OA
BRANCH  16  17
HETATM   17  C   UNL     1      61.907   9.753   3.684  1.00  0.00     0.530 C 
HETATM   18  F   UNL     1      62.137  10.429   4.829  1.00  0.00    -0.144 F 
HETATM   19  F   UNL     1      61.529  10.652   2.747  1.00  0.00    -0.144 F 
HETATM   20  F   UNL     1      60.885   8.894   3.878  1.00  0.00    -0.144 F 
ENDBRANCH  16  17
ENDBRANCH   4  16
TORSDOF 4
ENDMDL
MODEL 9
REMARK VINA RESULT:      -4.7      4.510      7.396
REMARK  4 active torsions:
REMARK  status: ('A' for Active; 'I' for Inactive)
REMARK    1  A    between atoms: C_3  and  C_8 
REMARK    2  A    between atoms: C_4  and  C_9 
REMARK    3  A    between atoms: C_7  and  O_10 
REMARK    4  A    between atoms: O_10  and  C_17 
ROOT
HETATM    1  C   UNL     1      63.678   7.198   5.182  1.00  0.00    -0.002 A 
HETATM    2  C   UNL     1      63.064   6.065   4.625  1.00  0.00     0.017 A 
HETATM    3  C   UNL     1      63.052   8.439   4.994  1.00  0.00     0.017 A 
HETATM    4  C   UNL     1      61.201   7.387   3.821  1.00  0.00     0.078 A 
HETATM    5  C   UNL     1      61.842   6.157   3.941  1.00  0.00     0.038 A 
HETATM    6  C   UNL     1      61.832   8.528   4.319  1.00  0.00     0.038 A 
ENDROOT
BRANCH   1   7
HETATM    7  C   UNL     1      64.947   7.054   5.918  1.00  0.00     0.085 A 
HETATM    8  N   UNL     1      65.038   6.852   7.219  1.00  0.00    -0.347 N 
HETATM    9  C   UNL     1      66.374   6.774   7.613  1.00  0.00     0.085 A 
ATOM     10  HN  UNL     1      64.240   6.764   7.850  1.00  0.00     0.167 HD
HETATM   11  C   UNL     1      67.281   6.955   6.587  1.00  0.00     0.085 A 
HETATM   12  S   UNL     1      66.464   7.209   5.109  1.00  0.00    -0.081 SA
BRANCH   9  13
HETATM   13  C   UNL     1      66.765   6.522   9.001  1.00  0.00     0.172 C 
HETATM   14  O   UNL     1      66.059   6.871   9.951  1.00  0.00    -0.291 OA
HETATM   15  C   UNL     1      68.075   5.812   9.235  1.00  0.00     0.098 C 
ENDBRANCH   9  13
ENDBRANCH   1   7
BRANCH   4  16
HETATM   16  O   UNL     1      60.008   7.626   3.213  1.00  0.00    -0.255 OA
BRANCH  16  17
HETATM   17  C   UNL     1      58.803   7.183   3.821  1.00  0.00     0.530 C 
HETATM   18  F   UNL     1      58.969   6.655   5.051  1.00  0.00    -0.144 F 
HETATM   19  F   UNL     1      57.973   8.245   3.939  1.00  0.00    -0.144 F 
HETATM   20  F   UNL     1      58.208   6.271   3.026  1.00  0.00    -0.144 F 
ENDBRANCH  16  17
ENDBRANCH   4  16
TORSDOF 4
ENDMDL
