MODEL 1
REMARK VINA RESULT:      -4.1      0.000      0.000
REMARK  2 active torsions:
REMARK  status: ('A' for Active; 'I' for Inactive)
REMARK    1  A    between atoms: C_1  and  C_5 
REMARK    2  A    between atoms: C_5  and  N_9 
ROOT
HETATM    1  C   UNL     1      61.611   9.863   2.460  1.00  0.00     0.094 A 
HETATM    2  N   UNL     1      61.477  11.197   2.319  1.00  0.00    -0.258 N 
ATOM      3  HN  UNL     1      61.110  11.692   1.506  1.00  0.00     0.195 HD
HETATM    4  C   UNL     1      62.161   9.566   3.737  1.00  0.00     0.069 A 
HETATM    5  O   UNL     1      61.935  11.762   3.494  1.00  0.00    -0.242 OA
HETATM    6  C   UNL     1      62.344  10.784   4.341  1.00  0.00     0.074 A 
HETATM    7  C   UNL     1      62.864  11.210   5.651  1.00  0.00     0.079 C 
ENDROOT
BRANCH   1   8
HETATM    8  C   UNL     1      61.208   8.971   1.377  1.00  0.00     0.123 C 
HETATM    9  S   UNL     1      62.333   8.286   0.364  1.00  0.00    -0.058 SA
BRANCH   8  10
HETATM   10  N   UNL     1      59.872   8.718   1.228  1.00  0.00    -0.388 N 
HETATM   11  H   UNL     1      59.574   7.875   0.816  1.00  0.00     0.157 HD
HETATM   12  H   UNL     1      59.209   9.379   1.533  1.00  0.00     0.157 HD
ENDBRANCH   8  10
ENDBRANCH   1   8
TORSDOF 2
ENDMDL
MODEL 2
REMARK VINA RESULT:      -4.0      6.713      7.352
REMARK  2 active torsions:
REMARK  status: ('A' for Active; 'I' for Inactive)
REMARK    1  A    between atoms: C_1  and  C_5 
REMARK    2  A    between atoms: C_5  and  N_9 
ROOT
HETATM    1  C   UNL     1      66.660   7.131   6.817  1.00  0.00     0.094 A 
HETATM    2  N   UNL     1      66.838   8.449   7.034  1.00  0.00    -0.258 N 
ATOM      3  HN  UNL     1      67.530   8.879   7.648  1.00  0.00     0.195 HD
HETATM    4  C   UNL     1      65.595   6.933   5.895  1.00  0.00     0.069 A 
HETATM    5  O   UNL     1      65.897   9.103   6.261  1.00  0.00    -0.242 OA
HETATM    6  C   UNL     1      65.155   8.194   5.581  1.00  0.00     0.074 A 
HETATM    7  C   UNL     1      64.099   8.720   4.699  1.00  0.00     0.079 C 
ENDROOT
BRANCH   1   8
HETATM    8  C   UNL     1      67.511   6.157   7.495  1.00  0.00     0.123 C 
HETATM    9  S   UNL     1      67.829   4.674   6.815  1.00  0.00    -0.058 SA
BRANCH   8  10
HETATM   10  N   UNL     1      68.036   6.510   8.707  1.00  0.00    -0.388 N 
HETATM   11  H   UNL     1      68.582   5.865   9.213  1.00  0.00     0.157 HD
HETATM   12  H   UNL     1      67.870   7.409   9.072  1.00  0.00     0.157 HD
ENDBRANCH   8  10
ENDBRANCH   1   8
TORSDOF 2
ENDMDL
MODEL 3
REMARK VINA RESULT:      -4.0      2.899      3.569
REMARK  2 active torsions:
REMARK  status: ('A' for Active; 'I' for Inactive)
REMARK    1  A    between atoms: C_1  and  C_5 
REMARK    2  A    between atoms: C_5  and  N_9 
ROOT
HETATM    1  C   UNL     1      62.802   9.568   4.575  1.00  0.00     0.094 A 
HETATM    2  N   UNL     1      62.694  10.751   5.211  1.00  0.00    -0.258 N 
ATOM      3  HN  UNL     1      62.921  10.944   6.186  1.00  0.00     0.195 HD
HETATM    4  C   UNL     1      62.388   9.708   3.221  1.00  0.00     0.069 A 
HETATM    5  O   UNL     1      62.214  11.653   4.279  1.00  0.00    -0.242 OA
HETATM    6  C   UNL     1      62.032  11.027   3.090  1.00  0.00     0.074 A 
HETATM    7  C   UNL     1      61.524  11.845   1.976  1.00  0.00     0.079 C 
ENDROOT
BRANCH   1   8
HETATM    8  C   UNL     1      63.290   8.395   5.293  1.00  0.00     0.123 C 
HETATM    9  S   UNL     1      64.504   7.447   4.667  1.00  0.00    -0.058 SA
BRANCH   8  10
HETATM   10  N   UNL     1      62.713   8.104   6.498  1.00  0.00    -0.388 N 
HETATM   11  H   UNL     1      61.785   7.777   6.534  1.00  0.00     0.157 HD
HETATM   12  H   UNL     1      63.227   8.220   7.330  1.00  0.00     0.157 HD
ENDBRANCH   8  10
ENDBRANCH   1   8
TORSDOF 2
ENDMDL
MODEL 4
REMARK VINA RESULT:      -3.9      3.147      3.519
REMARK  2 active torsions:
REMARK  status: ('A' for Active; 'I' for Inactive)
REMARK    1  A    between atoms: C_1  and  C_5 
REMARK    2  A    between atoms: C_5  and  N_9 
ROOT
HETATM    1  C   UNL     1      63.115   9.184   4.441  1.00  0.00     0.094 A 
HETATM    2  N   UNL     1      63.501  10.060   5.389  1.00  0.00    -0.258 N 
ATOM      3  HN  UNL     1      62.993  10.889   5.699  1.00  0.00     0.195 HD
HETATM    4  C   UNL     1      64.095   8.163   4.298  1.00  0.00     0.069 A 
HETATM    5  O   UNL     1      64.722   9.613   5.860  1.00  0.00    -0.242 OA
HETATM    6  C   UNL     1      65.075   8.479   5.206  1.00  0.00     0.074 A 
HETATM    7  C   UNL     1      66.356   7.861   5.586  1.00  0.00     0.079 C 
ENDROOT
BRANCH   1   8
HETATM    8  C   UNL     1      61.848   9.375   3.742  1.00  0.00     0.123 C 
HETATM    9  S   UNL     1      60.807   8.105   3.485  1.00  0.00    -0.058 SA
BRANCH   8  10
HETATM   10  N   UNL     1      61.548  10.637   3.307  1.00  0.00    -0.388 N 
HETATM   11  H   UNL     1      61.788  10.912   2.393  1.00  0.00     0.157 HD
HETATM   12  H   UNL     1      61.090  11.268   3.908  1.00  0.00     0.157 HD
ENDBRANCH   8  10
ENDBRANCH   1   8
TORSDOF 2
ENDMDL
MODEL 5
REMARK VINA RESULT:      -3.8      4.040      4.707
REMARK  2 active torsions:
REMARK  status: ('A' for Active; 'I' for Inactive)
REMARK    1  A    between atoms: C_1  and  C_5 
REMARK    2  A    between atoms: C_5  and  N_9 
ROOT
HETATM    1  C   UNL     1      63.449   9.028   5.415  1.00  0.00     0.094 A 
HETATM    2  N   UNL     1      62.869   8.370   6.438  1.00  0.00    -0.258 N 
ATOM      3  HN  UNL     1      61.982   8.597   6.886  1.00  0.00     0.195 HD
HETATM    4  C   UNL     1      64.681   8.404   5.075  1.00  0.00     0.069 A 
HETATM    5  O   UNL     1      63.717   7.326   6.761  1.00  0.00    -0.242 OA
HETATM    6  C   UNL     1      64.799   7.349   5.944  1.00  0.00     0.074 A 
HETATM    7  C   UNL     1      65.810   6.298   6.147  1.00  0.00     0.079 C 
ENDROOT
BRANCH   1   8
HETATM    8  C   UNL     1      62.794  10.197   4.834  1.00  0.00     0.123 C 
HETATM    9  S   UNL     1      61.948  10.088   3.408  1.00  0.00    -0.058 SA
BRANCH   8  10
HETATM   10  N   UNL     1      62.902  11.383   5.506  1.00  0.00    -0.388 N 
HETATM   11  H   UNL     1      63.291  11.403   6.410  1.00  0.00     0.157 HD
HETATM   12  H   UNL     1      62.591  12.217   5.085  1.00  0.00     0.157 HD
ENDBRANCH   8  10
ENDBRANCH   1   8
TORSDOF 2
ENDMDL
MODEL 6
REMARK VINA RESULT:      -3.5      4.024      4.734
REMARK  2 active torsions:
REMARK  status: ('A' for Active; 'I' for Inactive)
REMARK    1  A    between atoms: C_1  and  C_5 
REMARK    2  A    between atoms: C_5  and  N_9 
ROOT
HETATM    1  C   UNL     1      64.278   8.543   5.077  1.00  0.00     0.094 A 
HETATM    2  N   UNL     1      63.806   9.699   5.585  1.00  0.00    -0.258 N 
ATOM      3  HN  UNL     1      64.101  10.152   6.450  1.00  0.00     0.195 HD
HETATM    4  C   UNL     1      63.613   8.245   3.856  1.00  0.00     0.069 A 
HETATM    5  O   UNL     1      62.841  10.148   4.702  1.00  0.00    -0.242 OA
HETATM    6  C   UNL     1      62.728   9.277   3.669  1.00  0.00     0.074 A 
HETATM    7  C   UNL     1      61.741   9.604   2.626  1.00  0.00     0.079 C 
ENDROOT
BRANCH   1   8
HETATM    8  C   UNL     1      65.324   7.809   5.782  1.00  0.00     0.123 C 
HETATM    9  S   UNL     1      66.855   7.672   5.149  1.00  0.00    -0.058 SA
BRANCH   8  10
HETATM   10  N   UNL     1      65.000   7.239   6.982  1.00  0.00    -0.388 N 
HETATM   11  H   UNL     1      64.108   7.387   7.372  1.00  0.00     0.157 HD
HETATM   12  H   UNL     1      65.659   6.681   7.456  1.00  0.00     0.157 HD
ENDBRANCH   8  10
ENDBRANCH   1   8
TORSDOF 2
ENDMDL
MODEL 7
REMARK VINA RESULT:      -3.5      5.314      5.922
REMARK  2 active torsions:
REMARK  status: ('A' for Active; 'I' for Inactive)
REMARK    1  A    between atoms: C_1  and  C_5 
REMARK    2  A    between atoms: C_5  and  N_9 
ROOT
HETATM    1  C   UNL     1      65.154   7.594   5.970  1.00  0.00     0.094 A 
HETATM    2  N   UNL     1      64.060   7.386   6.730  1.00  0.00    -0.258 N 
ATOM      3  HN  UNL     1      63.985   6.770   7.539  1.00  0.00     0.195 HD
HETATM    4  C   UNL     1      64.854   8.524   4.936  1.00  0.00     0.069 A 
HETATM    5  O   UNL     1      63.057   8.174   6.194  1.00  0.00    -0.242 OA
HETATM    6  C   UNL     1      63.535   8.853   5.122  1.00  0.00     0.074 A 
HETATM    7  C   UNL     1      62.595   9.748   4.427  1.00  0.00     0.079 C 
ENDROOT
BRANCH   1   8
HETATM    8  C   UNL     1      66.400   6.901   6.280  1.00  0.00     0.123 C 
HETATM    9  S   UNL     1      66.495   5.242   6.233  1.00  0.00    -0.058 SA
BRANCH   8  10
HETATM   10  N   UNL     1      67.486   7.664   6.609  1.00  0.00    -0.388 N 
HETATM   11  H   UNL     1      68.370   7.449   6.233  1.00  0.00     0.157 HD
HETATM   12  H   UNL     1      67.383   8.428   7.221  1.00  0.00     0.157 HD
ENDBRANCH   8  10
ENDBRANCH   1   8
TORSDOF 2
ENDMDL
MODEL 8
REMARK VINA RESULT:      -3.2      6.516      6.933
REMARK  2 active torsions:
REMARK  status: ('A' for Active; 'I' for Inactive)
REMARK    1  A    between atoms: C_1  and  C_5 
REMARK    2  A    between atoms: C_5  and  N_9 
ROOT
HETATM    1  C   UNL     1      65.077   6.674   6.986  1.00  0.00     0.094 A 
HETATM    2  N   UNL     1      65.866   7.758   6.843  1.00  0.00    -0.258 N 
ATOM      3  HN  UNL     1      65.657   8.600   6.308  1.00  0.00     0.195 HD
HETATM    4  C   UNL     1      65.724   5.710   7.807  1.00  0.00     0.069 A 
HETATM    5  O   UNL     1      67.017   7.500   7.566  1.00  0.00    -0.242 OA
HETATM    6  C   UNL     1      66.929   6.275   8.141  1.00  0.00     0.074 A 
HETATM    7  C   UNL     1      68.075   5.838   8.956  1.00  0.00     0.079 C 
ENDROOT
BRANCH   1   8
HETATM    8  C   UNL     1      63.770   6.633   6.337  1.00  0.00     0.123 C 
HETATM    9  S   UNL     1      63.249   5.270   5.542  1.00  0.00    -0.058 SA
BRANCH   8  10
HETATM   10  N   UNL     1      62.991   7.754   6.409  1.00  0.00    -0.388 N 
HETATM   11  H   UNL     1      62.710   8.103   7.285  1.00  0.00     0.157 HD
HETATM   12  H   UNL     1      62.711   8.212   5.583  1.00  0.00     0.157 HD
ENDBRANCH   8  10
ENDBRANCH   1   8
TORSDOF 2
ENDMDL
MODEL 9
REMARK VINA RESULT:      -3.2      6.160      6.500
REMARK  2 active torsions:
REMARK  status: ('A' for Active; 'I' for Inactive)
REMARK    1  A    between atoms: C_1  and  C_5 
REMARK    2  A    between atoms: C_5  and  N_9 
ROOT
HETATM    1  C   UNL     1      65.544   6.982   6.010  1.00  0.00     0.094 A 
HETATM    2  N   UNL     1      64.684   7.139   7.037  1.00  0.00    -0.258 N 
ATOM      3  HN  UNL     1      63.701   7.400   6.976  1.00  0.00     0.195 HD
HETATM    4  C   UNL     1      66.826   6.616   6.505  1.00  0.00     0.069 A 
HETATM    5  O   UNL     1      65.402   6.877   8.189  1.00  0.00    -0.242 OA
HETATM    6  C   UNL     1      66.682   6.564   7.868  1.00  0.00     0.074 A 
HETATM    7  C   UNL     1      67.592   6.252   8.983  1.00  0.00     0.079 C 
ENDROOT
BRANCH   1   8
HETATM    8  C   UNL     1      65.088   7.189   4.639  1.00  0.00     0.123 C 
HETATM    9  S   UNL     1      63.824   8.213   4.298  1.00  0.00    -0.058 SA
BRANCH   8  10
HETATM   10  N   UNL     1      65.738   6.510   3.645  1.00  0.00    -0.388 N 
HETATM   11  H   UNL     1      66.425   6.965   3.107  1.00  0.00     0.157 HD
HETATM   12  H   UNL     1      65.519   5.566   3.470  1.00  0.00     0.157 HD
ENDBRANCH   8  10
ENDBRANCH   1   8
TORSDOF 2
ENDMDL
