MODEL 1
REMARK VINA RESULT:      -3.7      0.000      0.000
REMARK  1 active torsions:
REMARK  status: ('A' for Active; 'I' for Inactive)
REMARK    1  A    between atoms: C_1  and  C_4 
ROOT
HETATM    1  C   UNL     1      63.937   9.098   4.985  1.00  0.00     0.077 A 
HETATM    2  N   UNL     1      64.991   8.993   5.913  1.00  0.00    -0.351 N 
ATOM      3  HN  UNL     1      65.222   9.696   6.613  1.00  0.00     0.166 HD
HETATM    4  C   UNL     1      63.838   7.999   4.145  1.00  0.00     0.084 A 
HETATM    5  C   UNL     1      65.637   7.854   5.747  1.00  0.00     0.047 A 
HETATM    6  S   UNL     1      65.042   6.840   4.497  1.00  0.00    -0.087 SA
HETATM    7  C   UNL     1      66.814   7.401   6.542  1.00  0.00     0.076 C 
ENDROOT
BRANCH   1   8
HETATM    8  C   UNL     1      63.077  10.283   4.971  1.00  0.00     0.121 C 
HETATM    9  S   UNL     1      61.945  10.542   3.780  1.00  0.00    -0.059 SA
HETATM   10  N   UNL     1      63.235  11.186   5.982  1.00  0.00    -0.388 N 
HETATM   11  H   UNL     1      63.907  11.026   6.685  1.00  0.00     0.157 HD
HETATM   12  H   UNL     1      62.677  11.997   6.010  1.00  0.00     0.157 HD
ENDBRANCH   1   8
TORSDOF 1
ENDMDL
MODEL 2
REMARK VINA RESULT:      -3.6      1.614      3.968
REMARK  1 active torsions:
REMARK  status: ('A' for Active; 'I' for Inactive)
REMARK    1  A    between atoms: C_1  and  C_4 
ROOT
HETATM    1  C   UNL     1      65.409   7.945   5.339  1.00  0.00     0.077 A 
HETATM    2  N   UNL     1      64.622   9.089   5.569  1.00  0.00    -0.351 N 
ATOM      3  HN  UNL     1      64.814   9.795   6.280  1.00  0.00     0.166 HD
HETATM    4  C   UNL     1      64.927   7.150   4.310  1.00  0.00     0.084 A 
HETATM    5  C   UNL     1      63.601   9.120   4.734  1.00  0.00     0.047 A 
HETATM    6  S   UNL     1      63.508   7.811   3.628  1.00  0.00    -0.087 SA
HETATM    7  C   UNL     1      62.551  10.178   4.687  1.00  0.00     0.076 C 
ENDROOT
BRANCH   1   8
HETATM    8  C   UNL     1      66.601   7.689   6.151  1.00  0.00     0.121 C 
HETATM    9  S   UNL     1      67.538   6.330   5.944  1.00  0.00    -0.059 SA
HETATM   10  N   UNL     1      66.926   8.615   7.100  1.00  0.00    -0.388 N 
HETATM   11  H   UNL     1      66.366   9.417   7.217  1.00  0.00     0.157 HD
HETATM   12  H   UNL     1      67.719   8.481   7.667  1.00  0.00     0.157 HD
ENDBRANCH   1   8
TORSDOF 1
ENDMDL
MODEL 3
REMARK VINA RESULT:      -3.5      2.389      4.321
REMARK  1 active torsions:
REMARK  status: ('A' for Active; 'I' for Inactive)
REMARK    1  A    between atoms: C_1  and  C_4 
ROOT
HETATM    1  C   UNL     1      62.753   8.864   3.867  1.00  0.00     0.077 A 
HETATM    2  N   UNL     1      62.455  10.234   3.746  1.00  0.00    -0.351 N 
ATOM      3  HN  UNL     1      62.542  10.917   4.499  1.00  0.00     0.166 HD
HETATM    4  C   UNL     1      62.553   8.157   2.691  1.00  0.00     0.084 A 
HETATM    5  C   UNL     1      62.048  10.510   2.522  1.00  0.00     0.047 A 
HETATM    6  S   UNL     1      61.997   9.178   1.441  1.00  0.00    -0.087 SA
HETATM    7  C   UNL     1      61.638  11.855   2.027  1.00  0.00     0.076 C 
ENDROOT
BRANCH   1   8
HETATM    8  C   UNL     1      63.222   8.316   5.142  1.00  0.00     0.121 C 
HETATM    9  S   UNL     1      62.421   7.087   5.926  1.00  0.00    -0.059 SA
HETATM   10  N   UNL     1      64.356   8.855   5.679  1.00  0.00    -0.388 N 
HETATM   11  H   UNL     1      64.825   9.583   5.209  1.00  0.00     0.157 HD
HETATM   12  H   UNL     1      64.704   8.517   6.535  1.00  0.00     0.157 HD
ENDBRANCH   1   8
TORSDOF 1
ENDMDL
MODEL 4
REMARK VINA RESULT:      -3.5      2.024      4.269
REMARK  1 active torsions:
REMARK  status: ('A' for Active; 'I' for Inactive)
REMARK    1  A    between atoms: C_1  and  C_4 
ROOT
HETATM    1  C   UNL     1      63.552   8.766   4.626  1.00  0.00     0.077 A 
HETATM    2  N   UNL     1      63.259   8.363   3.309  1.00  0.00    -0.351 N 
ATOM      3  HN  UNL     1      63.627   7.524   2.862  1.00  0.00     0.166 HD
HETATM    4  C   UNL     1      62.917   9.945   4.988  1.00  0.00     0.084 A 
HETATM    5  C   UNL     1      62.442   9.225   2.735  1.00  0.00     0.047 A 
HETATM    6  S   UNL     1      61.965  10.555   3.709  1.00  0.00    -0.087 SA
HETATM    7  C   UNL     1      61.921   9.131   1.341  1.00  0.00     0.076 C 
ENDROOT
BRANCH   1   8
HETATM    8  C   UNL     1      64.447   7.967   5.465  1.00  0.00     0.121 C 
HETATM    9  S   UNL     1      66.054   7.754   5.093  1.00  0.00    -0.059 SA
HETATM   10  N   UNL     1      63.913   7.389   6.580  1.00  0.00    -0.388 N 
HETATM   11  H   UNL     1      62.960   7.519   6.794  1.00  0.00     0.157 HD
HETATM   12  H   UNL     1      64.480   6.842   7.171  1.00  0.00     0.157 HD
ENDBRANCH   1   8
TORSDOF 1
ENDMDL
MODEL 5
REMARK VINA RESULT:      -3.4      1.764      2.182
REMARK  1 active torsions:
REMARK  status: ('A' for Active; 'I' for Inactive)
REMARK    1  A    between atoms: C_1  and  C_4 
ROOT
HETATM    1  C   UNL     1      65.145   8.041   5.599  1.00  0.00     0.077 A 
HETATM    2  N   UNL     1      64.974   7.395   6.839  1.00  0.00    -0.351 N 
ATOM      3  HN  UNL     1      64.116   7.410   7.389  1.00  0.00     0.166 HD
HETATM    4  C   UNL     1      66.410   7.858   5.060  1.00  0.00     0.084 A 
HETATM    5  C   UNL     1      66.081   6.768   7.187  1.00  0.00     0.047 A 
HETATM    6  S   UNL     1      67.385   6.895   6.078  1.00  0.00    -0.087 SA
HETATM    7  C   UNL     1      66.276   5.982   8.439  1.00  0.00     0.076 C 
ENDROOT
BRANCH   1   8
HETATM    8  C   UNL     1      64.049   8.810   5.007  1.00  0.00     0.121 C 
HETATM    9  S   UNL     1      63.235   8.291   3.652  1.00  0.00    -0.059 SA
HETATM   10  N   UNL     1      63.711   9.988   5.608  1.00  0.00    -0.388 N 
HETATM   11  H   UNL     1      64.198  10.289   6.410  1.00  0.00     0.157 HD
HETATM   12  H   UNL     1      62.980  10.536   5.241  1.00  0.00     0.157 HD
ENDBRANCH   1   8
TORSDOF 1
ENDMDL
MODEL 6
REMARK VINA RESULT:      -3.3      2.438      4.324
REMARK  1 active torsions:
REMARK  status: ('A' for Active; 'I' for Inactive)
REMARK    1  A    between atoms: C_1  and  C_4 
ROOT
HETATM    1  C   UNL     1      65.451   7.571   6.228  1.00  0.00     0.077 A 
HETATM    2  N   UNL     1      64.304   6.959   6.766  1.00  0.00    -0.351 N 
ATOM      3  HN  UNL     1      64.292   6.382   7.607  1.00  0.00     0.166 HD
HETATM    4  C   UNL     1      65.190   8.304   5.079  1.00  0.00     0.084 A 
HETATM    5  C   UNL     1      63.246   7.236   6.028  1.00  0.00     0.047 A 
HETATM    6  S   UNL     1      63.536   8.236   4.663  1.00  0.00    -0.087 SA
HETATM    7  C   UNL     1      61.859   6.754   6.284  1.00  0.00     0.076 C 
ENDROOT
BRANCH   1   8
HETATM    8  C   UNL     1      66.754   7.403   6.875  1.00  0.00     0.121 C 
HETATM    9  S   UNL     1      66.915   6.691   8.370  1.00  0.00    -0.059 SA
HETATM   10  N   UNL     1      67.853   7.857   6.204  1.00  0.00    -0.388 N 
HETATM   11  H   UNL     1      67.750   8.278   5.319  1.00  0.00     0.157 HD
HETATM   12  H   UNL     1      68.747   7.764   6.604  1.00  0.00     0.157 HD
ENDBRANCH   1   8
TORSDOF 1
ENDMDL
MODEL 7
REMARK VINA RESULT:      -3.3     13.261     13.273
REMARK  1 active torsions:
REMARK  status: ('A' for Active; 'I' for Inactive)
REMARK    1  A    between atoms: C_1  and  C_4 
ROOT
HETATM    1  C   UNL     1      55.943   2.450  13.350  1.00  0.00     0.077 A 
HETATM    2  N   UNL     1      57.092   2.039  14.052  1.00  0.00    -0.351 N 
ATOM      3  HN  UNL     1      57.127   1.855  15.054  1.00  0.00     0.166 HD
HETATM    4  C   UNL     1      56.168   2.627  11.993  1.00  0.00     0.084 A 
HETATM    5  C   UNL     1      58.117   1.926  13.230  1.00  0.00     0.047 A 
HETATM    6  S   UNL     1      57.791   2.289  11.584  1.00  0.00    -0.087 SA
HETATM    7  C   UNL     1      59.499   1.519  13.616  1.00  0.00     0.076 C 
ENDROOT
BRANCH   1   8
HETATM    8  C   UNL     1      54.675   2.650  14.055  1.00  0.00     0.121 C 
HETATM    9  S   UNL     1      53.606   3.852  13.630  1.00  0.00    -0.059 SA
HETATM   10  N   UNL     1      54.392   1.807  15.091  1.00  0.00    -0.388 N 
HETATM   11  H   UNL     1      55.030   1.098  15.337  1.00  0.00     0.157 HD
HETATM   12  H   UNL     1      53.551   1.908  15.592  1.00  0.00     0.157 HD
ENDBRANCH   1   8
TORSDOF 1
ENDMDL
MODEL 8
REMARK VINA RESULT:      -3.2      1.877      1.969
REMARK  1 active torsions:
REMARK  status: ('A' for Active; 'I' for Inactive)
REMARK    1  A    between atoms: C_1  and  C_4 
ROOT
HETATM    1  C   UNL     1      62.445   9.261   4.468  1.00  0.00     0.077 A 
HETATM    2  N   UNL     1      63.350   8.858   5.469  1.00  0.00    -0.351 N 
ATOM      3  HN  UNL     1      63.931   9.492   6.017  1.00  0.00     0.166 HD
HETATM    4  C   UNL     1      61.777   8.198   3.878  1.00  0.00     0.084 A 
HETATM    5  C   UNL     1      63.339   7.545   5.597  1.00  0.00     0.047 A 
HETATM    6  S   UNL     1      62.263   6.708   4.555  1.00  0.00    -0.087 SA
HETATM    7  C   UNL     1      64.172   6.761   6.552  1.00  0.00     0.076 C 
ENDROOT
BRANCH   1   8
HETATM    8  C   UNL     1      62.285  10.679   4.140  1.00  0.00     0.121 C 
HETATM    9  S   UNL     1      61.789  11.190   2.636  1.00  0.00    -0.059 SA
HETATM   10  N   UNL     1      62.561  11.586   5.121  1.00  0.00    -0.388 N 
HETATM   11  H   UNL     1      62.855  11.277   6.010  1.00  0.00     0.157 HD
HETATM   12  H   UNL     1      62.467  12.550   4.942  1.00  0.00     0.157 HD
ENDBRANCH   1   8
TORSDOF 1
ENDMDL
MODEL 9
REMARK VINA RESULT:      -3.1      3.765      4.659
REMARK  1 active torsions:
REMARK  status: ('A' for Active; 'I' for Inactive)
REMARK    1  A    between atoms: C_1  and  C_4 
ROOT
HETATM    1  C   UNL     1      61.057   8.322   2.689  1.00  0.00     0.077 A 
HETATM    2  N   UNL     1      61.042   9.582   3.316  1.00  0.00    -0.351 N 
ATOM      3  HN  UNL     1      60.275  10.251   3.258  1.00  0.00     0.166 HD
HETATM    4  C   UNL     1      62.220   7.606   2.932  1.00  0.00     0.084 A 
HETATM    5  C   UNL     1      62.160   9.774   3.990  1.00  0.00     0.047 A 
HETATM    6  S   UNL     1      63.291   8.485   3.930  1.00  0.00    -0.087 SA
HETATM    7  C   UNL     1      62.501  10.996   4.773  1.00  0.00     0.076 C 
ENDROOT
BRANCH   1   8
HETATM    8  C   UNL     1      59.921   7.884   1.876  1.00  0.00     0.121 C 
HETATM    9  S   UNL     1      60.093   7.428   0.285  1.00  0.00    -0.059 SA
HETATM   10  N   UNL     1      58.693   7.862   2.472  1.00  0.00    -0.388 N 
HETATM   11  H   UNL     1      58.598   8.134   3.414  1.00  0.00     0.157 HD
HETATM   12  H   UNL     1      57.902   7.575   1.960  1.00  0.00     0.157 HD
ENDBRANCH   1   8
TORSDOF 1
ENDMDL
