MODEL 1
REMARK VINA RESULT:      -3.5      0.000      0.000
REMARK  0 active torsions:
REMARK  status: ('A' for Active; 'I' for Inactive)
ROOT
HETATM    1  N   UNL     1      61.079   9.171   2.895  1.00  0.00    -0.326 N 
ATOM      2  HN  UNL     1      60.399   9.034   2.148  1.00  0.00     0.169 HD
HETATM    3  C   UNL     1      61.435   8.336   3.830  1.00  0.00     0.155 A 
HETATM    4  N   UNL     1      62.376   8.831   4.679  1.00  0.00    -0.310 N 
HETATM    5  C   UNL     1      61.849  10.287   3.164  1.00  0.00     0.121 A 
HETATM    6  C   UNL     1      62.664  10.096   4.270  1.00  0.00     0.141 A 
HETATM    7  S   UNL     1      60.993   6.715   4.264  1.00  0.00    -0.064 SA
HETATM    8  C   UNL     1      62.780   7.982   5.683  1.00  0.00     0.106 A 
HETATM    9  C   UNL     1      62.141   6.800   5.613  1.00  0.00     0.071 A 
HETATM   10 CL   UNL     1      61.768  11.698   2.218  1.00  0.00    -0.063 Cl
ENDROOT
TORSDOF 0
ENDMDL
MODEL 2
REMARK VINA RESULT:      -3.4      4.747      5.476
REMARK  0 active torsions:
REMARK  status: ('A' for Active; 'I' for Inactive)
ROOT
HETATM    1  N   UNL     1      64.753   7.485   6.849  1.00  0.00    -0.326 N 
ATOM      2  HN  UNL     1      63.898   7.627   7.387  1.00  0.00     0.169 HD
HETATM    3  C   UNL     1      65.829   6.837   7.193  1.00  0.00     0.155 A 
HETATM    4  N   UNL     1      66.799   6.835   6.237  1.00  0.00    -0.310 N 
HETATM    5  C   UNL     1      65.054   7.934   5.576  1.00  0.00     0.121 A 
HETATM    6  C   UNL     1      66.321   7.540   5.177  1.00  0.00     0.141 A 
HETATM    7  S   UNL     1      66.338   5.958   8.601  1.00  0.00    -0.064 SA
HETATM    8  C   UNL     1      67.954   6.161   6.561  1.00  0.00     0.106 A 
HETATM    9  C   UNL     1      67.882   5.627   7.793  1.00  0.00     0.071 A 
HETATM   10 CL   UNL     1      63.960   8.856   4.654  1.00  0.00    -0.063 Cl
ENDROOT
TORSDOF 0
ENDMDL
MODEL 3
REMARK VINA RESULT:      -3.4      3.250      4.002
REMARK  0 active torsions:
REMARK  status: ('A' for Active; 'I' for Inactive)
ROOT
HETATM    1  N   UNL     1      64.253   9.377   5.534  1.00  0.00    -0.326 N 
ATOM      2  HN  UNL     1      64.274  10.112   6.240  1.00  0.00     0.169 HD
HETATM    3  C   UNL     1      63.427   9.234   4.537  1.00  0.00     0.155 A 
HETATM    4  N   UNL     1      63.673   8.135   3.773  1.00  0.00    -0.310 N 
HETATM    5  C   UNL     1      65.093   8.287   5.401  1.00  0.00     0.121 A 
HETATM    6  C   UNL     1      64.750   7.502   4.311  1.00  0.00     0.141 A 
HETATM    7  S   UNL     1      62.063  10.122   3.934  1.00  0.00    -0.064 SA
HETATM    8  C   UNL     1      62.823   7.946   2.708  1.00  0.00     0.106 A 
HETATM    9  C   UNL     1      61.896   8.919   2.641  1.00  0.00     0.071 A 
HETATM   10 CL   UNL     1      66.379   7.993   6.475  1.00  0.00    -0.063 Cl
ENDROOT
TORSDOF 0
ENDMDL
MODEL 4
REMARK VINA RESULT:      -3.3      3.120      3.588
REMARK  0 active torsions:
REMARK  status: ('A' for Active; 'I' for Inactive)
ROOT
HETATM    1  N   UNL     1      64.120   9.450   5.456  1.00  0.00    -0.326 N 
ATOM      2  HN  UNL     1      64.142  10.193   6.154  1.00  0.00     0.169 HD
HETATM    3  C   UNL     1      64.929   8.438   5.323  1.00  0.00     0.155 A 
HETATM    4  N   UNL     1      64.620   7.622   4.279  1.00  0.00    -0.310 N 
HETATM    5  C   UNL     1      63.224   9.272   4.418  1.00  0.00     0.121 A 
HETATM    6  C   UNL     1      63.517   8.139   3.675  1.00  0.00     0.141 A 
HETATM    7  S   UNL     1      66.331   7.865   6.171  1.00  0.00    -0.064 SA
HETATM    8  C   UNL     1      65.451   6.539   4.102  1.00  0.00     0.106 A 
HETATM    9  C   UNL     1      66.425   6.512   5.029  1.00  0.00     0.071 A 
HETATM   10 CL   UNL     1      61.934  10.344   4.134  1.00  0.00    -0.063 Cl
ENDROOT
TORSDOF 0
ENDMDL
MODEL 5
REMARK VINA RESULT:      -3.1      5.221      6.167
REMARK  0 active torsions:
REMARK  status: ('A' for Active; 'I' for Inactive)
ROOT
HETATM    1  N   UNL     1      65.565   6.840   7.786  1.00  0.00    -0.326 N 
ATOM      2  HN  UNL     1      64.971   6.966   8.606  1.00  0.00     0.169 HD
HETATM    3  C   UNL     1      65.248   6.967   6.529  1.00  0.00     0.155 A 
HETATM    4  N   UNL     1      66.281   6.729   5.676  1.00  0.00    -0.310 N 
HETATM    5  C   UNL     1      66.902   6.494   7.737  1.00  0.00     0.121 A 
HETATM    6  C   UNL     1      67.367   6.420   6.434  1.00  0.00     0.141 A 
HETATM    7  S   UNL     1      63.802   7.375   5.661  1.00  0.00    -0.064 SA
HETATM    8  C   UNL     1      65.989   6.852   4.337  1.00  0.00     0.106 A 
HETATM    9  C   UNL     1      64.703   7.194   4.144  1.00  0.00     0.071 A 
HETATM   10 CL   UNL     1      67.820   6.205   9.141  1.00  0.00    -0.063 Cl
ENDROOT
TORSDOF 0
ENDMDL
MODEL 6
REMARK VINA RESULT:      -3.1      4.397      5.301
REMARK  0 active torsions:
REMARK  status: ('A' for Active; 'I' for Inactive)
ROOT
HETATM    1  N   UNL     1      65.279   6.204   7.025  1.00  0.00    -0.326 N 
ATOM      2  HN  UNL     1      65.027   5.392   7.589  1.00  0.00     0.169 HD
HETATM    3  C   UNL     1      64.493   7.011   6.370  1.00  0.00     0.155 A 
HETATM    4  N   UNL     1      65.151   8.005   5.714  1.00  0.00    -0.310 N 
HETATM    5  C   UNL     1      66.536   6.717   6.769  1.00  0.00     0.121 A 
HETATM    6  C   UNL     1      66.479   7.838   5.956  1.00  0.00     0.141 A 
HETATM    7  S   UNL     1      62.779   7.130   6.128  1.00  0.00    -0.064 SA
HETATM    8  C   UNL     1      64.359   8.880   5.008  1.00  0.00     0.106 A 
HETATM    9  C   UNL     1      63.056   8.562   5.119  1.00  0.00     0.071 A 
HETATM   10 CL   UNL     1      67.952   6.017   7.404  1.00  0.00    -0.063 Cl
ENDROOT
TORSDOF 0
ENDMDL
MODEL 7
REMARK VINA RESULT:      -3.0      3.451      4.084
REMARK  0 active torsions:
REMARK  status: ('A' for Active; 'I' for Inactive)
ROOT
HETATM    1  N   UNL     1      63.445   6.799   5.692  1.00  0.00    -0.326 N 
ATOM      2  HN  UNL     1      62.746   6.067   5.815  1.00  0.00     0.169 HD
HETATM    3  C   UNL     1      64.630   6.886   6.226  1.00  0.00     0.155 A 
HETATM    4  N   UNL     1      65.320   7.998   5.853  1.00  0.00    -0.310 N 
HETATM    5  C   UNL     1      63.367   7.942   4.919  1.00  0.00     0.121 A 
HETATM    6  C   UNL     1      64.524   8.701   5.005  1.00  0.00     0.141 A 
HETATM    7  S   UNL     1      65.562   5.908   7.316  1.00  0.00    -0.064 SA
HETATM    8  C   UNL     1      66.578   8.129   6.395  1.00  0.00     0.106 A 
HETATM    9  C   UNL     1      66.874   7.096   7.205  1.00  0.00     0.071 A 
HETATM   10 CL   UNL     1      61.992   8.322   3.992  1.00  0.00    -0.063 Cl
ENDROOT
TORSDOF 0
ENDMDL
MODEL 8
REMARK VINA RESULT:      -2.9     12.190     13.057
REMARK  0 active torsions:
REMARK  status: ('A' for Active; 'I' for Inactive)
ROOT
HETATM    1  N   UNL     1      57.009   1.570  14.287  1.00  0.00    -0.326 N 
ATOM      2  HN  UNL     1      57.221   1.143  15.189  1.00  0.00     0.169 HD
HETATM    3  C   UNL     1      55.848   1.902  13.800  1.00  0.00     0.155 A 
HETATM    4  N   UNL     1      55.911   2.456  12.558  1.00  0.00    -0.310 N 
HETATM    5  C   UNL     1      57.885   1.937  13.282  1.00  0.00     0.121 A 
HETATM    6  C   UNL     1      57.222   2.491  12.198  1.00  0.00     0.141 A 
HETATM    7  S   UNL     1      54.207   1.809  14.360  1.00  0.00    -0.064 SA
HETATM    8  C   UNL     1      54.705   2.820  12.006  1.00  0.00     0.106 A 
HETATM    9  C   UNL     1      53.682   2.546  12.835  1.00  0.00     0.071 A 
HETATM   10 CL   UNL     1      59.567   1.714  13.414  1.00  0.00    -0.063 Cl
ENDROOT
TORSDOF 0
ENDMDL
MODEL 9
REMARK VINA RESULT:      -2.9      2.506      2.642
REMARK  0 active torsions:
REMARK  status: ('A' for Active; 'I' for Inactive)
ROOT
HETATM    1  N   UNL     1      63.047   7.278   2.205  1.00  0.00    -0.326 N 
ATOM      2  HN  UNL     1      63.091   6.473   1.580  1.00  0.00     0.169 HD
HETATM    3  C   UNL     1      63.728   7.498   3.293  1.00  0.00     0.155 A 
HETATM    4  N   UNL     1      63.429   8.679   3.900  1.00  0.00    -0.310 N 
HETATM    5  C   UNL     1      62.248   8.402   2.106  1.00  0.00     0.121 A 
HETATM    6  C   UNL     1      62.471   9.286   3.150  1.00  0.00     0.141 A 
HETATM    7  S   UNL     1      64.950   6.635   4.174  1.00  0.00    -0.064 SA
HETATM    8  C   UNL     1      64.126   8.950   5.054  1.00  0.00     0.106 A 
HETATM    9  C   UNL     1      64.988   7.961   5.351  1.00  0.00     0.071 A 
HETATM   10 CL   UNL     1      61.142   8.622   0.832  1.00  0.00    -0.063 Cl
ENDROOT
TORSDOF 0
ENDMDL
