MODEL 1
REMARK VINA RESULT:      -4.5      0.000      0.000
REMARK  3 active torsions:
REMARK  status: ('A' for Active; 'I' for Inactive)
REMARK    1  A    between atoms: C_1  and  N_2 
REMARK    2  A    between atoms: C_1  and  N_6 
REMARK    3  A    between atoms: N_2  and  C_3 
ROOT
HETATM    1  C   UNL     1      62.812   9.228   3.836  1.00  0.00     0.040 A 
HETATM    2  C   UNL     1      62.503  10.553   4.201  1.00  0.00    -0.035 A 
HETATM    3  C   UNL     1      62.535   8.806   2.529  1.00  0.00     0.030 A 
HETATM    4  C   UNL     1      62.751  11.139   5.566  1.00  0.00     0.050 C 
HETATM    5  C   UNL     1      61.934  11.412   3.239  1.00  0.00     0.009 A 
HETATM    6  C   UNL     1      61.983   9.670   1.586  1.00  0.00     0.002 A 
HETATM    7  C   UNL     1      61.681  10.976   1.941  1.00  0.00     0.001 A 
ENDROOT
BRANCH   1   8
HETATM    8  N   UNL     1      63.288   8.306   4.796  1.00  0.00    -0.333 N 
HETATM    9  H   UNL     1      62.615   7.960   5.426  1.00  0.00     0.168 HD
BRANCH   8  10
HETATM   10  C   UNL     1      64.565   7.827   4.969  1.00  0.00     0.170 C 
HETATM   11  S   UNL     1      65.382   6.656   4.113  1.00  0.00    -0.041 SA
BRANCH  10  12
HETATM   12  N   UNL     1      65.230   8.492   5.960  1.00  0.00    -0.376 N 
HETATM   13  H   UNL     1      64.726   8.922   6.689  1.00  0.00     0.158 HD
HETATM   14  H   UNL     1      66.213   8.542   5.946  1.00  0.00     0.158 HD
ENDBRANCH  10  12
ENDBRANCH   8  10
ENDBRANCH   1   8
TORSDOF 3
ENDMDL
MODEL 2
REMARK VINA RESULT:      -4.5      1.173      2.421
REMARK  3 active torsions:
REMARK  status: ('A' for Active; 'I' for Inactive)
REMARK    1  A    between atoms: C_1  and  N_2 
REMARK    2  A    between atoms: C_1  and  N_6 
REMARK    3  A    between atoms: N_2  and  C_3 
ROOT
HETATM    1  C   UNL     1      62.414   9.066   3.540  1.00  0.00     0.040 A 
HETATM    2  C   UNL     1      62.274   8.981   2.141  1.00  0.00    -0.035 A 
HETATM    3  C   UNL     1      62.234  10.307   4.164  1.00  0.00     0.030 A 
HETATM    4  C   UNL     1      62.435   7.713   1.345  1.00  0.00     0.050 C 
HETATM    5  C   UNL     1      61.949  10.145   1.415  1.00  0.00     0.009 A 
HETATM    6  C   UNL     1      61.901  11.447   3.434  1.00  0.00     0.002 A 
HETATM    7  C   UNL     1      61.758  11.367   2.057  1.00  0.00     0.001 A 
ENDROOT
BRANCH   1   8
HETATM    8  N   UNL     1      62.839   7.946   4.293  1.00  0.00    -0.333 N 
HETATM    9  H   UNL     1      62.473   7.078   4.009  1.00  0.00     0.168 HD
BRANCH   8  10
HETATM   10  C   UNL     1      63.695   7.908   5.368  1.00  0.00     0.170 C 
HETATM   11  S   UNL     1      65.347   8.107   5.415  1.00  0.00    -0.041 SA
BRANCH  10  12
HETATM   12  N   UNL     1      63.025   7.743   6.547  1.00  0.00    -0.376 N 
HETATM   13  H   UNL     1      62.301   7.079   6.614  1.00  0.00     0.158 HD
HETATM   14  H   UNL     1      63.267   8.287   7.331  1.00  0.00     0.158 HD
ENDBRANCH  10  12
ENDBRANCH   8  10
ENDBRANCH   1   8
TORSDOF 3
ENDMDL
MODEL 3
REMARK VINA RESULT:      -4.3      1.147      1.424
REMARK  3 active torsions:
REMARK  status: ('A' for Active; 'I' for Inactive)
REMARK    1  A    between atoms: C_1  and  N_2 
REMARK    2  A    between atoms: C_1  and  N_6 
REMARK    3  A    between atoms: N_2  and  C_3 
ROOT
HETATM    1  C   UNL     1      62.549   8.748   3.685  1.00  0.00     0.040 A 
HETATM    2  C   UNL     1      62.203  10.061   3.309  1.00  0.00    -0.035 A 
HETATM    3  C   UNL     1      62.603   7.754   2.698  1.00  0.00     0.030 A 
HETATM    4  C   UNL     1      62.112  11.222   4.262  1.00  0.00     0.050 C 
HETATM    5  C   UNL     1      61.931  10.334   1.953  1.00  0.00     0.009 A 
HETATM    6  C   UNL     1      62.343   8.043   1.360  1.00  0.00     0.002 A 
HETATM    7  C   UNL     1      62.006   9.334   0.986  1.00  0.00     0.001 A 
ENDROOT
BRANCH   1   8
HETATM    8  N   UNL     1      62.730   8.409   5.046  1.00  0.00    -0.333 N 
HETATM    9  H   UNL     1      61.949   8.553   5.628  1.00  0.00     0.168 HD
BRANCH   8  10
HETATM   10  C   UNL     1      63.849   7.907   5.665  1.00  0.00     0.170 C 
HETATM   11  S   UNL     1      64.112   6.399   6.318  1.00  0.00    -0.041 SA
BRANCH  10  12
HETATM   12  N   UNL     1      64.882   8.802   5.656  1.00  0.00    -0.376 N 
HETATM   13  H   UNL     1      64.793   9.652   5.168  1.00  0.00     0.158 HD
HETATM   14  H   UNL     1      65.715   8.596   6.138  1.00  0.00     0.158 HD
ENDBRANCH  10  12
ENDBRANCH   8  10
ENDBRANCH   1   8
TORSDOF 3
ENDMDL
MODEL 4
REMARK VINA RESULT:      -4.2      1.428      2.561
REMARK  3 active torsions:
REMARK  status: ('A' for Active; 'I' for Inactive)
REMARK    1  A    between atoms: C_1  and  N_2 
REMARK    2  A    between atoms: C_1  and  N_6 
REMARK    3  A    between atoms: N_2  and  C_3 
ROOT
HETATM    1  C   UNL     1      62.493   8.980   3.267  1.00  0.00     0.040 A 
HETATM    2  C   UNL     1      62.172   9.425   1.970  1.00  0.00    -0.035 A 
HETATM    3  C   UNL     1      62.472   9.902   4.322  1.00  0.00     0.030 A 
HETATM    4  C   UNL     1      62.151   8.543   0.750  1.00  0.00     0.050 C 
HETATM    5  C   UNL     1      61.833  10.779   1.776  1.00  0.00     0.009 A 
HETATM    6  C   UNL     1      62.123  11.236   4.117  1.00  0.00     0.002 A 
HETATM    7  C   UNL     1      61.803  11.676   2.842  1.00  0.00     0.001 A 
ENDROOT
BRANCH   1   8
HETATM    8  N   UNL     1      62.937   7.656   3.489  1.00  0.00    -0.333 N 
HETATM    9  H   UNL     1      62.786   7.026   2.748  1.00  0.00     0.168 HD
BRANCH   8  10
HETATM   10  C   UNL     1      63.552   7.130   4.599  1.00  0.00     0.170 C 
HETATM   11  S   UNL     1      62.879   6.469   5.971  1.00  0.00    -0.041 SA
BRANCH  10  12
HETATM   12  N   UNL     1      64.913   7.120   4.472  1.00  0.00    -0.376 N 
HETATM   13  H   UNL     1      65.367   7.842   3.980  1.00  0.00     0.158 HD
HETATM   14  H   UNL     1      65.439   6.391   4.873  1.00  0.00     0.158 HD
ENDBRANCH  10  12
ENDBRANCH   8  10
ENDBRANCH   1   8
TORSDOF 3
ENDMDL
MODEL 5
REMARK VINA RESULT:      -4.1      2.019      2.806
REMARK  3 active torsions:
REMARK  status: ('A' for Active; 'I' for Inactive)
REMARK    1  A    between atoms: C_1  and  N_2 
REMARK    2  A    between atoms: C_1  and  N_6 
REMARK    3  A    between atoms: N_2  and  C_3 
ROOT
HETATM    1  C   UNL     1      64.610   8.336   4.964  1.00  0.00     0.040 A 
HETATM    2  C   UNL     1      63.523   9.174   4.646  1.00  0.00    -0.035 A 
HETATM    3  C   UNL     1      64.829   7.190   4.189  1.00  0.00     0.030 A 
HETATM    4  C   UNL     1      63.176  10.436   5.389  1.00  0.00     0.050 C 
HETATM    5  C   UNL     1      62.697   8.837   3.554  1.00  0.00     0.009 A 
HETATM    6  C   UNL     1      64.011   6.876   3.106  1.00  0.00     0.002 A 
HETATM    7  C   UNL     1      62.942   7.700   2.787  1.00  0.00     0.001 A 
ENDROOT
BRANCH   1   8
HETATM    8  N   UNL     1      65.401   8.582   6.111  1.00  0.00    -0.333 N 
HETATM    9  H   UNL     1      65.250   9.447   6.555  1.00  0.00     0.168 HD
BRANCH   8  10
HETATM   10  C   UNL     1      66.351   7.775   6.688  1.00  0.00     0.170 C 
HETATM   11  S   UNL     1      66.162   6.516   7.762  1.00  0.00    -0.041 SA
BRANCH  10  12
HETATM   12  N   UNL     1      67.606   8.053   6.226  1.00  0.00    -0.376 N 
HETATM   13  H   UNL     1      67.986   8.954   6.345  1.00  0.00     0.158 HD
HETATM   14  H   UNL     1      68.131   7.354   5.775  1.00  0.00     0.158 HD
ENDBRANCH  10  12
ENDBRANCH   8  10
ENDBRANCH   1   8
TORSDOF 3
ENDMDL
MODEL 6
REMARK VINA RESULT:      -4.0      1.704      2.932
REMARK  3 active torsions:
REMARK  status: ('A' for Active; 'I' for Inactive)
REMARK    1  A    between atoms: C_1  and  N_2 
REMARK    2  A    between atoms: C_1  and  N_6 
REMARK    3  A    between atoms: N_2  and  C_3 
ROOT
HETATM    1  C   UNL     1      64.260   8.651   4.667  1.00  0.00     0.040 A 
HETATM    2  C   UNL     1      63.572   7.954   3.656  1.00  0.00    -0.035 A 
HETATM    3  C   UNL     1      63.706   9.837   5.168  1.00  0.00     0.030 A 
HETATM    4  C   UNL     1      64.049   6.669   3.033  1.00  0.00     0.050 C 
HETATM    5  C   UNL     1      62.345   8.466   3.186  1.00  0.00     0.009 A 
HETATM    6  C   UNL     1      62.487  10.324   4.702  1.00  0.00     0.002 A 
HETATM    7  C   UNL     1      61.805   9.638   3.709  1.00  0.00     0.001 A 
ENDROOT
BRANCH   1   8
HETATM    8  N   UNL     1      65.541   8.228   5.094  1.00  0.00    -0.333 N 
HETATM    9  H   UNL     1      66.266   8.338   4.438  1.00  0.00     0.168 HD
BRANCH   8  10
HETATM   10  C   UNL     1      65.908   7.685   6.302  1.00  0.00     0.170 C 
HETATM   11  S   UNL     1      65.304   6.349   7.090  1.00  0.00    -0.041 SA
BRANCH  10  12
HETATM   12  N   UNL     1      66.968   8.344   6.857  1.00  0.00    -0.376 N 
HETATM   13  H   UNL     1      67.449   7.949   7.620  1.00  0.00     0.158 HD
HETATM   14  H   UNL     1      67.252   9.214   6.494  1.00  0.00     0.158 HD
ENDBRANCH  10  12
ENDBRANCH   8  10
ENDBRANCH   1   8
TORSDOF 3
ENDMDL
MODEL 7
REMARK VINA RESULT:      -3.9      2.503      3.338
REMARK  3 active torsions:
REMARK  status: ('A' for Active; 'I' for Inactive)
REMARK    1  A    between atoms: C_1  and  N_2 
REMARK    2  A    between atoms: C_1  and  N_6 
REMARK    3  A    between atoms: N_2  and  C_3 
ROOT
HETATM    1  C   UNL     1      62.406   8.952   2.525  1.00  0.00     0.040 A 
HETATM    2  C   UNL     1      62.486   9.311   3.885  1.00  0.00    -0.035 A 
HETATM    3  C   UNL     1      62.055   9.932   1.587  1.00  0.00     0.030 A 
HETATM    4  C   UNL     1      62.855   8.363   4.994  1.00  0.00     0.050 C 
HETATM    5  C   UNL     1      62.218  10.644   4.257  1.00  0.00     0.009 A 
HETATM    6  C   UNL     1      61.804  11.249   1.968  1.00  0.00     0.002 A 
HETATM    7  C   UNL     1      61.886  11.606   3.306  1.00  0.00     0.001 A 
ENDROOT
BRANCH   1   8
HETATM    8  N   UNL     1      62.567   7.606   2.122  1.00  0.00    -0.333 N 
HETATM    9  H   UNL     1      63.496   7.305   2.002  1.00  0.00     0.168 HD
BRANCH   8  10
HETATM   10  C   UNL     1      61.599   6.662   1.875  1.00  0.00     0.170 C 
HETATM   11  S   UNL     1      60.297   6.211   2.808  1.00  0.00    -0.041 SA
BRANCH  10  12
HETATM   12  N   UNL     1      61.747   6.090   0.643  1.00  0.00    -0.376 N 
HETATM   13  H   UNL     1      61.057   6.223  -0.048  1.00  0.00     0.158 HD
HETATM   14  H   UNL     1      62.542   5.545   0.445  1.00  0.00     0.158 HD
ENDBRANCH  10  12
ENDBRANCH   8  10
ENDBRANCH   1   8
TORSDOF 3
ENDMDL
MODEL 8
REMARK VINA RESULT:      -3.7     13.834     14.954
REMARK  3 active torsions:
REMARK  status: ('A' for Active; 'I' for Inactive)
REMARK    1  A    between atoms: C_1  and  N_2 
REMARK    2  A    between atoms: C_1  and  N_6 
REMARK    3  A    between atoms: N_2  and  C_3 
ROOT
HETATM    1  C   UNL     1      57.265   0.757  13.916  1.00  0.00     0.040 A 
HETATM    2  C   UNL     1      57.664  -0.523  13.484  1.00  0.00    -0.035 A 
HETATM    3  C   UNL     1      58.201   1.800  13.891  1.00  0.00     0.030 A 
HETATM    4  C   UNL     1      56.763  -1.729  13.454  1.00  0.00     0.050 C 
HETATM    5  C   UNL     1      58.987  -0.712  13.035  1.00  0.00     0.009 A 
HETATM    6  C   UNL     1      59.501   1.601  13.433  1.00  0.00     0.002 A 
HETATM    7  C   UNL     1      59.896   0.343  13.004  1.00  0.00     0.001 A 
ENDROOT
BRANCH   1   8
HETATM    8  N   UNL     1      55.981   0.966  14.469  1.00  0.00    -0.333 N 
HETATM    9  H   UNL     1      55.779   0.453  15.285  1.00  0.00     0.168 HD
BRANCH   8  10
HETATM   10  C   UNL     1      54.976   1.790  14.022  1.00  0.00     0.170 C 
HETATM   11  S   UNL     1      53.845   1.530  12.828  1.00  0.00    -0.041 SA
BRANCH  10  12
HETATM   12  N   UNL     1      54.907   2.949  14.742  1.00  0.00    -0.376 N 
HETATM   13  H   UNL     1      55.726   3.463  14.927  1.00  0.00     0.158 HD
HETATM   14  H   UNL     1      54.039   3.270  15.075  1.00  0.00     0.158 HD
ENDBRANCH  10  12
ENDBRANCH   8  10
ENDBRANCH   1   8
TORSDOF 3
ENDMDL
MODEL 9
REMARK VINA RESULT:      -3.6      2.493      4.755
REMARK  3 active torsions:
REMARK  status: ('A' for Active; 'I' for Inactive)
REMARK    1  A    between atoms: C_1  and  N_2 
REMARK    2  A    between atoms: C_1  and  N_6 
REMARK    3  A    between atoms: N_2  and  C_3 
ROOT
HETATM    1  C   UNL     1      63.768   7.997   4.001  1.00  0.00     0.040 A 
HETATM    2  C   UNL     1      64.405   6.885   3.415  1.00  0.00    -0.035 A 
HETATM    3  C   UNL     1      64.417   8.678   5.039  1.00  0.00     0.030 A 
HETATM    4  C   UNL     1      63.827   6.067   2.292  1.00  0.00     0.050 C 
HETATM    5  C   UNL     1      65.677   6.500   3.886  1.00  0.00     0.009 A 
HETATM    6  C   UNL     1      65.680   8.292   5.486  1.00  0.00     0.002 A 
HETATM    7  C   UNL     1      66.311   7.201   4.909  1.00  0.00     0.001 A 
ENDROOT
BRANCH   1   8
HETATM    8  N   UNL     1      62.451   8.354   3.629  1.00  0.00    -0.333 N 
HETATM    9  H   UNL     1      61.731   7.875   4.098  1.00  0.00     0.168 HD
BRANCH   8  10
HETATM   10  C   UNL     1      62.043   9.281   2.701  1.00  0.00     0.170 C 
HETATM   11  S   UNL     1      62.051   9.192   1.039  1.00  0.00    -0.041 SA
BRANCH  10  12
HETATM   12  N   UNL     1      61.502  10.389   3.290  1.00  0.00    -0.376 N 
HETATM   13  H   UNL     1      61.757  10.632   4.210  1.00  0.00     0.158 HD
HETATM   14  H   UNL     1      60.859  10.946   2.795  1.00  0.00     0.158 HD
ENDBRANCH  10  12
ENDBRANCH   8  10
ENDBRANCH   1   8
TORSDOF 3
ENDMDL
