MODEL 1
REMARK VINA RESULT:      -3.6      0.000      0.000
REMARK  0 active torsions:
REMARK  status: ('A' for Active; 'I' for Inactive)
ROOT
HETATM    1  N   UNL     1      62.224  10.111   4.067  1.00  0.00    -0.345 N 
ATOM      2  HN  UNL     1      62.188  10.823   4.797  1.00  0.00     0.167 HD
HETATM    3  C   UNL     1      62.475   8.765   4.276  1.00  0.00     0.121 A 
HETATM    4  C   UNL     1      62.039  10.331   2.782  1.00  0.00     0.047 A 
HETATM    5  S   UNL     1      62.156   8.945   1.768  1.00  0.00    -0.086 SA
HETATM    6  N   UNL     1      62.904   7.840   6.662  1.00  0.00    -0.190 NA
HETATM    7  C   UNL     1      62.709   8.278   5.603  1.00  0.00     0.118 C 
HETATM    8  C   UNL     1      62.477   7.976   3.146  1.00  0.00     0.092 A 
HETATM    9  C   UNL     1      61.746  11.663   2.185  1.00  0.00     0.076 C 
ENDROOT
TORSDOF 0
ENDMDL
MODEL 2
REMARK VINA RESULT:      -3.5      2.278      3.116
REMARK  0 active torsions:
REMARK  status: ('A' for Active; 'I' for Inactive)
ROOT
HETATM    1  N   UNL     1      60.878   9.486   1.854  1.00  0.00    -0.345 N 
ATOM      2  HN  UNL     1      60.147  10.159   1.626  1.00  0.00     0.167 HD
HETATM    3  C   UNL     1      61.873   9.676   2.798  1.00  0.00     0.121 A 
HETATM    4  C   UNL     1      61.019   8.301   1.297  1.00  0.00     0.047 A 
HETATM    5  S   UNL     1      62.344   7.364   1.873  1.00  0.00    -0.086 SA
HETATM    6  N   UNL     1      62.011  11.874   4.169  1.00  0.00    -0.190 NA
HETATM    7  C   UNL     1      61.929  10.899   3.543  1.00  0.00     0.118 C 
HETATM    8  C   UNL     1      62.762   8.632   2.948  1.00  0.00     0.092 A 
HETATM    9  C   UNL     1      60.129   7.752   0.238  1.00  0.00     0.076 C 
ENDROOT
TORSDOF 0
ENDMDL
MODEL 3
REMARK VINA RESULT:      -3.5      1.536      1.853
REMARK  0 active torsions:
REMARK  status: ('A' for Active; 'I' for Inactive)
ROOT
HETATM    1  N   UNL     1      62.550   8.405   3.144  1.00  0.00    -0.345 N 
ATOM      2  HN  UNL     1      62.785   7.421   3.012  1.00  0.00     0.167 HD
HETATM    3  C   UNL     1      62.526   9.065   4.361  1.00  0.00     0.121 A 
HETATM    4  C   UNL     1      62.222   9.242   2.181  1.00  0.00     0.047 A 
HETATM    5  S   UNL     1      61.872  10.851   2.685  1.00  0.00    -0.086 SA
HETATM    6  N   UNL     1      63.106   7.825   6.565  1.00  0.00    -0.190 NA
HETATM    7  C   UNL     1      62.850   8.359   5.565  1.00  0.00     0.118 C 
HETATM    8  C   UNL     1      62.181  10.399   4.310  1.00  0.00     0.092 A 
HETATM    9  C   UNL     1      62.142   8.884   0.738  1.00  0.00     0.076 C 
ENDROOT
TORSDOF 0
ENDMDL
MODEL 4
REMARK VINA RESULT:      -3.4      1.876      3.769
REMARK  0 active torsions:
REMARK  status: ('A' for Active; 'I' for Inactive)
ROOT
HETATM    1  N   UNL     1      63.493   8.943   5.622  1.00  0.00    -0.345 N 
ATOM      2  HN  UNL     1      63.554   9.456   6.501  1.00  0.00     0.167 HD
HETATM    3  C   UNL     1      62.953   9.435   4.445  1.00  0.00     0.121 A 
HETATM    4  C   UNL     1      63.915   7.710   5.431  1.00  0.00     0.047 A 
HETATM    5  S   UNL     1      63.687   7.085   3.843  1.00  0.00    -0.086 SA
HETATM    6  N   UNL     1      61.983  11.839   4.324  1.00  0.00    -0.190 NA
HETATM    7  C   UNL     1      62.423  10.766   4.402  1.00  0.00     0.118 C 
HETATM    8  C   UNL     1      62.971   8.570   3.372  1.00  0.00     0.092 A 
HETATM    9  C   UNL     1      64.555   6.863   6.476  1.00  0.00     0.076 C 
ENDROOT
TORSDOF 0
ENDMDL
MODEL 5
REMARK VINA RESULT:      -3.3      5.196      6.822
REMARK  0 active torsions:
REMARK  status: ('A' for Active; 'I' for Inactive)
ROOT
HETATM    1  N   UNL     1      66.745   7.210   7.688  1.00  0.00    -0.345 N 
ATOM      2  HN  UNL     1      66.537   7.936   8.373  1.00  0.00     0.167 HD
HETATM    3  C   UNL     1      66.322   7.213   6.369  1.00  0.00     0.121 A 
HETATM    4  C   UNL     1      67.456   6.127   7.921  1.00  0.00     0.047 A 
HETATM    5  S   UNL     1      67.653   5.066   6.580  1.00  0.00    -0.086 SA
HETATM    6  N   UNL     1      64.882   9.156   5.431  1.00  0.00    -0.190 NA
HETATM    7  C   UNL     1      65.527   8.297   5.873  1.00  0.00     0.118 C 
HETATM    8  C   UNL     1      66.719   6.130   5.613  1.00  0.00     0.092 A 
HETATM    9  C   UNL     1      68.075   5.787   9.232  1.00  0.00     0.076 C 
ENDROOT
TORSDOF 0
ENDMDL
MODEL 6
REMARK VINA RESULT:      -3.2      1.664      2.804
REMARK  0 active torsions:
REMARK  status: ('A' for Active; 'I' for Inactive)
ROOT
HETATM    1  N   UNL     1      63.501   8.571   4.145  1.00  0.00    -0.345 N 
ATOM      2  HN  UNL     1      64.211   8.219   4.787  1.00  0.00     0.167 HD
HETATM    3  C   UNL     1      62.795   9.752   4.305  1.00  0.00     0.121 A 
HETATM    4  C   UNL     1      63.115   7.973   3.037  1.00  0.00     0.047 A 
HETATM    5  S   UNL     1      61.896   8.791   2.138  1.00  0.00    -0.086 SA
HETATM    6  N   UNL     1      63.208  11.289   6.354  1.00  0.00    -0.190 NA
HETATM    7  C   UNL     1      63.040  10.585   5.445  1.00  0.00     0.118 C 
HETATM    8  C   UNL     1      61.879  10.039   3.314  1.00  0.00     0.092 A 
HETATM    9  C   UNL     1      63.658   6.679   2.541  1.00  0.00     0.076 C 
ENDROOT
TORSDOF 0
ENDMDL
MODEL 7
REMARK VINA RESULT:      -3.1      4.425      5.351
REMARK  0 active torsions:
REMARK  status: ('A' for Active; 'I' for Inactive)
ROOT
HETATM    1  N   UNL     1      65.588   7.690   6.780  1.00  0.00    -0.345 N 
ATOM      2  HN  UNL     1      64.904   7.996   7.472  1.00  0.00     0.167 HD
HETATM    3  C   UNL     1      66.749   6.989   7.061  1.00  0.00     0.121 A 
HETATM    4  C   UNL     1      65.503   7.902   5.483  1.00  0.00     0.047 A 
HETATM    5  S   UNL     1      66.801   7.274   4.543  1.00  0.00    -0.086 SA
HETATM    6  N   UNL     1      67.358   6.332   9.496  1.00  0.00    -0.190 NA
HETATM    7  C   UNL     1      67.064   6.637   8.414  1.00  0.00     0.118 C 
HETATM    8  C   UNL     1      67.534   6.674   5.972  1.00  0.00     0.092 A 
HETATM    9  C   UNL     1      64.387   8.626   4.815  1.00  0.00     0.076 C 
ENDROOT
TORSDOF 0
ENDMDL
MODEL 8
REMARK VINA RESULT:      -3.1      2.863      4.281
REMARK  0 active torsions:
REMARK  status: ('A' for Active; 'I' for Inactive)
ROOT
HETATM    1  N   UNL     1      64.733   8.823   4.991  1.00  0.00    -0.345 N 
ATOM      2  HN  UNL     1      65.196   9.562   4.461  1.00  0.00     0.167 HD
HETATM    3  C   UNL     1      63.364   8.689   5.147  1.00  0.00     0.121 A 
HETATM    4  C   UNL     1      65.348   7.849   5.630  1.00  0.00     0.047 A 
HETATM    5  S   UNL     1      64.321   6.733   6.445  1.00  0.00    -0.086 SA
HETATM    6  N   UNL     1      61.724  10.382   4.062  1.00  0.00    -0.190 NA
HETATM    7  C   UNL     1      62.478   9.637   4.538  1.00  0.00     0.118 C 
HETATM    8  C   UNL     1      62.952   7.614   5.905  1.00  0.00     0.092 A 
HETATM    9  C   UNL     1      66.825   7.670   5.682  1.00  0.00     0.076 C 
ENDROOT
TORSDOF 0
ENDMDL
MODEL 9
REMARK VINA RESULT:      -2.9      2.301      2.698
REMARK  0 active torsions:
REMARK  status: ('A' for Active; 'I' for Inactive)
ROOT
HETATM    1  N   UNL     1      62.329   9.380   1.865  1.00  0.00    -0.345 N 
ATOM      2  HN  UNL     1      62.270   9.312   0.849  1.00  0.00     0.167 HD
HETATM    3  C   UNL     1      62.685   8.347   2.715  1.00  0.00     0.121 A 
HETATM    4  C   UNL     1      62.077  10.464   2.569  1.00  0.00     0.047 A 
HETATM    5  S   UNL     1      62.255  10.299   4.273  1.00  0.00    -0.086 SA
HETATM    6  N   UNL     1      63.277   5.997   1.787  1.00  0.00    -0.190 NA
HETATM    7  C   UNL     1      63.008   7.057   2.179  1.00  0.00     0.118 C 
HETATM    8  C   UNL     1      62.702   8.658   4.058  1.00  0.00     0.092 A 
HETATM    9  C   UNL     1      61.665  11.773   1.991  1.00  0.00     0.076 C 
ENDROOT
TORSDOF 0
ENDMDL
