MODEL 1
REMARK VINA RESULT:      -5.3      0.000      0.000
REMARK  3 active torsions:
REMARK  status: ('A' for Active; 'I' for Inactive)
REMARK    1  A    between atoms: N_1  and  C_3 
REMARK    2  A    between atoms: C_2  and  C_4 
REMARK    3  A    between atoms: C_2  and  N_11 
ROOT
HETATM    1  C   UNL     1      63.232   8.547   4.578  1.00  0.00     0.039 A 
HETATM    2  C   UNL     1      65.203   7.814   5.831  1.00  0.00     0.004 A 
HETATM    3  C   UNL     1      64.611   8.620   4.842  1.00  0.00     0.044 A 
HETATM    4  C   UNL     1      62.457   7.620   5.291  1.00  0.00     0.030 A 
HETATM    5  C   UNL     1      64.407   6.901   6.534  1.00  0.00     0.014 A 
HETATM    6  C   UNL     1      63.043   6.800   6.256  1.00  0.00     0.003 A 
ENDROOT
BRANCH   1   7
HETATM    7  N   UNL     1      62.625   9.430   3.629  1.00  0.00    -0.333 N 
HETATM    8  C   UNL     1      62.368   9.163   2.295  1.00  0.00     0.096 A 
HETATM    9  C   UNL     1      61.827  10.282   1.697  1.00  0.00     0.019 A 
HETATM   10  C   UNL     1      61.731  11.276   2.688  1.00  0.00     0.019 A 
HETATM   11  C   UNL     1      62.211  10.733   3.859  1.00  0.00     0.096 A 
ENDBRANCH   1   7
BRANCH   2  12
HETATM   12  C   UNL     1      66.650   7.962   6.170  1.00  0.00     0.104 C 
HETATM   13  S   UNL     1      67.928   7.590   5.155  1.00  0.00    -0.060 SA
BRANCH  12  14
HETATM   14  N   UNL     1      66.954   8.456   7.411  1.00  0.00    -0.390 N 
HETATM   15  H   UNL     1      67.892   8.489   7.712  1.00  0.00     0.157 HD
HETATM   16  H   UNL     1      66.237   8.778   8.003  1.00  0.00     0.157 HD
ENDBRANCH  12  14
ENDBRANCH   2  12
TORSDOF 3
ENDMDL
MODEL 2
REMARK VINA RESULT:      -5.0      2.470      5.543
REMARK  3 active torsions:
REMARK  status: ('A' for Active; 'I' for Inactive)
REMARK    1  A    between atoms: N_1  and  C_3 
REMARK    2  A    between atoms: C_2  and  C_4 
REMARK    3  A    between atoms: C_2  and  N_11 
ROOT
HETATM    1  C   UNL     1      63.548   8.921   4.749  1.00  0.00     0.039 A 
HETATM    2  C   UNL     1      62.140   9.273   2.777  1.00  0.00     0.004 A 
HETATM    3  C   UNL     1      63.026   8.474   3.522  1.00  0.00     0.044 A 
HETATM    4  C   UNL     1      63.206  10.205   5.200  1.00  0.00     0.030 A 
HETATM    5  C   UNL     1      61.808  10.547   3.252  1.00  0.00     0.014 A 
HETATM    6  C   UNL     1      62.347  11.012   4.452  1.00  0.00     0.003 A 
ENDROOT
BRANCH   1   7
HETATM    7  N   UNL     1      64.382   8.068   5.539  1.00  0.00    -0.333 N 
HETATM    8  C   UNL     1      63.976   6.984   6.300  1.00  0.00     0.096 A 
HETATM    9  C   UNL     1      65.063   6.451   6.959  1.00  0.00     0.019 A 
HETATM   10  C   UNL     1      66.186   7.213   6.592  1.00  0.00     0.019 A 
HETATM   11  C   UNL     1      65.752   8.184   5.718  1.00  0.00     0.096 A 
ENDBRANCH   1   7
BRANCH   2  12
HETATM   12  C   UNL     1      61.518   8.754   1.523  1.00  0.00     0.104 C 
HETATM   13  S   UNL     1      62.341   8.042   0.252  1.00  0.00    -0.060 SA
BRANCH  12  14
HETATM   14  N   UNL     1      60.156   8.860   1.410  1.00  0.00    -0.390 N 
HETATM   15  H   UNL     1      59.590   8.812   2.216  1.00  0.00     0.157 HD
HETATM   16  H   UNL     1      59.742   8.985   0.526  1.00  0.00     0.157 HD
ENDBRANCH  12  14
ENDBRANCH   2  12
TORSDOF 3
ENDMDL
MODEL 3
REMARK VINA RESULT:      -4.7      2.674      5.619
REMARK  3 active torsions:
REMARK  status: ('A' for Active; 'I' for Inactive)
REMARK    1  A    between atoms: N_1  and  C_3 
REMARK    2  A    between atoms: C_2  and  C_4 
REMARK    3  A    between atoms: C_2  and  N_11 
ROOT
HETATM    1  C   UNL     1      65.233   7.139   5.293  1.00  0.00     0.039 A 
HETATM    2  C   UNL     1      63.668   8.864   4.541  1.00  0.00     0.004 A 
HETATM    3  C   UNL     1      64.561   8.357   5.501  1.00  0.00     0.044 A 
HETATM    4  C   UNL     1      64.964   6.411   4.126  1.00  0.00     0.030 A 
HETATM    5  C   UNL     1      63.421   8.122   3.380  1.00  0.00     0.014 A 
HETATM    6  C   UNL     1      64.059   6.898   3.180  1.00  0.00     0.003 A 
ENDROOT
BRANCH   1   7
HETATM    7  N   UNL     1      66.202   6.673   6.238  1.00  0.00    -0.333 N 
HETATM    8  C   UNL     1      66.220   6.923   7.600  1.00  0.00     0.096 A 
HETATM    9  C   UNL     1      67.342   6.350   8.159  1.00  0.00     0.019 A 
HETATM   10  C   UNL     1      68.043   5.710   7.120  1.00  0.00     0.019 A 
HETATM   11  C   UNL     1      67.325   5.909   5.962  1.00  0.00     0.096 A 
ENDBRANCH   1   7
BRANCH   2  12
HETATM   12  C   UNL     1      63.028  10.201   4.726  1.00  0.00     0.104 C 
HETATM   13  S   UNL     1      61.929  10.905   3.679  1.00  0.00    -0.060 SA
BRANCH  12  14
HETATM   14  N   UNL     1      63.361  10.903   5.855  1.00  0.00    -0.390 N 
HETATM   15  H   UNL     1      63.830  11.766   5.779  1.00  0.00     0.157 HD
HETATM   16  H   UNL     1      63.133  10.544   6.743  1.00  0.00     0.157 HD
ENDBRANCH  12  14
ENDBRANCH   2  12
TORSDOF 3
ENDMDL
MODEL 4
REMARK VINA RESULT:      -4.4      2.475      3.263
REMARK  3 active torsions:
REMARK  status: ('A' for Active; 'I' for Inactive)
REMARK    1  A    between atoms: N_1  and  C_3 
REMARK    2  A    between atoms: C_2  and  C_4 
REMARK    3  A    between atoms: C_2  and  N_11 
ROOT
HETATM    1  C   UNL     1      63.094   8.444   4.597  1.00  0.00     0.039 A 
HETATM    2  C   UNL     1      62.789   6.469   6.012  1.00  0.00     0.004 A 
HETATM    3  C   UNL     1      62.265   7.453   5.154  1.00  0.00     0.044 A 
HETATM    4  C   UNL     1      64.451   8.464   4.949  1.00  0.00     0.030 A 
HETATM    5  C   UNL     1      64.148   6.506   6.343  1.00  0.00     0.014 A 
HETATM    6  C   UNL     1      64.971   7.505   5.821  1.00  0.00     0.003 A 
ENDROOT
BRANCH   1   7
HETATM    7  N   UNL     1      62.568   9.389   3.660  1.00  0.00    -0.333 N 
HETATM    8  C   UNL     1      62.354   9.186   2.307  1.00  0.00     0.096 A 
HETATM    9  C   UNL     1      61.890  10.350   1.733  1.00  0.00     0.019 A 
HETATM   10  C   UNL     1      61.797  11.309   2.758  1.00  0.00     0.019 A 
HETATM   11  C   UNL     1      62.203  10.700   3.925  1.00  0.00     0.096 A 
ENDBRANCH   1   7
BRANCH   2  12
HETATM   12  C   UNL     1      61.922   5.367   6.525  1.00  0.00     0.104 C 
HETATM   13  S   UNL     1      62.407   3.783   6.769  1.00  0.00    -0.060 SA
BRANCH  12  14
HETATM   14  N   UNL     1      60.625   5.683   6.835  1.00  0.00    -0.390 N 
HETATM   15  H   UNL     1      59.962   5.801   6.115  1.00  0.00     0.157 HD
HETATM   16  H   UNL     1      60.355   5.792   7.775  1.00  0.00     0.157 HD
ENDBRANCH  12  14
ENDBRANCH   2  12
TORSDOF 3
ENDMDL
MODEL 5
REMARK VINA RESULT:      -4.3      2.399      5.230
REMARK  3 active torsions:
REMARK  status: ('A' for Active; 'I' for Inactive)
REMARK    1  A    between atoms: N_1  and  C_3 
REMARK    2  A    between atoms: C_2  and  C_4 
REMARK    3  A    between atoms: C_2  and  N_11 
ROOT
HETATM    1  C   UNL     1      63.949   7.533   5.224  1.00  0.00     0.039 A 
HETATM    2  C   UNL     1      62.323   8.545   3.699  1.00  0.00     0.004 A 
HETATM    3  C   UNL     1      63.624   8.472   4.229  1.00  0.00     0.044 A 
HETATM    4  C   UNL     1      62.938   6.695   5.717  1.00  0.00     0.030 A 
HETATM    5  C   UNL     1      61.333   7.693   4.202  1.00  0.00     0.014 A 
HETATM    6  C   UNL     1      61.639   6.780   5.212  1.00  0.00     0.003 A 
ENDROOT
BRANCH   1   7
HETATM    7  N   UNL     1      65.294   7.411   5.697  1.00  0.00    -0.333 N 
HETATM    8  C   UNL     1      66.448   7.754   5.014  1.00  0.00     0.096 A 
HETATM    9  C   UNL     1      67.549   7.436   5.780  1.00  0.00     0.019 A 
HETATM   10  C   UNL     1      67.073   6.889   6.984  1.00  0.00     0.019 A 
HETATM   11  C   UNL     1      65.697   6.893   6.919  1.00  0.00     0.096 A 
ENDBRANCH   1   7
BRANCH   2  12
HETATM   12  C   UNL     1      62.008   9.481   2.579  1.00  0.00     0.104 C 
HETATM   13  S   UNL     1      62.112   9.115   0.949  1.00  0.00    -0.060 SA
BRANCH  12  14
HETATM   14  N   UNL     1      61.587  10.741   2.916  1.00  0.00    -0.390 N 
HETATM   15  H   UNL     1      60.805  10.858   3.505  1.00  0.00     0.157 HD
HETATM   16  H   UNL     1      62.064  11.529   2.571  1.00  0.00     0.157 HD
ENDBRANCH  12  14
ENDBRANCH   2  12
TORSDOF 3
ENDMDL
MODEL 6
REMARK VINA RESULT:      -4.3      2.485      3.138
REMARK  3 active torsions:
REMARK  status: ('A' for Active; 'I' for Inactive)
REMARK    1  A    between atoms: N_1  and  C_3 
REMARK    2  A    between atoms: C_2  and  C_4 
REMARK    3  A    between atoms: C_2  and  N_11 
ROOT
HETATM    1  C   UNL     1      65.207   7.127   4.751  1.00  0.00     0.039 A 
HETATM    2  C   UNL     1      66.384   5.918   6.525  1.00  0.00     0.004 A 
HETATM    3  C   UNL     1      65.383   6.816   6.111  1.00  0.00     0.044 A 
HETATM    4  C   UNL     1      66.080   6.560   3.811  1.00  0.00     0.030 A 
HETATM    5  C   UNL     1      67.238   5.359   5.567  1.00  0.00     0.014 A 
HETATM    6  C   UNL     1      67.091   5.688   4.219  1.00  0.00     0.003 A 
ENDROOT
BRANCH   1   7
HETATM    7  N   UNL     1      64.134   7.976   4.333  1.00  0.00    -0.333 N 
HETATM    8  C   UNL     1      63.364   7.838   3.190  1.00  0.00     0.096 A 
HETATM    9  C   UNL     1      62.468   8.883   3.109  1.00  0.00     0.019 A 
HETATM   10  C   UNL     1      62.673   9.694   4.239  1.00  0.00     0.019 A 
HETATM   11  C   UNL     1      63.683   9.118   4.977  1.00  0.00     0.096 A 
ENDBRANCH   1   7
BRANCH   2  12
HETATM   12  C   UNL     1      66.505   5.521   7.960  1.00  0.00     0.104 C 
HETATM   13  S   UNL     1      66.990   6.525   9.208  1.00  0.00    -0.060 SA
BRANCH  12  14
HETATM   14  N   UNL     1      66.180   4.229   8.281  1.00  0.00    -0.390 N 
HETATM   15  H   UNL     1      65.401   3.798   7.859  1.00  0.00     0.157 HD
HETATM   16  H   UNL     1      66.724   3.731   8.933  1.00  0.00     0.157 HD
ENDBRANCH  12  14
ENDBRANCH   2  12
TORSDOF 3
ENDMDL
MODEL 7
REMARK VINA RESULT:      -4.2      1.779      2.136
REMARK  3 active torsions:
REMARK  status: ('A' for Active; 'I' for Inactive)
REMARK    1  A    between atoms: N_1  and  C_3 
REMARK    2  A    between atoms: C_2  and  C_4 
REMARK    3  A    between atoms: C_2  and  N_11 
ROOT
HETATM    1  C   UNL     1      63.416   7.628   3.997  1.00  0.00     0.039 A 
HETATM    2  C   UNL     1      65.338   6.535   5.048  1.00  0.00     0.004 A 
HETATM    3  C   UNL     1      64.711   7.086   3.916  1.00  0.00     0.044 A 
HETATM    4  C   UNL     1      62.735   7.570   5.222  1.00  0.00     0.030 A 
HETATM    5  C   UNL     1      64.641   6.495   6.261  1.00  0.00     0.014 A 
HETATM    6  C   UNL     1      63.343   7.001   6.343  1.00  0.00     0.003 A 
ENDROOT
BRANCH   1   7
HETATM    7  N   UNL     1      62.820   8.261   2.860  1.00  0.00    -0.333 N 
HETATM    8  C   UNL     1      62.238   9.517   2.820  1.00  0.00     0.096 A 
HETATM    9  C   UNL     1      61.728   9.748   1.560  1.00  0.00     0.019 A 
HETATM   10  C   UNL     1      62.008   8.610   0.783  1.00  0.00     0.019 A 
HETATM   11  C   UNL     1      62.684   7.722   1.590  1.00  0.00     0.096 A 
ENDBRANCH   1   7
BRANCH   2  12
HETATM   12  C   UNL     1      66.747   6.045   4.976  1.00  0.00     0.104 C 
HETATM   13  S   UNL     1      67.408   4.844   5.936  1.00  0.00    -0.060 SA
BRANCH  12  14
HETATM   14  N   UNL     1      67.561   6.621   4.035  1.00  0.00    -0.390 N 
HETATM   15  H   UNL     1      67.275   6.660   3.093  1.00  0.00     0.157 HD
HETATM   16  H   UNL     1      68.432   6.995   4.300  1.00  0.00     0.157 HD
ENDBRANCH  12  14
ENDBRANCH   2  12
TORSDOF 3
ENDMDL
MODEL 8
REMARK VINA RESULT:      -4.2      3.149      6.242
REMARK  3 active torsions:
REMARK  status: ('A' for Active; 'I' for Inactive)
REMARK    1  A    between atoms: N_1  and  C_3 
REMARK    2  A    between atoms: C_2  and  C_4 
REMARK    3  A    between atoms: C_2  and  N_11 
ROOT
HETATM    1  C   UNL     1      65.302   6.998   6.470  1.00  0.00     0.039 A 
HETATM    2  C   UNL     1      62.997   7.078   5.652  1.00  0.00     0.004 A 
HETATM    3  C   UNL     1      64.010   6.448   6.396  1.00  0.00     0.044 A 
HETATM    4  C   UNL     1      65.580   8.169   5.749  1.00  0.00     0.030 A 
HETATM    5  C   UNL     1      63.296   8.249   4.946  1.00  0.00     0.014 A 
HETATM    6  C   UNL     1      64.584   8.784   4.989  1.00  0.00     0.003 A 
ENDROOT
BRANCH   1   7
HETATM    7  N   UNL     1      66.302   6.395   7.297  1.00  0.00    -0.333 N 
HETATM    8  C   UNL     1      66.532   6.647   8.639  1.00  0.00     0.096 A 
HETATM    9  C   UNL     1      67.617   5.912   9.067  1.00  0.00     0.019 A 
HETATM   10  C   UNL     1      68.075   5.168   7.965  1.00  0.00     0.019 A 
HETATM   11  C   UNL     1      67.254   5.467   6.901  1.00  0.00     0.096 A 
ENDBRANCH   1   7
BRANCH   2  12
HETATM   12  C   UNL     1      61.604   6.539   5.652  1.00  0.00     0.104 C 
HETATM   13  S   UNL     1      60.586   6.476   4.325  1.00  0.00    -0.060 SA
BRANCH  12  14
HETATM   14  N   UNL     1      61.126   6.042   6.837  1.00  0.00    -0.390 N 
HETATM   15  H   UNL     1      61.458   6.402   7.692  1.00  0.00     0.157 HD
HETATM   16  H   UNL     1      60.451   5.325   6.834  1.00  0.00     0.157 HD
ENDBRANCH  12  14
ENDBRANCH   2  12
TORSDOF 3
ENDMDL
MODEL 9
REMARK VINA RESULT:      -4.0     10.309     11.999
REMARK  3 active torsions:
REMARK  status: ('A' for Active; 'I' for Inactive)
REMARK    1  A    between atoms: N_1  and  C_3 
REMARK    2  A    between atoms: C_2  and  C_4 
REMARK    3  A    between atoms: C_2  and  N_11 
ROOT
HETATM    1  C   UNL     1      58.351   2.433  11.626  1.00  0.00     0.039 A 
HETATM    2  C   UNL     1      56.686   2.106  13.390  1.00  0.00     0.004 A 
HETATM    3  C   UNL     1      57.034   2.553  12.103  1.00  0.00     0.044 A 
HETATM    4  C   UNL     1      59.331   1.899  12.477  1.00  0.00     0.030 A 
HETATM    5  C   UNL     1      57.679   1.570  14.218  1.00  0.00     0.014 A 
HETATM    6  C   UNL     1      58.996   1.477  13.765  1.00  0.00     0.003 A 
ENDROOT
BRANCH   1   7
HETATM    7  N   UNL     1      58.677   2.813  10.286  1.00  0.00    -0.333 N 
HETATM    8  C   UNL     1      58.608   4.086   9.744  1.00  0.00     0.096 A 
HETATM    9  C   UNL     1      58.949   4.038   8.409  1.00  0.00     0.019 A 
HETATM   10  C   UNL     1      59.252   2.698   8.106  1.00  0.00     0.019 A 
HETATM   11  C   UNL     1      59.092   1.972   9.265  1.00  0.00     0.096 A 
ENDBRANCH   1   7
BRANCH   2  12
HETATM   12  C   UNL     1      55.267   2.151  13.855  1.00  0.00     0.104 C 
HETATM   13  S   UNL     1      54.060   1.086  13.398  1.00  0.00    -0.060 SA
BRANCH  12  14
HETATM   14  N   UNL     1      54.931   3.142  14.741  1.00  0.00    -0.390 N 
HETATM   15  H   UNL     1      55.180   3.059  15.691  1.00  0.00     0.157 HD
HETATM   16  H   UNL     1      54.442   3.937  14.429  1.00  0.00     0.157 HD
ENDBRANCH  12  14
ENDBRANCH   2  12
TORSDOF 3
ENDMDL
