MODEL 1
REMARK VINA RESULT:      -5.0      0.000      0.000
REMARK  1 active torsions:
REMARK  status: ('A' for Active; 'I' for Inactive)
REMARK    1  A    between atoms: C_1  and  N_2 
ROOT
HETATM    1  C   UNL     1      62.888   9.171   4.059  1.00  0.00     0.077 A 
HETATM    2  C   UNL     1      62.480  10.504   4.339  1.00  0.00     0.077 A 
HETATM    3  C   UNL     1      62.591   8.732   2.740  1.00  0.00     0.077 A 
HETATM    4  N   UNL     1      61.592  10.855   2.102  1.00  0.00    -0.372 N 
ATOM      5  HN  UNL     1      61.140  11.452   1.409  1.00  0.00     0.164 HD
HETATM    6 CL   UNL     1      62.819  11.345   5.817  1.00  0.00    -0.080 Cl
HETATM    7 CL   UNL     1      62.840   7.112   2.170  1.00  0.00    -0.080 Cl
HETATM    8  C   UNL     1      61.984   9.596   1.824  1.00  0.00     0.113 A 
HETATM    9  C   UNL     1      61.840  11.268   3.359  1.00  0.00     0.113 A 
ENDROOT
BRANCH   1  10
HETATM   10  N   UNL     1      63.561   8.379   4.988  1.00  0.00    -0.375 N 
HETATM   11  C   UNL     1      65.028   8.345   5.125  1.00  0.00     0.150 C 
HETATM   12  C   UNL     1      65.519   6.876   5.130  1.00  0.00     0.252 C 
HETATM   13  N   UNL     1      64.899   6.069   6.207  1.00  0.00    -0.072 N 
HETATM   14  C   UNL     1      63.429   6.144   6.069  1.00  0.00     0.252 C 
HETATM   15  H   UNL     1      65.202   5.099   6.127  1.00  0.00     0.277 HD
HETATM   16  H   UNL     1      65.181   6.430   7.118  1.00  0.00     0.277 HD
HETATM   17  C   UNL     1      62.858   7.581   6.010  1.00  0.00     0.150 C 
ENDBRANCH   1  10
TORSDOF 1
ENDMDL
MODEL 2
REMARK VINA RESULT:      -5.0      0.121      2.455
REMARK  1 active torsions:
REMARK  status: ('A' for Active; 'I' for Inactive)
REMARK    1  A    between atoms: C_1  and  N_2 
ROOT
HETATM    1  C   UNL     1      62.954   9.137   4.086  1.00  0.00     0.077 A 
HETATM    2  C   UNL     1      62.676   8.667   2.774  1.00  0.00     0.077 A 
HETATM    3  C   UNL     1      62.514  10.465   4.338  1.00  0.00     0.077 A 
HETATM    4  N   UNL     1      61.582  10.735   2.108  1.00  0.00    -0.372 N 
ATOM      5  HN  UNL     1      61.092  11.296   1.411  1.00  0.00     0.164 HD
HETATM    6 CL   UNL     1      62.984   7.051   2.225  1.00  0.00    -0.080 Cl
HETATM    7 CL   UNL     1      62.848  11.347   5.796  1.00  0.00    -0.080 Cl
HETATM    8  C   UNL     1      61.834  11.187   3.352  1.00  0.00     0.113 A 
HETATM    9  C   UNL     1      62.025   9.489   1.850  1.00  0.00     0.113 A 
ENDROOT
BRANCH   1  10
HETATM   10  N   UNL     1      63.568   8.346   5.055  1.00  0.00    -0.375 N 
HETATM   11  C   UNL     1      65.027   8.285   5.257  1.00  0.00     0.150 C 
HETATM   12  C   UNL     1      65.488   6.807   5.305  1.00  0.00     0.252 C 
HETATM   13  N   UNL     1      64.804   6.028   6.363  1.00  0.00    -0.072 N 
HETATM   14  C   UNL     1      63.344   6.130   6.159  1.00  0.00     0.252 C 
HETATM   15  H   UNL     1      65.092   5.051   6.310  1.00  0.00     0.277 HD
HETATM   16  H   UNL     1      65.053   6.397   7.282  1.00  0.00     0.277 HD
HETATM   17  C   UNL     1      62.805   7.577   6.055  1.00  0.00     0.150 C 
ENDBRANCH   1  10
TORSDOF 1
ENDMDL
MODEL 3
REMARK VINA RESULT:      -4.1      1.905      5.110
REMARK  1 active torsions:
REMARK  status: ('A' for Active; 'I' for Inactive)
REMARK    1  A    between atoms: C_1  and  N_2 
ROOT
HETATM    1  C   UNL     1      63.286   8.122   3.625  1.00  0.00     0.077 A 
HETATM    2  C   UNL     1      64.036   6.968   3.267  1.00  0.00     0.077 A 
HETATM    3  C   UNL     1      63.867   8.899   4.663  1.00  0.00     0.077 A 
HETATM    4  N   UNL     1      65.796   7.435   4.879  1.00  0.00    -0.372 N 
ATOM      5  HN  UNL     1      66.686   7.195   5.317  1.00  0.00     0.164 HD
HETATM    6 CL   UNL     1      63.636   5.906   1.957  1.00  0.00    -0.080 Cl
HETATM    7 CL   UNL     1      63.103  10.272   5.401  1.00  0.00    -0.080 Cl
HETATM    8  C   UNL     1      65.097   8.535   5.220  1.00  0.00     0.113 A 
HETATM    9  C   UNL     1      65.236   6.674   3.919  1.00  0.00     0.113 A 
ENDROOT
BRANCH   1  10
HETATM   10  N   UNL     1      62.102   8.479   2.982  1.00  0.00    -0.375 N 
HETATM   11  C   UNL     1      60.761   8.232   3.541  1.00  0.00     0.150 C 
HETATM   12  C   UNL     1      59.867   7.549   2.476  1.00  0.00     0.252 C 
HETATM   13  N   UNL     1      59.750   8.345   1.232  1.00  0.00    -0.072 N 
HETATM   14  C   UNL     1      61.107   8.607   0.707  1.00  0.00     0.252 C 
HETATM   15  H   UNL     1      59.209   7.825   0.541  1.00  0.00     0.277 HD
HETATM   16  H   UNL     1      59.277   9.228   1.427  1.00  0.00     0.277 HD
HETATM   17  C   UNL     1      62.080   9.249   1.725  1.00  0.00     0.150 C 
ENDBRANCH   1  10
TORSDOF 1
ENDMDL
MODEL 4
REMARK VINA RESULT:      -3.9      1.649      1.875
REMARK  1 active torsions:
REMARK  status: ('A' for Active; 'I' for Inactive)
REMARK    1  A    between atoms: C_1  and  N_2 
ROOT
HETATM    1  C   UNL     1      63.830   7.876   4.273  1.00  0.00     0.077 A 
HETATM    2  C   UNL     1      63.047   9.057   4.161  1.00  0.00     0.077 A 
HETATM    3  C   UNL     1      63.771   7.024   3.137  1.00  0.00     0.077 A 
HETATM    4  N   UNL     1      62.275   8.505   1.921  1.00  0.00    -0.372 N 
ATOM      5  HN  UNL     1      61.731   8.731   1.088  1.00  0.00     0.164 HD
HETATM    6 CL   UNL     1      63.023  10.333   5.333  1.00  0.00    -0.080 Cl
HETATM    7 CL   UNL     1      64.504   5.453   3.054  1.00  0.00    -0.080 Cl
HETATM    8  C   UNL     1      63.021   7.388   2.014  1.00  0.00     0.113 A 
HETATM    9  C   UNL     1      62.299   9.303   3.006  1.00  0.00     0.113 A 
ENDROOT
BRANCH   1  10
HETATM   10  N   UNL     1      64.621   7.600   5.387  1.00  0.00    -0.375 N 
HETATM   11  C   UNL     1      65.973   8.151   5.587  1.00  0.00     0.150 C 
HETATM   12  C   UNL     1      66.955   7.010   5.953  1.00  0.00     0.252 C 
HETATM   13  N   UNL     1      66.537   6.262   7.161  1.00  0.00    -0.072 N 
HETATM   14  C   UNL     1      65.168   5.746   6.951  1.00  0.00     0.252 C 
HETATM   15  H   UNL     1      67.176   5.483   7.322  1.00  0.00     0.277 HD
HETATM   16  H   UNL     1      66.555   6.878   7.975  1.00  0.00     0.277 HD
HETATM   17  C   UNL     1      64.130   6.818   6.536  1.00  0.00     0.150 C 
ENDBRANCH   1  10
TORSDOF 1
ENDMDL
MODEL 5
REMARK VINA RESULT:      -3.8      2.640      3.578
REMARK  1 active torsions:
REMARK  status: ('A' for Active; 'I' for Inactive)
REMARK    1  A    between atoms: C_1  and  N_2 
ROOT
HETATM    1  C   UNL     1      61.526   7.671   2.789  1.00  0.00     0.077 A 
HETATM    2  C   UNL     1      60.634   6.794   3.464  1.00  0.00     0.077 A 
HETATM    3  C   UNL     1      61.262   7.821   1.401  1.00  0.00     0.077 A 
HETATM    4  N   UNL     1      59.339   6.333   1.457  1.00  0.00    -0.372 N 
ATOM      5  HN  UNL     1      58.563   5.866   0.988  1.00  0.00     0.164 HD
HETATM    6 CL   UNL     1      60.638   6.516   5.175  1.00  0.00    -0.080 Cl
HETATM    7 CL   UNL     1      62.273   8.708   0.303  1.00  0.00    -0.080 Cl
HETATM    8  C   UNL     1      60.175   7.169   0.810  1.00  0.00     0.113 A 
HETATM    9  C   UNL     1      59.603   6.159   2.766  1.00  0.00     0.113 A 
ENDROOT
BRANCH   1  10
HETATM   10  N   UNL     1      62.548   8.356   3.445  1.00  0.00    -0.375 N 
HETATM   11  C   UNL     1      63.852   7.756   3.778  1.00  0.00     0.150 C 
HETATM   12  C   UNL     1      64.186   8.021   5.268  1.00  0.00     0.252 C 
HETATM   13  N   UNL     1      64.200   9.464   5.602  1.00  0.00    -0.072 N 
HETATM   14  C   UNL     1      62.895  10.051   5.230  1.00  0.00     0.252 C 
HETATM   15  H   UNL     1      64.357   9.583   6.603  1.00  0.00     0.277 HD
HETATM   16  H   UNL     1      64.949   9.932   5.091  1.00  0.00     0.277 HD
HETATM   17  C   UNL     1      62.464   9.792   3.766  1.00  0.00     0.150 C 
ENDBRANCH   1  10
TORSDOF 1
ENDMDL
MODEL 6
REMARK VINA RESULT:      -3.8      2.278      3.156
REMARK  1 active torsions:
REMARK  status: ('A' for Active; 'I' for Inactive)
REMARK    1  A    between atoms: C_1  and  N_2 
ROOT
HETATM    1  C   UNL     1      64.536   7.015   3.809  1.00  0.00     0.077 A 
HETATM    2  C   UNL     1      63.700   8.156   3.950  1.00  0.00     0.077 A 
HETATM    3  C   UNL     1      64.216   6.188   2.699  1.00  0.00     0.077 A 
HETATM    4  N   UNL     1      62.387   7.618   1.975  1.00  0.00    -0.372 N 
ATOM      5  HN  UNL     1      61.632   7.835   1.324  1.00  0.00     0.164 HD
HETATM    6 CL   UNL     1      63.932   9.402   5.134  1.00  0.00    -0.080 Cl
HETATM    7 CL   UNL     1      64.969   4.660   2.368  1.00  0.00    -0.080 Cl
HETATM    8  C   UNL     1      63.180   6.539   1.828  1.00  0.00     0.113 A 
HETATM    9  C   UNL     1      62.663   8.390   3.043  1.00  0.00     0.113 A 
ENDROOT
BRANCH   1  10
HETATM   10  N   UNL     1      65.606   6.755   4.664  1.00  0.00    -0.375 N 
HETATM   11  C   UNL     1      65.455   6.168   6.007  1.00  0.00     0.150 C 
HETATM   12  C   UNL     1      66.236   7.017   7.041  1.00  0.00     0.252 C 
HETATM   13  N   UNL     1      67.674   7.141   6.710  1.00  0.00    -0.072 N 
HETATM   14  C   UNL     1      67.801   7.702   5.348  1.00  0.00     0.252 C 
HETATM   15  H   UNL     1      68.129   7.761   7.380  1.00  0.00     0.277 HD
HETATM   16  H   UNL     1      68.121   6.224   6.751  1.00  0.00     0.277 HD
HETATM   17  C   UNL     1      67.011   6.937   4.258  1.00  0.00     0.150 C 
ENDBRANCH   1  10
TORSDOF 1
ENDMDL
MODEL 7
REMARK VINA RESULT:      -3.8      2.076      4.813
REMARK  1 active torsions:
REMARK  status: ('A' for Active; 'I' for Inactive)
REMARK    1  A    between atoms: C_1  and  N_2 
ROOT
HETATM    1  C   UNL     1      62.266   7.498   4.534  1.00  0.00     0.077 A 
HETATM    2  C   UNL     1      63.301   6.881   5.288  1.00  0.00     0.077 A 
HETATM    3  C   UNL     1      60.976   6.938   4.743  1.00  0.00     0.077 A 
HETATM    4  N   UNL     1      61.784   5.311   6.359  1.00  0.00    -0.372 N 
ATOM      5  HN  UNL     1      61.613   4.543   7.009  1.00  0.00     0.164 HD
HETATM    6 CL   UNL     1      64.945   7.430   5.329  1.00  0.00    -0.080 Cl
HETATM    7 CL   UNL     1      59.558   7.390   3.851  1.00  0.00    -0.080 Cl
HETATM    8  C   UNL     1      60.794   5.895   5.656  1.00  0.00     0.113 A 
HETATM    9  C   UNL     1      63.015   5.814   6.143  1.00  0.00     0.113 A 
ENDROOT
BRANCH   1  10
HETATM   10  N   UNL     1      62.492   8.587   3.694  1.00  0.00    -0.375 N 
HETATM   11  C   UNL     1      62.706   9.962   4.177  1.00  0.00     0.150 C 
HETATM   12  C   UNL     1      61.781  10.938   3.408  1.00  0.00     0.252 C 
HETATM   13  N   UNL     1      61.988  10.886   1.942  1.00  0.00    -0.072 N 
HETATM   14  C   UNL     1      61.800   9.493   1.485  1.00  0.00     0.252 C 
HETATM   15  H   UNL     1      61.313  11.494   1.478  1.00  0.00     0.277 HD
HETATM   16  H   UNL     1      62.930  11.202   1.713  1.00  0.00     0.277 HD
HETATM   17  C   UNL     1      62.657   8.445   2.235  1.00  0.00     0.150 C 
ENDBRANCH   1  10
TORSDOF 1
ENDMDL
MODEL 8
REMARK VINA RESULT:      -3.7      2.872      4.507
REMARK  1 active torsions:
REMARK  status: ('A' for Active; 'I' for Inactive)
REMARK    1  A    between atoms: C_1  and  N_2 
ROOT
HETATM    1  C   UNL     1      63.959   6.241   6.038  1.00  0.00     0.077 A 
HETATM    2  C   UNL     1      62.919   5.277   6.132  1.00  0.00     0.077 A 
HETATM    3  C   UNL     1      63.566   7.471   5.443  1.00  0.00     0.077 A 
HETATM    4  N   UNL     1      61.265   6.749   5.125  1.00  0.00    -0.372 N 
ATOM      5  HN  UNL     1      60.312   6.930   4.810  1.00  0.00     0.164 HD
HETATM    6 CL   UNL     1      63.075   3.740   6.919  1.00  0.00    -0.080 Cl
HETATM    7 CL   UNL     1      64.656   8.768   5.067  1.00  0.00    -0.080 Cl
HETATM    8  C   UNL     1      62.242   7.673   5.040  1.00  0.00     0.113 A 
HETATM    9  C   UNL     1      61.637   5.569   5.658  1.00  0.00     0.113 A 
ENDROOT
BRANCH   1  10
HETATM   10  N   UNL     1      65.244   6.013   6.527  1.00  0.00    -0.375 N 
HETATM   11  C   UNL     1      65.661   6.318   7.907  1.00  0.00     0.150 C 
HETATM   12  C   UNL     1      66.979   7.132   7.888  1.00  0.00     0.252 C 
HETATM   13  N   UNL     1      68.075   6.430   7.180  1.00  0.00    -0.072 N 
HETATM   14  C   UNL     1      67.623   6.107   5.810  1.00  0.00     0.252 C 
HETATM   15  H   UNL     1      68.897   7.032   7.138  1.00  0.00     0.277 HD
HETATM   16  H   UNL     1      68.317   5.573   7.677  1.00  0.00     0.277 HD
HETATM   17  C   UNL     1      66.286   5.331   5.737  1.00  0.00     0.150 C 
ENDBRANCH   1  10
TORSDOF 1
ENDMDL
MODEL 9
REMARK VINA RESULT:      -3.7      2.723      3.732
REMARK  1 active torsions:
REMARK  status: ('A' for Active; 'I' for Inactive)
REMARK    1  A    between atoms: C_1  and  N_2 
ROOT
HETATM    1  C   UNL     1      60.918   7.854   2.613  1.00  0.00     0.077 A 
HETATM    2  C   UNL     1      60.904   8.268   1.253  1.00  0.00     0.077 A 
HETATM    3  C   UNL     1      59.697   7.281   3.064  1.00  0.00     0.077 A 
HETATM    4  N   UNL     1      58.613   7.531   0.901  1.00  0.00    -0.372 N 
ATOM      5  HN  UNL     1      57.801   7.411   0.295  1.00  0.00     0.164 HD
HETATM    6 CL   UNL     1      62.282   8.883   0.401  1.00  0.00    -0.080 Cl
HETATM    7 CL   UNL     1      59.379   6.825   4.708  1.00  0.00    -0.080 Cl
HETATM    8  C   UNL     1      58.619   7.127   2.187  1.00  0.00     0.113 A 
HETATM    9  C   UNL     1      59.754   8.104   0.475  1.00  0.00     0.113 A 
ENDROOT
BRANCH   1  10
HETATM   10  N   UNL     1      62.048   7.962   3.422  1.00  0.00    -0.375 N 
HETATM   11  C   UNL     1      62.845   6.808   3.872  1.00  0.00     0.150 C 
HETATM   12  C   UNL     1      63.069   6.891   5.403  1.00  0.00     0.252 C 
HETATM   13  N   UNL     1      63.733   8.149   5.817  1.00  0.00    -0.072 N 
HETATM   14  C   UNL     1      62.933   9.291   5.327  1.00  0.00     0.252 C 
HETATM   15  H   UNL     1      63.797   8.185   6.834  1.00  0.00     0.277 HD
HETATM   16  H   UNL     1      64.674   8.190   5.424  1.00  0.00     0.277 HD
HETATM   17  C   UNL     1      62.625   9.262   3.811  1.00  0.00     0.150 C 
ENDBRANCH   1  10
TORSDOF 1
ENDMDL
