MODEL 1
REMARK VINA RESULT:      -4.1      0.000      0.000
REMARK  3 active torsions:
REMARK  status: ('A' for Active; 'I' for Inactive)
REMARK    1  A    between atoms: C_1  and  C_5 
REMARK    2  A    between atoms: C_5  and  O_9 
REMARK    3  A    between atoms: O_9  and  C_11 
ROOT
HETATM    1  C   UNL     1      62.894   9.406   4.173  1.00  0.00     0.115 A 
HETATM    2  N   UNL     1      62.877   8.662   2.989  1.00  0.00    -0.349 N 
ATOM      3  HN  UNL     1      63.279   7.730   2.879  1.00  0.00     0.166 HD
HETATM    4  C   UNL     1      62.300  10.653   4.061  1.00  0.00     0.087 A 
HETATM    5  C   UNL     1      62.267   9.335   2.037  1.00  0.00     0.047 A 
HETATM    6  S   UNL     1      61.702  10.897   2.478  1.00  0.00    -0.087 SA
HETATM    7  C   UNL     1      62.038   8.836   0.653  1.00  0.00     0.076 C 
ENDROOT
BRANCH   1   8
HETATM    8  C   UNL     1      63.481   8.922   5.425  1.00  0.00     0.310 C 
HETATM    9  O   UNL     1      62.832   8.295   6.260  1.00  0.00    -0.258 OA
BRANCH   8  10
HETATM   10  O   UNL     1      64.800   9.243   5.564  1.00  0.00    -0.317 OA
BRANCH  10  11
HETATM   11  C   UNL     1      65.722   8.152   5.422  1.00  0.00     0.175 C 
HETATM   12  C   UNL     1      66.710   8.117   6.575  1.00  0.00     0.034 C 
ENDBRANCH  10  11
ENDBRANCH   8  10
ENDBRANCH   1   8
TORSDOF 3
ENDMDL
MODEL 2
REMARK VINA RESULT:      -4.0      2.285      3.155
REMARK  3 active torsions:
REMARK  status: ('A' for Active; 'I' for Inactive)
REMARK    1  A    between atoms: C_1  and  C_5 
REMARK    2  A    between atoms: C_5  and  O_9 
REMARK    3  A    between atoms: O_9  and  C_11 
ROOT
HETATM    1  C   UNL     1      64.745   8.321   5.274  1.00  0.00     0.115 A 
HETATM    2  N   UNL     1      63.971   9.482   5.361  1.00  0.00    -0.349 N 
ATOM      3  HN  UNL     1      64.086  10.209   6.068  1.00  0.00     0.166 HD
HETATM    4  C   UNL     1      64.378   7.477   4.238  1.00  0.00     0.087 A 
HETATM    5  C   UNL     1      63.072   9.502   4.400  1.00  0.00     0.047 A 
HETATM    6  S   UNL     1      63.071   8.138   3.355  1.00  0.00    -0.087 SA
HETATM    7  C   UNL     1      62.096  10.603   4.170  1.00  0.00     0.076 C 
ENDROOT
BRANCH   1   8
HETATM    8  C   UNL     1      65.849   8.013   6.186  1.00  0.00     0.310 C 
HETATM    9  O   UNL     1      66.998   8.401   5.988  1.00  0.00    -0.258 OA
BRANCH   8  10
HETATM   10  O   UNL     1      65.470   7.258   7.259  1.00  0.00    -0.317 OA
BRANCH  10  11
HETATM   11  C   UNL     1      66.426   6.284   7.701  1.00  0.00     0.175 C 
HETATM   12  C   UNL     1      66.892   6.577   9.117  1.00  0.00     0.034 C 
ENDBRANCH  10  11
ENDBRANCH   8  10
ENDBRANCH   1   8
TORSDOF 3
ENDMDL
MODEL 3
REMARK VINA RESULT:      -3.9      3.225      5.562
REMARK  3 active torsions:
REMARK  status: ('A' for Active; 'I' for Inactive)
REMARK    1  A    between atoms: C_1  and  C_5 
REMARK    2  A    between atoms: C_5  and  O_9 
REMARK    3  A    between atoms: O_9  and  C_11 
ROOT
HETATM    1  C   UNL     1      65.525   7.910   5.811  1.00  0.00     0.115 A 
HETATM    2  N   UNL     1      65.304   7.305   7.053  1.00  0.00    -0.349 N 
ATOM      3  HN  UNL     1      64.474   7.445   7.631  1.00  0.00     0.166 HD
HETATM    4  C   UNL     1      66.739   7.576   5.232  1.00  0.00     0.087 A 
HETATM    5  C   UNL     1      66.320   6.530   7.368  1.00  0.00     0.047 A 
HETATM    6  S   UNL     1      67.606   6.492   6.230  1.00  0.00    -0.087 SA
HETATM    7  C   UNL     1      66.410   5.708   8.607  1.00  0.00     0.076 C 
ENDROOT
BRANCH   1   8
HETATM    8  C   UNL     1      64.567   8.813   5.168  1.00  0.00     0.310 C 
HETATM    9  O   UNL     1      64.320   9.935   5.605  1.00  0.00    -0.258 OA
BRANCH   8  10
HETATM   10  O   UNL     1      63.986   8.281   4.054  1.00  0.00    -0.317 OA
BRANCH  10  11
HETATM   11  C   UNL     1      62.730   8.859   3.672  1.00  0.00     0.175 C 
HETATM   12  C   UNL     1      62.492   8.716   2.179  1.00  0.00     0.034 C 
ENDBRANCH  10  11
ENDBRANCH   8  10
ENDBRANCH   1   8
TORSDOF 3
ENDMDL
MODEL 4
REMARK VINA RESULT:      -3.9      1.200      2.136
REMARK  3 active torsions:
REMARK  status: ('A' for Active; 'I' for Inactive)
REMARK    1  A    between atoms: C_1  and  C_5 
REMARK    2  A    between atoms: C_5  and  O_9 
REMARK    3  A    between atoms: O_9  and  C_11 
ROOT
HETATM    1  C   UNL     1      63.042   9.463   4.230  1.00  0.00     0.115 A 
HETATM    2  N   UNL     1      62.947   8.708   3.057  1.00  0.00    -0.349 N 
ATOM      3  HN  UNL     1      63.360   7.784   2.922  1.00  0.00     0.166 HD
HETATM    4  C   UNL     1      62.413  10.696   4.157  1.00  0.00     0.087 A 
HETATM    5  C   UNL     1      62.248   9.360   2.152  1.00  0.00     0.047 A 
HETATM    6  S   UNL     1      61.686  10.913   2.625  1.00  0.00    -0.087 SA
HETATM    7  C   UNL     1      61.922   8.843   0.794  1.00  0.00     0.076 C 
ENDROOT
BRANCH   1   8
HETATM    8  C   UNL     1      63.737   9.003   5.435  1.00  0.00     0.310 C 
HETATM    9  O   UNL     1      64.936   9.196   5.621  1.00  0.00    -0.258 OA
BRANCH   8  10
HETATM   10  O   UNL     1      62.923   8.345   6.311  1.00  0.00    -0.317 OA
BRANCH  10  11
HETATM   11  C   UNL     1      62.969   6.912   6.244  1.00  0.00     0.175 C 
HETATM   12  C   UNL     1      61.609   6.336   5.891  1.00  0.00     0.034 C 
ENDBRANCH  10  11
ENDBRANCH   8  10
ENDBRANCH   1   8
TORSDOF 3
ENDMDL
MODEL 5
REMARK VINA RESULT:      -3.7      1.884      2.161
REMARK  3 active torsions:
REMARK  status: ('A' for Active; 'I' for Inactive)
REMARK    1  A    between atoms: C_1  and  C_5 
REMARK    2  A    between atoms: C_5  and  O_9 
REMARK    3  A    between atoms: O_9  and  C_11 
ROOT
HETATM    1  C   UNL     1      63.820   8.349   4.130  1.00  0.00     0.115 A 
HETATM    2  N   UNL     1      62.940   9.108   3.351  1.00  0.00    -0.349 N 
ATOM      3  HN  UNL     1      62.646  10.062   3.564  1.00  0.00     0.166 HD
HETATM    4  C   UNL     1      64.046   7.073   3.640  1.00  0.00     0.087 A 
HETATM    5  C   UNL     1      62.546   8.414   2.304  1.00  0.00     0.047 A 
HETATM    6  S   UNL     1      63.171   6.817   2.194  1.00  0.00    -0.087 SA
HETATM    7  C   UNL     1      61.630   8.919   1.245  1.00  0.00     0.076 C 
ENDROOT
BRANCH   1   8
HETATM    8  C   UNL     1      64.455   8.848   5.352  1.00  0.00     0.310 C 
HETATM    9  O   UNL     1      64.394  10.026   5.696  1.00  0.00    -0.258 OA
BRANCH   8  10
HETATM   10  O   UNL     1      65.115   7.880   6.052  1.00  0.00    -0.317 OA
BRANCH  10  11
HETATM   11  C   UNL     1      66.505   8.134   6.304  1.00  0.00     0.175 C 
HETATM   12  C   UNL     1      67.374   7.017   5.753  1.00  0.00     0.034 C 
ENDBRANCH  10  11
ENDBRANCH   8  10
ENDBRANCH   1   8
TORSDOF 3
ENDMDL
MODEL 6
REMARK VINA RESULT:      -3.7      2.628      4.656
REMARK  3 active torsions:
REMARK  status: ('A' for Active; 'I' for Inactive)
REMARK    1  A    between atoms: C_1  and  C_5 
REMARK    2  A    between atoms: C_5  and  O_9 
REMARK    3  A    between atoms: O_9  and  C_11 
ROOT
HETATM    1  C   UNL     1      63.986   8.470   5.301  1.00  0.00     0.115 A 
HETATM    2  N   UNL     1      65.318   8.360   4.890  1.00  0.00    -0.349 N 
ATOM      3  HN  UNL     1      65.857   9.105   4.447  1.00  0.00     0.166 HD
HETATM    4  C   UNL     1      63.472   7.310   5.857  1.00  0.00     0.087 A 
HETATM    5  C   UNL     1      65.778   7.156   5.157  1.00  0.00     0.047 A 
HETATM    6  S   UNL     1      64.655   6.077   5.884  1.00  0.00    -0.087 SA
HETATM    7  C   UNL     1      67.167   6.695   4.883  1.00  0.00     0.076 C 
ENDROOT
BRANCH   1   8
HETATM    8  C   UNL     1      63.196   9.696   5.165  1.00  0.00     0.310 C 
HETATM    9  O   UNL     1      63.433  10.712   5.816  1.00  0.00    -0.258 OA
BRANCH   8  10
HETATM   10  O   UNL     1      62.183   9.589   4.257  1.00  0.00    -0.317 OA
BRANCH  10  11
HETATM   11  C   UNL     1      61.941  10.754   3.455  1.00  0.00     0.175 C 
HETATM   12  C   UNL     1      61.863  10.398   1.981  1.00  0.00     0.034 C 
ENDBRANCH  10  11
ENDBRANCH   8  10
ENDBRANCH   1   8
TORSDOF 3
ENDMDL
MODEL 7
REMARK VINA RESULT:      -3.7      2.293      2.832
REMARK  3 active torsions:
REMARK  status: ('A' for Active; 'I' for Inactive)
REMARK    1  A    between atoms: C_1  and  C_5 
REMARK    2  A    between atoms: C_5  and  O_9 
REMARK    3  A    between atoms: O_9  and  C_11 
ROOT
HETATM    1  C   UNL     1      61.593   9.662   3.077  1.00  0.00     0.115 A 
HETATM    2  N   UNL     1      60.654   8.666   3.366  1.00  0.00    -0.349 N 
ATOM      3  HN  UNL     1      60.237   8.505   4.283  1.00  0.00     0.166 HD
HETATM    4  C   UNL     1      62.024   9.663   1.760  1.00  0.00     0.087 A 
HETATM    5  C   UNL     1      60.387   7.966   2.284  1.00  0.00     0.047 A 
HETATM    6  S   UNL     1      61.248   8.427   0.870  1.00  0.00    -0.087 SA
HETATM    7  C   UNL     1      59.410   6.845   2.216  1.00  0.00     0.076 C 
ENDROOT
BRANCH   1   8
HETATM    8  C   UNL     1      62.080  10.626   4.066  1.00  0.00     0.310 C 
HETATM    9  O   UNL     1      62.014  11.842   3.894  1.00  0.00    -0.258 OA
BRANCH   8  10
HETATM   10  O   UNL     1      62.612  10.039   5.178  1.00  0.00    -0.317 OA
BRANCH  10  11
HETATM   11  C   UNL     1      63.838   9.322   4.975  1.00  0.00     0.175 C 
HETATM   12  C   UNL     1      63.746   7.911   5.530  1.00  0.00     0.034 C 
ENDBRANCH  10  11
ENDBRANCH   8  10
ENDBRANCH   1   8
TORSDOF 3
ENDMDL
MODEL 8
REMARK VINA RESULT:      -3.6      3.724      4.315
REMARK  3 active torsions:
REMARK  status: ('A' for Active; 'I' for Inactive)
REMARK    1  A    between atoms: C_1  and  C_5 
REMARK    2  A    between atoms: C_5  and  O_9 
REMARK    3  A    between atoms: O_9  and  C_11 
ROOT
HETATM    1  C   UNL     1      65.267   7.302   5.966  1.00  0.00     0.115 A 
HETATM    2  N   UNL     1      64.077   7.193   6.693  1.00  0.00    -0.349 N 
ATOM      3  HN  UNL     1      63.970   7.440   7.677  1.00  0.00     0.166 HD
HETATM    4  C   UNL     1      65.161   6.883   4.649  1.00  0.00     0.087 A 
HETATM    5  C   UNL     1      63.116   6.726   5.924  1.00  0.00     0.047 A 
HETATM    6  S   UNL     1      63.568   6.364   4.307  1.00  0.00    -0.087 SA
HETATM    7  C   UNL     1      61.708   6.511   6.359  1.00  0.00     0.076 C 
ENDROOT
BRANCH   1   8
HETATM    8  C   UNL     1      66.517   7.814   6.531  1.00  0.00     0.310 C 
HETATM    9  O   UNL     1      66.656   8.984   6.880  1.00  0.00    -0.258 OA
BRANCH   8  10
HETATM   10  O   UNL     1      67.497   6.868   6.623  1.00  0.00    -0.317 OA
BRANCH  10  11
HETATM   11  C   UNL     1      67.261   5.820   7.574  1.00  0.00     0.175 C 
HETATM   12  C   UNL     1      67.499   6.306   8.994  1.00  0.00     0.034 C 
ENDBRANCH  10  11
ENDBRANCH   8  10
ENDBRANCH   1   8
TORSDOF 3
ENDMDL
MODEL 9
REMARK VINA RESULT:      -3.4      4.131      5.943
REMARK  3 active torsions:
REMARK  status: ('A' for Active; 'I' for Inactive)
REMARK    1  A    between atoms: C_1  and  C_5 
REMARK    2  A    between atoms: C_5  and  O_9 
REMARK    3  A    between atoms: O_9  and  C_11 
ROOT
HETATM    1  C   UNL     1      65.046   6.950   6.487  1.00  0.00     0.115 A 
HETATM    2  N   UNL     1      65.507   6.790   7.797  1.00  0.00    -0.349 N 
ATOM      3  HN  UNL     1      64.927   6.861   8.633  1.00  0.00     0.166 HD
HETATM    4  C   UNL     1      66.036   6.827   5.524  1.00  0.00     0.087 A 
HETATM    5  C   UNL     1      66.799   6.534   7.797  1.00  0.00     0.047 A 
HETATM    6  S   UNL     1      67.547   6.495   6.251  1.00  0.00    -0.087 SA
HETATM    7  C   UNL     1      67.616   6.278   9.015  1.00  0.00     0.076 C 
ENDROOT
BRANCH   1   8
HETATM    8  C   UNL     1      63.647   7.220   6.148  1.00  0.00     0.310 C 
HETATM    9  O   UNL     1      62.875   7.779   6.923  1.00  0.00    -0.258 OA
BRANCH   8  10
HETATM   10  O   UNL     1      63.299   6.787   4.901  1.00  0.00    -0.317 OA
BRANCH  10  11
HETATM   11  C   UNL     1      62.455   5.627   4.860  1.00  0.00     0.175 C 
HETATM   12  C   UNL     1      61.033   5.998   4.477  1.00  0.00     0.034 C 
ENDBRANCH  10  11
ENDBRANCH   8  10
ENDBRANCH   1   8
TORSDOF 3
ENDMDL
