MODEL 1
REMARK VINA RESULT:      -5.0      0.000      0.000
REMARK  0 active torsions:
REMARK  status: ('A' for Active; 'I' for Inactive)
ROOT
HETATM    1  C   UNL     1      62.589  10.132   4.199  1.00  0.00     0.112 A 
HETATM    2  C   UNL     1      61.935  10.902   3.103  1.00  0.00     0.266 A 
HETATM    3  N   UNL     1      61.573  10.178   1.989  1.00  0.00    -0.326 N 
HETATM    4  C   UNL     1      62.806   8.816   4.022  1.00  0.00     0.030 A 
HETATM    5  C   UNL     1      62.953  10.794   5.399  1.00  0.00     0.105 C 
HETATM    6  N   UNL     1      63.265  11.279   6.408  1.00  0.00    -0.191 NA
HETATM    7  C   UNL     1      61.791   8.830   1.826  1.00  0.00     0.008 A 
HETATM    8  C   UNL     1      62.405   8.146   2.805  1.00  0.00     0.026 A 
HETATM    9  O   UNL     1      61.723  12.109   3.175  1.00  0.00    -0.267 OA
HETATM   10  C   UNL     1      61.317   8.212   0.547  1.00  0.00     0.068 C 
HETATM   11  H   UNL     1      61.124  10.660   1.256  1.00  0.00     0.169 HD
ENDROOT
TORSDOF 0
ENDMDL
MODEL 2
REMARK VINA RESULT:      -5.0      2.095      2.732
REMARK  0 active torsions:
REMARK  status: ('A' for Active; 'I' for Inactive)
ROOT
HETATM    1  C   UNL     1      62.797   9.064   4.915  1.00  0.00     0.112 A 
HETATM    2  C   UNL     1      62.785  10.523   5.222  1.00  0.00     0.266 A 
HETATM    3  N   UNL     1      62.377  11.353   4.201  1.00  0.00    -0.326 N 
HETATM    4  C   UNL     1      62.446   8.663   3.680  1.00  0.00     0.030 A 
HETATM    5  C   UNL     1      63.161   8.139   5.925  1.00  0.00     0.105 C 
HETATM    6  N   UNL     1      63.442   7.334   6.714  1.00  0.00    -0.191 NA
HETATM    7  C   UNL     1      62.010  10.926   2.945  1.00  0.00     0.008 A 
HETATM    8  C   UNL     1      62.048   9.614   2.665  1.00  0.00     0.026 A 
HETATM    9  O   UNL     1      63.113  10.973   6.315  1.00  0.00    -0.267 OA
HETATM   10  C   UNL     1      61.584  11.976   1.967  1.00  0.00     0.068 C 
HETATM   11  H   UNL     1      62.345  12.320   4.382  1.00  0.00     0.169 HD
ENDROOT
TORSDOF 0
ENDMDL
MODEL 3
REMARK VINA RESULT:      -4.7      1.372      1.479
REMARK  0 active torsions:
REMARK  status: ('A' for Active; 'I' for Inactive)
ROOT
HETATM    1  C   UNL     1      63.081   8.960   3.832  1.00  0.00     0.112 A 
HETATM    2  C   UNL     1      61.971   9.929   3.600  1.00  0.00     0.266 A 
HETATM    3  N   UNL     1      61.087   9.607   2.595  1.00  0.00    -0.326 N 
HETATM    4  C   UNL     1      63.162   7.874   3.042  1.00  0.00     0.030 A 
HETATM    5  C   UNL     1      64.009   9.195   4.877  1.00  0.00     0.105 C 
HETATM    6  N   UNL     1      64.793   9.329   5.724  1.00  0.00    -0.191 NA
HETATM    7  C   UNL     1      61.178   8.486   1.803  1.00  0.00     0.008 A 
HETATM    8  C   UNL     1      62.193   7.630   1.997  1.00  0.00     0.026 A 
HETATM    9  O   UNL     1      61.839  10.955   4.260  1.00  0.00    -0.267 OA
HETATM   10  C   UNL     1      60.114   8.298   0.765  1.00  0.00     0.068 C 
HETATM   11  H   UNL     1      60.336  10.222   2.432  1.00  0.00     0.169 HD
ENDROOT
TORSDOF 0
ENDMDL
MODEL 4
REMARK VINA RESULT:      -4.6      1.759      2.150
REMARK  0 active torsions:
REMARK  status: ('A' for Active; 'I' for Inactive)
ROOT
HETATM    1  C   UNL     1      62.673  10.209   4.211  1.00  0.00     0.112 A 
HETATM    2  C   UNL     1      63.174   8.836   3.920  1.00  0.00     0.266 A 
HETATM    3  N   UNL     1      62.909   8.350   2.658  1.00  0.00    -0.326 N 
HETATM    4  C   UNL     1      61.984  10.860   3.256  1.00  0.00     0.030 A 
HETATM    5  C   UNL     1      62.943  10.801   5.471  1.00  0.00     0.105 C 
HETATM    6  N   UNL     1      63.140  11.340   6.481  1.00  0.00    -0.191 NA
HETATM    7  C   UNL     1      62.211   9.032   1.688  1.00  0.00     0.008 A 
HETATM    8  C   UNL     1      61.739  10.258   1.964  1.00  0.00     0.026 A 
HETATM    9  O   UNL     1      63.790   8.166   4.743  1.00  0.00    -0.267 OA
HETATM   10  C   UNL     1      62.031   8.345   0.370  1.00  0.00     0.068 C 
HETATM   11  H   UNL     1      63.242   7.451   2.435  1.00  0.00     0.169 HD
ENDROOT
TORSDOF 0
ENDMDL
MODEL 5
REMARK VINA RESULT:      -4.6      1.758      3.418
REMARK  0 active torsions:
REMARK  status: ('A' for Active; 'I' for Inactive)
ROOT
HETATM    1  C   UNL     1      62.285  10.008   3.659  1.00  0.00     0.112 A 
HETATM    2  C   UNL     1      62.731  10.261   5.059  1.00  0.00     0.266 A 
HETATM    3  N   UNL     1      63.048   9.147   5.804  1.00  0.00    -0.326 N 
HETATM    4  C   UNL     1      62.193   8.734   3.233  1.00  0.00     0.030 A 
HETATM    5  C   UNL     1      61.982  11.102   2.811  1.00  0.00     0.105 C 
HETATM    6  N   UNL     1      61.729  11.958   2.067  1.00  0.00    -0.191 NA
HETATM    7  C   UNL     1      62.960   7.851   5.350  1.00  0.00     0.008 A 
HETATM    8  C   UNL     1      62.532   7.626   4.098  1.00  0.00     0.026 A 
HETATM    9  O   UNL     1      62.819  11.390   5.532  1.00  0.00    -0.267 OA
HETATM   10  C   UNL     1      63.359   6.768   6.304  1.00  0.00     0.068 C 
HETATM   11  H   UNL     1      63.361   9.288   6.727  1.00  0.00     0.169 HD
ENDROOT
TORSDOF 0
ENDMDL
MODEL 6
REMARK VINA RESULT:      -4.3      2.983      3.849
REMARK  0 active torsions:
REMARK  status: ('A' for Active; 'I' for Inactive)
ROOT
HETATM    1  C   UNL     1      63.334   8.778   3.985  1.00  0.00     0.112 A 
HETATM    2  C   UNL     1      64.503   8.747   4.910  1.00  0.00     0.266 A 
HETATM    3  N   UNL     1      65.361   7.680   4.764  1.00  0.00    -0.326 N 
HETATM    4  C   UNL     1      63.179   7.769   3.108  1.00  0.00     0.030 A 
HETATM    5  C   UNL     1      62.426   9.866   4.040  1.00  0.00     0.105 C 
HETATM    6  N   UNL     1      61.655  10.734   4.031  1.00  0.00    -0.191 NA
HETATM    7  C   UNL     1      65.196   6.661   3.855  1.00  0.00     0.008 A 
HETATM    8  C   UNL     1      64.127   6.679   3.042  1.00  0.00     0.026 A 
HETATM    9  O   UNL     1      64.703   9.615   5.754  1.00  0.00    -0.267 OA
HETATM   10  C   UNL     1      66.241   5.589   3.836  1.00  0.00     0.068 C 
HETATM   11  H   UNL     1      66.150   7.644   5.352  1.00  0.00     0.169 HD
ENDROOT
TORSDOF 0
ENDMDL
MODEL 7
REMARK VINA RESULT:      -4.0      2.318      3.180
REMARK  0 active torsions:
REMARK  status: ('A' for Active; 'I' for Inactive)
ROOT
HETATM    1  C   UNL     1      62.220   9.567   1.841  1.00  0.00     0.112 A 
HETATM    2  C   UNL     1      62.759   8.776   2.984  1.00  0.00     0.266 A 
HETATM    3  N   UNL     1      63.033   7.451   2.727  1.00  0.00    -0.326 N 
HETATM    4  C   UNL     1      62.012   8.943   0.667  1.00  0.00     0.030 A 
HETATM    5  C   UNL     1      61.953  10.949   2.009  1.00  0.00     0.105 C 
HETATM    6  N   UNL     1      61.723  12.085   2.084  1.00  0.00    -0.191 NA
HETATM    7  C   UNL     1      62.826   6.829   1.517  1.00  0.00     0.008 A 
HETATM    8  C   UNL     1      62.315   7.538   0.498  1.00  0.00     0.026 A 
HETATM    9  O   UNL     1      62.954   9.264   4.093  1.00  0.00    -0.267 OA
HETATM   10  C   UNL     1      63.196   5.382   1.424  1.00  0.00     0.068 C 
HETATM   11  H   UNL     1      63.405   6.910   3.461  1.00  0.00     0.169 HD
ENDROOT
TORSDOF 0
ENDMDL
MODEL 8
REMARK VINA RESULT:      -4.0      4.302      5.834
REMARK  0 active torsions:
REMARK  status: ('A' for Active; 'I' for Inactive)
ROOT
HETATM    1  C   UNL     1      64.636   7.929   5.163  1.00  0.00     0.112 A 
HETATM    2  C   UNL     1      64.147   7.421   6.477  1.00  0.00     0.266 A 
HETATM    3  N   UNL     1      65.112   6.955   7.342  1.00  0.00    -0.326 N 
HETATM    4  C   UNL     1      65.955   7.873   4.901  1.00  0.00     0.030 A 
HETATM    5  C   UNL     1      63.712   8.467   4.232  1.00  0.00     0.105 C 
HETATM    6  N   UNL     1      63.005   8.927   3.434  1.00  0.00    -0.191 NA
HETATM    7  C   UNL     1      66.459   6.914   7.064  1.00  0.00     0.008 A 
HETATM    8  C   UNL     1      66.892   7.348   5.870  1.00  0.00     0.026 A 
HETATM    9  O   UNL     1      62.959   7.414   6.784  1.00  0.00    -0.267 OA
HETATM   10  C   UNL     1      67.359   6.383   8.136  1.00  0.00     0.068 C 
HETATM   11  H   UNL     1      64.817   6.628   8.223  1.00  0.00     0.169 HD
ENDROOT
TORSDOF 0
ENDMDL
MODEL 9
REMARK VINA RESULT:      -3.9      2.054      2.487
REMARK  0 active torsions:
REMARK  status: ('A' for Active; 'I' for Inactive)
ROOT
HETATM    1  C   UNL     1      62.673   9.483   3.455  1.00  0.00     0.112 A 
HETATM    2  C   UNL     1      62.255   8.919   2.140  1.00  0.00     0.266 A 
HETATM    3  N   UNL     1      62.693   7.643   1.863  1.00  0.00    -0.326 N 
HETATM    4  C   UNL     1      63.458   8.739   4.256  1.00  0.00     0.030 A 
HETATM    5  C   UNL     1      62.228  10.774   3.837  1.00  0.00     0.105 C 
HETATM    6  N   UNL     1      61.888  11.821   4.208  1.00  0.00    -0.191 NA
HETATM    7  C   UNL     1      63.487   6.890   2.696  1.00  0.00     0.008 A 
HETATM    8  C   UNL     1      63.882   7.412   3.868  1.00  0.00     0.026 A 
HETATM    9  O   UNL     1      61.560   9.541   1.343  1.00  0.00    -0.267 OA
HETATM   10  C   UNL     1      63.854   5.516   2.228  1.00  0.00     0.068 C 
HETATM   11  H   UNL     1      62.418   7.241   1.007  1.00  0.00     0.169 HD
ENDROOT
TORSDOF 0
ENDMDL
