MODEL 1
REMARK VINA RESULT:      -5.2      0.000      0.000
REMARK  2 active torsions:
REMARK  status: ('A' for Active; 'I' for Inactive)
REMARK    1  A    between atoms: C_1  and  C_2 
REMARK    2  A    between atoms: C_2  and  O_5 
ROOT
HETATM    1  C   UNL     1      62.881   9.423   4.145  1.00  0.00     0.078 A 
HETATM    2  C   UNL     1      62.342  10.701   3.973  1.00  0.00     0.132 A 
HETATM    3  F   UNL     1      62.320  11.602   4.964  1.00  0.00    -0.205 F 
HETATM    4  C   UNL     1      62.869   8.535   3.057  1.00  0.00     0.021 A 
HETATM    5  C   UNL     1      61.800  11.087   2.745  1.00  0.00     0.043 A 
HETATM    6  C   UNL     1      62.325   8.921   1.827  1.00  0.00     0.001 A 
HETATM    7  C   UNL     1      61.790  10.197   1.672  1.00  0.00     0.003 A 
ENDROOT
BRANCH   1   8
HETATM    8  C   UNL     1      63.469   8.945   5.422  1.00  0.00     0.296 C 
HETATM    9  O   UNL     1      62.826   8.314   6.250  1.00  0.00    -0.259 OA
BRANCH   8  10
HETATM   10  O   UNL     1      64.771   9.293   5.545  1.00  0.00    -0.322 OA
HETATM   11  C   UNL     1      65.674   8.192   5.632  1.00  0.00     0.213 C 
ENDBRANCH   8  10
ENDBRANCH   1   8
TORSDOF 2
ENDMDL
MODEL 2
REMARK VINA RESULT:      -4.9      1.461      2.059
REMARK  2 active torsions:
REMARK  status: ('A' for Active; 'I' for Inactive)
REMARK    1  A    between atoms: C_1  and  C_2 
REMARK    2  A    between atoms: C_2  and  O_5 
ROOT
HETATM    1  C   UNL     1      62.888   9.365   4.121  1.00  0.00     0.078 A 
HETATM    2  C   UNL     1      62.870   8.579   2.966  1.00  0.00     0.132 A 
HETATM    3  F   UNL     1      63.374   7.338   2.944  1.00  0.00    -0.205 F 
HETATM    4  C   UNL     1      62.338  10.656   4.065  1.00  0.00     0.021 A 
HETATM    5  C   UNL     1      62.319   9.067   1.779  1.00  0.00     0.043 A 
HETATM    6  C   UNL     1      61.786  11.146   2.876  1.00  0.00     0.001 A 
HETATM    7  C   UNL     1      61.778  10.350   1.733  1.00  0.00     0.003 A 
ENDROOT
BRANCH   1   8
HETATM    8  C   UNL     1      63.461   8.912   5.414  1.00  0.00     0.296 C 
HETATM    9  O   UNL     1      62.809   8.292   6.243  1.00  0.00    -0.259 OA
BRANCH   8  10
HETATM   10  O   UNL     1      64.759   9.268   5.548  1.00  0.00    -0.322 OA
HETATM   11  C   UNL     1      65.681   8.178   5.519  1.00  0.00     0.213 C 
ENDBRANCH   8  10
ENDBRANCH   1   8
TORSDOF 2
ENDMDL
MODEL 3
REMARK VINA RESULT:      -4.1      2.424      2.955
REMARK  2 active torsions:
REMARK  status: ('A' for Active; 'I' for Inactive)
REMARK    1  A    between atoms: C_1  and  C_2 
REMARK    2  A    between atoms: C_2  and  O_5 
ROOT
HETATM    1  C   UNL     1      62.407   8.936   2.913  1.00  0.00     0.078 A 
HETATM    2  C   UNL     1      62.121   9.717   1.792  1.00  0.00     0.132 A 
HETATM    3  F   UNL     1      62.080   9.199   0.556  1.00  0.00    -0.205 F 
HETATM    4  C   UNL     1      62.429   9.552   4.176  1.00  0.00     0.021 A 
HETATM    5  C   UNL     1      61.865  11.084   1.920  1.00  0.00     0.043 A 
HETATM    6  C   UNL     1      62.174  10.922   4.305  1.00  0.00     0.001 A 
HETATM    7  C   UNL     1      61.893  11.687   3.177  1.00  0.00     0.003 A 
ENDROOT
BRANCH   1   8
HETATM    8  C   UNL     1      62.691   7.479   2.849  1.00  0.00     0.296 C 
HETATM    9  O   UNL     1      61.818   6.645   2.657  1.00  0.00    -0.259 OA
BRANCH   8  10
HETATM   10  O   UNL     1      64.005   7.209   3.030  1.00  0.00    -0.322 OA
HETATM   11  C   UNL     1      64.283   6.305   4.099  1.00  0.00     0.213 C 
ENDBRANCH   8  10
ENDBRANCH   1   8
TORSDOF 2
ENDMDL
MODEL 4
REMARK VINA RESULT:      -4.0      2.067      2.595
REMARK  2 active torsions:
REMARK  status: ('A' for Active; 'I' for Inactive)
REMARK    1  A    between atoms: C_1  and  C_2 
REMARK    2  A    between atoms: C_2  and  O_5 
ROOT
HETATM    1  C   UNL     1      61.897   9.386   3.363  1.00  0.00     0.078 A 
HETATM    2  C   UNL     1      61.219   8.170   3.472  1.00  0.00     0.132 A 
HETATM    3  F   UNL     1      60.913   7.631   4.660  1.00  0.00    -0.205 F 
HETATM    4  C   UNL     1      62.180   9.888   2.081  1.00  0.00     0.021 A 
HETATM    5  C   UNL     1      60.831   7.464   2.331  1.00  0.00     0.043 A 
HETATM    6  C   UNL     1      61.792   9.180   0.937  1.00  0.00     0.001 A 
HETATM    7  C   UNL     1      61.118   7.968   1.063  1.00  0.00     0.003 A 
ENDROOT
BRANCH   1   8
HETATM    8  C   UNL     1      62.342  10.186   4.532  1.00  0.00     0.296 C 
HETATM    9  O   UNL     1      62.146  11.391   4.620  1.00  0.00    -0.259 OA
BRANCH   8  10
HETATM   10  O   UNL     1      62.977   9.428   5.456  1.00  0.00    -0.322 OA
HETATM   11  C   UNL     1      64.295   9.023   5.087  1.00  0.00     0.213 C 
ENDBRANCH   8  10
ENDBRANCH   1   8
TORSDOF 2
ENDMDL
MODEL 5
REMARK VINA RESULT:      -3.9      3.974      6.918
REMARK  2 active torsions:
REMARK  status: ('A' for Active; 'I' for Inactive)
REMARK    1  A    between atoms: C_1  and  C_2 
REMARK    2  A    between atoms: C_2  and  O_5 
ROOT
HETATM    1  C   UNL     1      67.140   6.442   6.739  1.00  0.00     0.078 A 
HETATM    2  C   UNL     1      67.338   6.309   8.116  1.00  0.00     0.132 A 
HETATM    3  F   UNL     1      67.098   7.315   8.968  1.00  0.00    -0.205 F 
HETATM    4  C   UNL     1      67.412   5.341   5.910  1.00  0.00     0.021 A 
HETATM    5  C   UNL     1      67.801   5.108   8.658  1.00  0.00     0.043 A 
HETATM    6  C   UNL     1      67.877   4.138   6.453  1.00  0.00     0.001 A 
HETATM    7  C   UNL     1      68.072   4.022   7.827  1.00  0.00     0.003 A 
ENDROOT
BRANCH   1   8
HETATM    8  C   UNL     1      66.654   7.689   6.096  1.00  0.00     0.296 C 
HETATM    9  O   UNL     1      67.370   8.393   5.397  1.00  0.00    -0.259 OA
BRANCH   8  10
HETATM   10  O   UNL     1      65.354   7.935   6.380  1.00  0.00    -0.322 OA
HETATM   11  C   UNL     1      64.618   8.540   5.317  1.00  0.00     0.213 C 
ENDBRANCH   8  10
ENDBRANCH   1   8
TORSDOF 2
ENDMDL
MODEL 6
REMARK VINA RESULT:      -3.6     12.054     13.399
REMARK  2 active torsions:
REMARK  status: ('A' for Active; 'I' for Inactive)
REMARK    1  A    between atoms: C_1  and  C_2 
REMARK    2  A    between atoms: C_2  and  O_5 
ROOT
HETATM    1  C   UNL     1      56.767   2.226  12.923  1.00  0.00     0.078 A 
HETATM    2  C   UNL     1      57.709   2.482  11.923  1.00  0.00     0.132 A 
HETATM    3  F   UNL     1      57.367   3.025  10.747  1.00  0.00    -0.205 F 
HETATM    4  C   UNL     1      57.204   1.656  14.130  1.00  0.00     0.021 A 
HETATM    5  C   UNL     1      59.057   2.175  12.118  1.00  0.00     0.043 A 
HETATM    6  C   UNL     1      58.555   1.347  14.325  1.00  0.00     0.001 A 
HETATM    7  C   UNL     1      59.481   1.607  13.318  1.00  0.00     0.003 A 
ENDROOT
BRANCH   1   8
HETATM    8  C   UNL     1      55.319   2.522  12.782  1.00  0.00     0.296 C 
HETATM    9  O   UNL     1      54.474   1.645  12.668  1.00  0.00    -0.259 OA
BRANCH   8  10
HETATM   10  O   UNL     1      55.068   3.852  12.794  1.00  0.00    -0.322 OA
HETATM   11  C   UNL     1      54.385   4.317  13.958  1.00  0.00     0.213 C 
ENDBRANCH   8  10
ENDBRANCH   1   8
TORSDOF 2
ENDMDL
MODEL 7
REMARK VINA RESULT:      -3.6      2.589      3.977
REMARK  2 active torsions:
REMARK  status: ('A' for Active; 'I' for Inactive)
REMARK    1  A    between atoms: C_1  and  C_2 
REMARK    2  A    between atoms: C_2  and  O_5 
ROOT
HETATM    1  C   UNL     1      62.569   8.657   3.013  1.00  0.00     0.078 A 
HETATM    2  C   UNL     1      62.490   9.684   3.957  1.00  0.00     0.132 A 
HETATM    3  F   UNL     1      61.607  10.686   3.844  1.00  0.00    -0.205 F 
HETATM    4  C   UNL     1      63.520   7.641   3.202  1.00  0.00     0.021 A 
HETATM    5  C   UNL     1      63.341   9.703   5.064  1.00  0.00     0.043 A 
HETATM    6  C   UNL     1      64.374   7.659   4.311  1.00  0.00     0.001 A 
HETATM    7  C   UNL     1      64.284   8.692   5.241  1.00  0.00     0.003 A 
ENDROOT
BRANCH   1   8
HETATM    8  C   UNL     1      61.700   8.576   1.812  1.00  0.00     0.296 C 
HETATM    9  O   UNL     1      61.692   9.438   0.944  1.00  0.00    -0.259 OA
BRANCH   8  10
HETATM   10  O   UNL     1      60.939   7.457   1.809  1.00  0.00    -0.322 OA
HETATM   11  C   UNL     1      59.727   7.561   2.557  1.00  0.00     0.213 C 
ENDBRANCH   8  10
ENDBRANCH   1   8
TORSDOF 2
ENDMDL
MODEL 8
REMARK VINA RESULT:      -3.6      2.599      4.043
REMARK  2 active torsions:
REMARK  status: ('A' for Active; 'I' for Inactive)
REMARK    1  A    between atoms: C_1  and  C_2 
REMARK    2  A    between atoms: C_2  and  O_5 
ROOT
HETATM    1  C   UNL     1      62.133   8.514   3.916  1.00  0.00     0.078 A 
HETATM    2  C   UNL     1      63.064   8.544   4.958  1.00  0.00     0.132 A 
HETATM    3  F   UNL     1      64.050   9.450   5.003  1.00  0.00    -0.205 F 
HETATM    4  C   UNL     1      61.127   7.534   3.940  1.00  0.00     0.021 A 
HETATM    5  C   UNL     1      62.998   7.618   6.001  1.00  0.00     0.043 A 
HETATM    6  C   UNL     1      61.061   6.605   4.984  1.00  0.00     0.001 A 
HETATM    7  C   UNL     1      61.997   6.647   6.014  1.00  0.00     0.003 A 
ENDROOT
BRANCH   1   8
HETATM    8  C   UNL     1      62.146   9.464   2.775  1.00  0.00     0.296 C 
HETATM    9  O   UNL     1      62.413   9.119   1.632  1.00  0.00    -0.259 OA
BRANCH   8  10
HETATM   10  O   UNL     1      61.835  10.724   3.159  1.00  0.00    -0.322 OA
HETATM   11  C   UNL     1      61.787  11.674   2.094  1.00  0.00     0.213 C 
ENDBRANCH   8  10
ENDBRANCH   1   8
TORSDOF 2
ENDMDL
MODEL 9
REMARK VINA RESULT:      -3.6      7.043      7.502
REMARK  2 active torsions:
REMARK  status: ('A' for Active; 'I' for Inactive)
REMARK    1  A    between atoms: C_1  and  C_2 
REMARK    2  A    between atoms: C_2  and  O_5 
ROOT
HETATM    1  C   UNL     1      57.823   6.033   7.492  1.00  0.00     0.078 A 
HETATM    2  C   UNL     1      56.871   7.030   7.722  1.00  0.00     0.132 A 
HETATM    3  F   UNL     1      57.012   7.935   8.699  1.00  0.00    -0.205 F 
HETATM    4  C   UNL     1      57.604   5.121   6.446  1.00  0.00     0.021 A 
HETATM    5  C   UNL     1      55.724   7.117   6.930  1.00  0.00     0.043 A 
HETATM    6  C   UNL     1      56.454   5.207   5.653  1.00  0.00     0.001 A 
HETATM    7  C   UNL     1      55.514   6.206   5.896  1.00  0.00     0.003 A 
ENDROOT
BRANCH   1   8
HETATM    8  C   UNL     1      59.062   5.879   8.296  1.00  0.00     0.296 C 
HETATM    9  O   UNL     1      60.173   6.128   7.849  1.00  0.00    -0.259 OA
BRANCH   8  10
HETATM   10  O   UNL     1      58.804   5.438   9.549  1.00  0.00    -0.322 OA
HETATM   11  C   UNL     1      58.674   4.021   9.665  1.00  0.00     0.213 C 
ENDBRANCH   8  10
ENDBRANCH   1   8
TORSDOF 2
ENDMDL
