MODEL 1
REMARK VINA RESULT:      -4.2      0.000      0.000
REMARK  1 active torsions:
REMARK  status: ('A' for Active; 'I' for Inactive)
REMARK    1  A    between atoms: C_1  and  C_8 
ROOT
HETATM    1  C   UNL     1      62.482   9.870   3.763  1.00  0.00     0.051 A 
HETATM    2  S   UNL     1      63.142   9.545   5.315  1.00  0.00    -0.076 SA
HETATM    3  C   UNL     1      63.436   7.907   4.935  1.00  0.00     0.086 A 
HETATM    4  C   UNL     1      62.495   8.736   2.973  1.00  0.00     0.025 A 
HETATM    5  N   UNL     1      64.479   6.194   6.574  1.00  0.00    -0.191 NA
HETATM    6  C   UNL     1      64.014   6.975   5.852  1.00  0.00     0.107 C 
HETATM    7  C   UNL     1      63.046   7.605   3.648  1.00  0.00     0.032 A 
ENDROOT
BRANCH   1   8
HETATM    8  C   UNL     1      62.002  11.214   3.452  1.00  0.00     0.162 C 
HETATM    9  O   UNL     1      61.790  12.084   4.296  1.00  0.00    -0.292 OA
HETATM   10  C   UNL     1      61.763  11.521   1.992  1.00  0.00     0.097 C 
ENDBRANCH   1   8
TORSDOF 1
ENDMDL
MODEL 2
REMARK VINA RESULT:      -4.0      3.001      3.689
REMARK  1 active torsions:
REMARK  status: ('A' for Active; 'I' for Inactive)
REMARK    1  A    between atoms: C_1  and  C_8 
ROOT
HETATM    1  C   UNL     1      61.862   9.841   2.973  1.00  0.00     0.051 A 
HETATM    2  S   UNL     1      61.190   8.323   3.410  1.00  0.00    -0.076 SA
HETATM    3  C   UNL     1      61.080   7.812   1.786  1.00  0.00     0.086 A 
HETATM    4  C   UNL     1      62.001   9.944   1.601  1.00  0.00     0.025 A 
HETATM    5  N   UNL     1      60.140   5.519   1.037  1.00  0.00    -0.191 NA
HETATM    6  C   UNL     1      60.559   6.542   1.390  1.00  0.00     0.107 C 
HETATM    7  C   UNL     1      61.551   8.775   0.917  1.00  0.00     0.032 A 
ENDROOT
BRANCH   1   8
HETATM    8  C   UNL     1      62.196  10.808   4.015  1.00  0.00     0.162 C 
HETATM    9  O   UNL     1      61.933  12.010   3.952  1.00  0.00    -0.292 OA
HETATM   10  C   UNL     1      62.907  10.266   5.233  1.00  0.00     0.097 C 
ENDBRANCH   1   8
TORSDOF 1
ENDMDL
MODEL 3
REMARK VINA RESULT:      -3.9      1.577      1.963
REMARK  1 active torsions:
REMARK  status: ('A' for Active; 'I' for Inactive)
REMARK    1  A    between atoms: C_1  and  C_8 
ROOT
HETATM    1  C   UNL     1      62.354   9.970   3.335  1.00  0.00     0.051 A 
HETATM    2  S   UNL     1      62.900   8.364   3.604  1.00  0.00    -0.076 SA
HETATM    3  C   UNL     1      63.227   8.664   5.252  1.00  0.00     0.086 A 
HETATM    4  C   UNL     1      62.421  10.715   4.497  1.00  0.00     0.025 A 
HETATM    5  N   UNL     1      64.182   6.905   6.895  1.00  0.00    -0.191 NA
HETATM    6  C   UNL     1      63.753   7.681   6.145  1.00  0.00     0.107 C 
HETATM    7  C   UNL     1      62.923   9.963   5.602  1.00  0.00     0.032 A 
ENDROOT
BRANCH   1   8
HETATM    8  C   UNL     1      61.908  10.365   2.002  1.00  0.00     0.162 C 
HETATM    9  O   UNL     1      61.698  11.529   1.662  1.00  0.00    -0.292 OA
HETATM   10  C   UNL     1      61.702   9.250   1.003  1.00  0.00     0.097 C 
ENDBRANCH   1   8
TORSDOF 1
ENDMDL
MODEL 4
REMARK VINA RESULT:      -3.9      1.928      2.225
REMARK  1 active torsions:
REMARK  status: ('A' for Active; 'I' for Inactive)
REMARK    1  A    between atoms: C_1  and  C_8 
ROOT
HETATM    1  C   UNL     1      62.242   9.794   3.734  1.00  0.00     0.051 A 
HETATM    2  S   UNL     1      61.360   8.585   2.892  1.00  0.00    -0.076 SA
HETATM    3  C   UNL     1      62.209   7.317   3.655  1.00  0.00     0.086 A 
HETATM    4  C   UNL     1      63.168   9.224   4.589  1.00  0.00     0.025 A 
HETATM    5  N   UNL     1      61.795   4.802   3.201  1.00  0.00    -0.191 NA
HETATM    6  C   UNL     1      61.967   5.934   3.394  1.00  0.00     0.107 C 
HETATM    7  C   UNL     1      63.148   7.797   4.544  1.00  0.00     0.032 A 
ENDROOT
BRANCH   1   8
HETATM    8  C   UNL     1      61.953  11.203   3.484  1.00  0.00     0.162 C 
HETATM    9  O   UNL     1      61.855  12.055   4.367  1.00  0.00    -0.292 OA
HETATM   10  C   UNL     1      61.770  11.605   2.039  1.00  0.00     0.097 C 
ENDBRANCH   1   8
TORSDOF 1
ENDMDL
MODEL 5
REMARK VINA RESULT:      -3.9      3.542      4.822
REMARK  1 active torsions:
REMARK  status: ('A' for Active; 'I' for Inactive)
REMARK    1  A    between atoms: C_1  and  C_8 
ROOT
HETATM    1  C   UNL     1      65.908   7.291   5.880  1.00  0.00     0.051 A 
HETATM    2  S   UNL     1      65.447   6.404   7.276  1.00  0.00    -0.076 SA
HETATM    3  C   UNL     1      66.834   5.412   7.203  1.00  0.00     0.086 A 
HETATM    4  C   UNL     1      67.109   6.830   5.376  1.00  0.00     0.025 A 
HETATM    5  N   UNL     1      67.355   3.506   8.876  1.00  0.00    -0.191 NA
HETATM    6  C   UNL     1      67.106   4.365   8.136  1.00  0.00     0.107 C 
HETATM    7  C   UNL     1      67.643   5.747   6.138  1.00  0.00     0.032 A 
ENDROOT
BRANCH   1   8
HETATM    8  C   UNL     1      65.048   8.367   5.394  1.00  0.00     0.162 C 
HETATM    9  O   UNL     1      65.075   9.520   5.825  1.00  0.00    -0.292 OA
HETATM   10  C   UNL     1      64.078   8.007   4.293  1.00  0.00     0.097 C 
ENDBRANCH   1   8
TORSDOF 1
ENDMDL
MODEL 6
REMARK VINA RESULT:      -3.9      3.169      4.773
REMARK  1 active torsions:
REMARK  status: ('A' for Active; 'I' for Inactive)
REMARK    1  A    between atoms: C_1  and  C_8 
ROOT
HETATM    1  C   UNL     1      63.193   7.614   5.361  1.00  0.00     0.051 A 
HETATM    2  S   UNL     1      63.603   9.270   5.168  1.00  0.00    -0.076 SA
HETATM    3  C   UNL     1      62.308   9.549   4.091  1.00  0.00     0.086 A 
HETATM    4  C   UNL     1      62.077   7.290   4.611  1.00  0.00     0.025 A 
HETATM    5  N   UNL     1      61.798  11.832   2.983  1.00  0.00    -0.191 NA
HETATM    6  C   UNL     1      62.040  10.816   3.489  1.00  0.00     0.107 C 
HETATM    7  C   UNL     1      61.567   8.405   3.881  1.00  0.00     0.032 A 
ENDROOT
BRANCH   1   8
HETATM    8  C   UNL     1      64.004   6.768   6.231  1.00  0.00     0.162 C 
HETATM    9  O   UNL     1      64.507   7.147   7.290  1.00  0.00    -0.292 OA
HETATM   10  C   UNL     1      64.220   5.343   5.775  1.00  0.00     0.097 C 
ENDBRANCH   1   8
TORSDOF 1
ENDMDL
MODEL 7
REMARK VINA RESULT:      -3.8      5.427      6.441
REMARK  1 active torsions:
REMARK  status: ('A' for Active; 'I' for Inactive)
REMARK    1  A    between atoms: C_1  and  C_8 
ROOT
HETATM    1  C   UNL     1      66.972   6.924   7.156  1.00  0.00     0.051 A 
HETATM    2  S   UNL     1      67.322   5.310   6.685  1.00  0.00    -0.076 SA
HETATM    3  C   UNL     1      67.447   4.779   8.302  1.00  0.00     0.086 A 
HETATM    4  C   UNL     1      66.948   7.042   8.533  1.00  0.00     0.025 A 
HETATM    5  N   UNL     1      67.999   2.347   9.001  1.00  0.00    -0.191 NA
HETATM    6  C   UNL     1      67.752   3.432   8.670  1.00  0.00     0.107 C 
HETATM    7  C   UNL     1      67.222   5.807   9.193  1.00  0.00     0.032 A 
ENDROOT
BRANCH   1   8
HETATM    8  C   UNL     1      66.751   7.941   6.132  1.00  0.00     0.162 C 
HETATM    9  O   UNL     1      65.984   8.896   6.262  1.00  0.00    -0.292 OA
HETATM   10  C   UNL     1      67.528   7.781   4.846  1.00  0.00     0.097 C 
ENDBRANCH   1   8
TORSDOF 1
ENDMDL
MODEL 8
REMARK VINA RESULT:      -3.8      3.187      4.460
REMARK  1 active torsions:
REMARK  status: ('A' for Active; 'I' for Inactive)
REMARK    1  A    between atoms: C_1  and  C_8 
ROOT
HETATM    1  C   UNL     1      63.586   8.907   4.472  1.00  0.00     0.051 A 
HETATM    2  S   UNL     1      63.180   7.942   3.110  1.00  0.00    -0.076 SA
HETATM    3  C   UNL     1      61.795   8.875   2.760  1.00  0.00     0.086 A 
HETATM    4  C   UNL     1      62.670   9.928   4.644  1.00  0.00     0.025 A 
HETATM    5  N   UNL     1      60.178   8.406   0.792  1.00  0.00    -0.191 NA
HETATM    6  C   UNL     1      60.913   8.602   1.669  1.00  0.00     0.107 C 
HETATM    7  C   UNL     1      61.639   9.911   3.657  1.00  0.00     0.032 A 
ENDROOT
BRANCH   1   8
HETATM    8  C   UNL     1      64.770   8.578   5.260  1.00  0.00     0.162 C 
HETATM    9  O   UNL     1      65.382   9.388   5.957  1.00  0.00    -0.292 OA
HETATM   10  C   UNL     1      65.245   7.145   5.194  1.00  0.00     0.097 C 
ENDBRANCH   1   8
TORSDOF 1
ENDMDL
MODEL 9
REMARK VINA RESULT:      -3.7      3.739      4.817
REMARK  1 active torsions:
REMARK  status: ('A' for Active; 'I' for Inactive)
REMARK    1  A    between atoms: C_1  and  C_8 
ROOT
HETATM    1  C   UNL     1      62.516   7.682   1.698  1.00  0.00     0.051 A 
HETATM    2  S   UNL     1      62.601   8.280   3.306  1.00  0.00    -0.076 SA
HETATM    3  C   UNL     1      62.150   9.855   2.830  1.00  0.00     0.086 A 
HETATM    4  C   UNL     1      62.141   8.680   0.819  1.00  0.00     0.025 A 
HETATM    5  N   UNL     1      61.912  11.859   4.453  1.00  0.00    -0.191 NA
HETATM    6  C   UNL     1      62.022  10.950   3.740  1.00  0.00     0.107 C 
HETATM    7  C   UNL     1      61.930   9.933   1.470  1.00  0.00     0.032 A 
ENDROOT
BRANCH   1   8
HETATM    8  C   UNL     1      62.826   6.280   1.434  1.00  0.00     0.162 C 
HETATM    9  O   UNL     1      62.142   5.543   0.723  1.00  0.00    -0.292 OA
HETATM   10  C   UNL     1      64.072   5.732   2.090  1.00  0.00     0.097 C 
ENDBRANCH   1   8
TORSDOF 1
ENDMDL
