MODEL 1
REMARK VINA RESULT:      -5.1      0.000      0.000
REMARK  2 active torsions:
REMARK  status: ('A' for Active; 'I' for Inactive)
REMARK    1  A    between atoms: N_1  and  C_2 
REMARK    2  A    between atoms: C_5  and  O_8 
ROOT
HETATM    1  C   UNL     1      62.514   8.817   3.570  1.00  0.00     0.033 A 
HETATM    2  C   UNL     1      62.401  10.017   4.289  1.00  0.00     0.065 A 
HETATM    3  C   UNL     1      62.060  11.213   3.652  1.00  0.00     0.067 A 
HETATM    4  C   UNL     1      62.272   8.882   2.187  1.00  0.00     0.029 A 
HETATM    5  C   UNL     1      61.926  10.080   1.550  1.00  0.00     0.005 A 
HETATM    6  C   UNL     1      61.820  11.253   2.288  1.00  0.00     0.036 A 
ENDROOT
BRANCH   1   7
HETATM    7  N   UNL     1      62.842   7.625   4.181  1.00  0.00    -0.377 N 
HETATM    8  C   UNL     1      61.855   6.593   4.530  1.00  0.00     0.149 C 
HETATM    9  C   UNL     1      61.902   6.314   6.039  1.00  0.00     0.187 C 
HETATM   10  O   UNL     1      63.229   5.963   6.469  1.00  0.00    -0.388 OA
HETATM   11  C   UNL     1      64.147   7.030   6.176  1.00  0.00     0.187 C 
HETATM   12  C   UNL     1      64.201   7.342   4.670  1.00  0.00     0.149 C 
ENDBRANCH   1   7
BRANCH   3  13
HETATM   13  O   UNL     1      61.958  12.384   4.348  1.00  0.00    -0.361 OA
HETATM   14  H   UNL     1      61.220  12.945   4.215  1.00  0.00     0.217 HD
ENDBRANCH   3  13
TORSDOF 2
ENDMDL
MODEL 2
REMARK VINA RESULT:      -5.0      1.468      2.180
REMARK  2 active torsions:
REMARK  status: ('A' for Active; 'I' for Inactive)
REMARK    1  A    between atoms: N_1  and  C_2 
REMARK    2  A    between atoms: C_5  and  O_8 
ROOT
HETATM    1  C   UNL     1      63.441   8.905   4.711  1.00  0.00     0.033 A 
HETATM    2  C   UNL     1      63.069  10.200   5.107  1.00  0.00     0.065 A 
HETATM    3  C   UNL     1      62.301  11.018   4.274  1.00  0.00     0.067 A 
HETATM    4  C   UNL     1      63.006   8.481   3.444  1.00  0.00     0.029 A 
HETATM    5  C   UNL     1      62.234   9.300   2.611  1.00  0.00     0.005 A 
HETATM    6  C   UNL     1      61.879  10.577   3.030  1.00  0.00     0.036 A 
ENDROOT
BRANCH   1   7
HETATM    7  N   UNL     1      64.191   8.080   5.522  1.00  0.00    -0.377 N 
HETATM    8  C   UNL     1      65.659   8.118   5.584  1.00  0.00     0.149 C 
HETATM    9  C   UNL     1      66.234   6.742   5.218  1.00  0.00     0.187 C 
HETATM   10  O   UNL     1      65.683   5.704   6.047  1.00  0.00    -0.388 OA
HETATM   11  C   UNL     1      64.254   5.653   5.899  1.00  0.00     0.187 C 
HETATM   12  C   UNL     1      63.588   6.983   6.296  1.00  0.00     0.149 C 
ENDBRANCH   1   7
BRANCH   3  13
HETATM   13  O   UNL     1      61.946  12.282   4.652  1.00  0.00    -0.361 OA
HETATM   14  H   UNL     1      61.102  12.619   4.425  1.00  0.00     0.217 HD
ENDBRANCH   3  13
TORSDOF 2
ENDMDL
MODEL 3
REMARK VINA RESULT:      -4.5      2.557      3.749
REMARK  2 active torsions:
REMARK  status: ('A' for Active; 'I' for Inactive)
REMARK    1  A    between atoms: N_1  and  C_2 
REMARK    2  A    between atoms: C_5  and  O_8 
ROOT
HETATM    1  C   UNL     1      62.339   8.922   3.015  1.00  0.00     0.033 A 
HETATM    2  C   UNL     1      61.999  10.278   3.145  1.00  0.00     0.065 A 
HETATM    3  C   UNL     1      62.353  11.006   4.284  1.00  0.00     0.067 A 
HETATM    4  C   UNL     1      63.045   8.341   4.083  1.00  0.00     0.029 A 
HETATM    5  C   UNL     1      63.402   9.073   5.222  1.00  0.00     0.005 A 
HETATM    6  C   UNL     1      63.054  10.414   5.322  1.00  0.00     0.036 A 
ENDROOT
BRANCH   1   7
HETATM    7  N   UNL     1      62.006   8.188   1.897  1.00  0.00    -0.377 N 
HETATM    8  C   UNL     1      61.101   8.675   0.845  1.00  0.00     0.149 C 
HETATM    9  C   UNL     1      59.912   7.715   0.693  1.00  0.00     0.187 C 
HETATM   10  O   UNL     1      60.351   6.368   0.449  1.00  0.00    -0.388 OA
HETATM   11  C   UNL     1      61.171   5.906   1.535  1.00  0.00     0.187 C 
HETATM   12  C   UNL     1      62.419   6.786   1.727  1.00  0.00     0.149 C 
ENDBRANCH   1   7
BRANCH   3  13
HETATM   13  O   UNL     1      62.015  12.323   4.418  1.00  0.00    -0.361 OA
HETATM   14  H   UNL     1      61.773  12.662   5.257  1.00  0.00     0.217 HD
ENDBRANCH   3  13
TORSDOF 2
ENDMDL
MODEL 4
REMARK VINA RESULT:      -4.3      2.251      4.828
REMARK  2 active torsions:
REMARK  status: ('A' for Active; 'I' for Inactive)
REMARK    1  A    between atoms: N_1  and  C_2 
REMARK    2  A    between atoms: C_5  and  O_8 
ROOT
HETATM    1  C   UNL     1      64.549   7.714   4.366  1.00  0.00     0.033 A 
HETATM    2  C   UNL     1      65.125   8.420   5.434  1.00  0.00     0.065 A 
HETATM    3  C   UNL     1      66.391   8.087   5.922  1.00  0.00     0.067 A 
HETATM    4  C   UNL     1      65.307   6.664   3.820  1.00  0.00     0.029 A 
HETATM    5  C   UNL     1      66.577   6.334   4.306  1.00  0.00     0.005 A 
HETATM    6  C   UNL     1      67.123   7.051   5.364  1.00  0.00     0.036 A 
ENDROOT
BRANCH   1   7
HETATM    7  N   UNL     1      63.305   8.032   3.865  1.00  0.00    -0.377 N 
HETATM    8  C   UNL     1      62.806   7.557   2.567  1.00  0.00     0.149 C 
HETATM    9  C   UNL     1      62.450   8.755   1.673  1.00  0.00     0.187 C 
HETATM   10  O   UNL     1      61.518   9.637   2.322  1.00  0.00    -0.388 OA
HETATM   11  C   UNL     1      62.075  10.136   3.550  1.00  0.00     0.187 C 
HETATM   12  C   UNL     1      62.415   8.998   4.530  1.00  0.00     0.149 C 
ENDBRANCH   1   7
BRANCH   3  13
HETATM   13  O   UNL     1      66.950   8.765   6.968  1.00  0.00    -0.361 OA
HETATM   14  H   UNL     1      67.475   8.309   7.595  1.00  0.00     0.217 HD
ENDBRANCH   3  13
TORSDOF 2
ENDMDL
MODEL 5
REMARK VINA RESULT:      -4.1      2.038      2.554
REMARK  2 active torsions:
REMARK  status: ('A' for Active; 'I' for Inactive)
REMARK    1  A    between atoms: N_1  and  C_2 
REMARK    2  A    between atoms: C_5  and  O_8 
ROOT
HETATM    1  C   UNL     1      62.903   8.552   3.224  1.00  0.00     0.033 A 
HETATM    2  C   UNL     1      62.277   9.508   2.407  1.00  0.00     0.065 A 
HETATM    3  C   UNL     1      61.933  10.768   2.902  1.00  0.00     0.067 A 
HETATM    4  C   UNL     1      63.161   8.928   4.553  1.00  0.00     0.029 A 
HETATM    5  C   UNL     1      62.820  10.193   5.047  1.00  0.00     0.005 A 
HETATM    6  C   UNL     1      62.202  11.118   4.215  1.00  0.00     0.036 A 
ENDROOT
BRANCH   1   7
HETATM    7  N   UNL     1      63.258   7.306   2.752  1.00  0.00    -0.377 N 
HETATM    8  C   UNL     1      62.422   6.516   1.838  1.00  0.00     0.149 C 
HETATM    9  C   UNL     1      62.087   5.159   2.476  1.00  0.00     0.187 C 
HETATM   10  O   UNL     1      63.277   4.454   2.869  1.00  0.00    -0.388 OA
HETATM   11  C   UNL     1      64.027   5.231   3.819  1.00  0.00     0.187 C 
HETATM   12  C   UNL     1      64.449   6.593   3.240  1.00  0.00     0.149 C 
ENDBRANCH   1   7
BRANCH   3  13
HETATM   13  O   UNL     1      61.315  11.696   2.113  1.00  0.00    -0.361 OA
HETATM   14  H   UNL     1      60.418  11.580   1.868  1.00  0.00     0.217 HD
ENDBRANCH   3  13
TORSDOF 2
ENDMDL
MODEL 6
REMARK VINA RESULT:      -4.1      2.573      5.736
REMARK  2 active torsions:
REMARK  status: ('A' for Active; 'I' for Inactive)
REMARK    1  A    between atoms: N_1  and  C_2 
REMARK    2  A    between atoms: C_5  and  O_8 
ROOT
HETATM    1  C   UNL     1      65.269   7.152   6.198  1.00  0.00     0.033 A 
HETATM    2  C   UNL     1      65.292   6.265   7.286  1.00  0.00     0.065 A 
HETATM    3  C   UNL     1      66.476   5.641   7.685  1.00  0.00     0.067 A 
HETATM    4  C   UNL     1      66.490   7.375   5.538  1.00  0.00     0.029 A 
HETATM    5  C   UNL     1      67.677   6.752   5.941  1.00  0.00     0.005 A 
HETATM    6  C   UNL     1      67.669   5.880   7.023  1.00  0.00     0.036 A 
ENDROOT
BRANCH   1   7
HETATM    7  N   UNL     1      64.113   7.784   5.793  1.00  0.00    -0.377 N 
HETATM    8  C   UNL     1      62.769   7.373   6.223  1.00  0.00     0.149 C 
HETATM    9  C   UNL     1      61.911   7.027   4.997  1.00  0.00     0.187 C 
HETATM   10  O   UNL     1      61.870   8.117   4.059  1.00  0.00    -0.388 OA
HETATM   11  C   UNL     1      63.197   8.437   3.608  1.00  0.00     0.187 C 
HETATM   12  C   UNL     1      64.116   8.846   4.774  1.00  0.00     0.149 C 
ENDBRANCH   1   7
BRANCH   3  13
HETATM   13  O   UNL     1      66.499   4.770   8.738  1.00  0.00    -0.361 OA
HETATM   14  H   UNL     1      65.765   4.210   8.898  1.00  0.00     0.217 HD
ENDBRANCH   3  13
TORSDOF 2
ENDMDL
MODEL 7
REMARK VINA RESULT:      -4.1      3.228      6.882
REMARK  2 active torsions:
REMARK  status: ('A' for Active; 'I' for Inactive)
REMARK    1  A    between atoms: N_1  and  C_2 
REMARK    2  A    between atoms: C_5  and  O_8 
ROOT
HETATM    1  C   UNL     1      65.825   6.181   7.063  1.00  0.00     0.033 A 
HETATM    2  C   UNL     1      65.987   4.819   7.360  1.00  0.00     0.065 A 
HETATM    3  C   UNL     1      66.889   4.395   8.339  1.00  0.00     0.067 A 
HETATM    4  C   UNL     1      66.613   7.087   7.794  1.00  0.00     0.029 A 
HETATM    5  C   UNL     1      67.514   6.661   8.777  1.00  0.00     0.005 A 
HETATM    6  C   UNL     1      67.652   5.305   9.051  1.00  0.00     0.036 A 
ENDROOT
BRANCH   1   7
HETATM    7  N   UNL     1      64.934   6.621   6.106  1.00  0.00    -0.377 N 
HETATM    8  C   UNL     1      65.288   7.573   5.044  1.00  0.00     0.149 C 
HETATM    9  C   UNL     1      64.381   8.810   5.127  1.00  0.00     0.187 C 
HETATM   10  O   UNL     1      62.990   8.447   5.089  1.00  0.00    -0.388 OA
HETATM   11  C   UNL     1      62.672   7.575   6.187  1.00  0.00     0.187 C 
HETATM   12  C   UNL     1      63.503   6.280   6.152  1.00  0.00     0.149 C 
ENDBRANCH   1   7
BRANCH   3  13
HETATM   13  O   UNL     1      67.056   3.069   8.624  1.00  0.00    -0.361 OA
HETATM   14  H   UNL     1      67.845   2.773   9.032  1.00  0.00     0.217 HD
ENDBRANCH   3  13
TORSDOF 2
ENDMDL
MODEL 8
REMARK VINA RESULT:      -4.0      4.759      6.017
REMARK  2 active torsions:
REMARK  status: ('A' for Active; 'I' for Inactive)
REMARK    1  A    between atoms: N_1  and  C_2 
REMARK    2  A    between atoms: C_5  and  O_8 
ROOT
HETATM    1  C   UNL     1      66.446   5.766   6.610  1.00  0.00     0.033 A 
HETATM    2  C   UNL     1      65.899   7.043   6.810  1.00  0.00     0.065 A 
HETATM    3  C   UNL     1      66.039   8.048   5.849  1.00  0.00     0.067 A 
HETATM    4  C   UNL     1      67.136   5.555   5.404  1.00  0.00     0.029 A 
HETATM    5  C   UNL     1      67.272   6.561   4.440  1.00  0.00     0.005 A 
HETATM    6  C   UNL     1      66.719   7.816   4.665  1.00  0.00     0.036 A 
ENDROOT
BRANCH   1   7
HETATM    7  N   UNL     1      66.312   4.758   7.541  1.00  0.00    -0.377 N 
HETATM    8  C   UNL     1      67.085   4.700   8.790  1.00  0.00     0.149 C 
HETATM    9  C   UNL     1      67.882   3.389   8.851  1.00  0.00     0.187 C 
HETATM   10  O   UNL     1      67.027   2.244   8.689  1.00  0.00    -0.388 OA
HETATM   11  C   UNL     1      66.348   2.305   7.423  1.00  0.00     0.187 C 
HETATM   12  C   UNL     1      65.480   3.570   7.297  1.00  0.00     0.149 C 
ENDBRANCH   1   7
BRANCH   3  13
HETATM   13  O   UNL     1      65.516   9.295   6.046  1.00  0.00    -0.361 OA
HETATM   14  H   UNL     1      64.594   9.401   6.176  1.00  0.00     0.217 HD
ENDBRANCH   3  13
TORSDOF 2
ENDMDL
MODEL 9
REMARK VINA RESULT:      -4.0      2.286      4.560
REMARK  2 active torsions:
REMARK  status: ('A' for Active; 'I' for Inactive)
REMARK    1  A    between atoms: N_1  and  C_2 
REMARK    2  A    between atoms: C_5  and  O_8 
ROOT
HETATM    1  C   UNL     1      62.565   8.064   4.339  1.00  0.00     0.033 A 
HETATM    2  C   UNL     1      63.756   8.739   4.649  1.00  0.00     0.065 A 
HETATM    3  C   UNL     1      64.634   8.248   5.619  1.00  0.00     0.067 A 
HETATM    4  C   UNL     1      62.304   6.881   5.051  1.00  0.00     0.029 A 
HETATM    5  C   UNL     1      63.186   6.388   6.020  1.00  0.00     0.005 A 
HETATM    6  C   UNL     1      64.359   7.077   6.305  1.00  0.00     0.036 A 
ENDROOT
BRANCH   1   7
HETATM    7  N   UNL     1      61.690   8.527   3.379  1.00  0.00    -0.377 N 
HETATM    8  C   UNL     1      60.398   7.892   3.084  1.00  0.00     0.149 C 
HETATM    9  C   UNL     1      60.345   7.476   1.607  1.00  0.00     0.187 C 
HETATM   10  O   UNL     1      60.613   8.589   0.736  1.00  0.00    -0.388 OA
HETATM   11  C   UNL     1      61.916   9.132   1.009  1.00  0.00     0.187 C 
HETATM   12  C   UNL     1      62.040   9.624   2.462  1.00  0.00     0.149 C 
ENDBRANCH   1   7
BRANCH   3  13
HETATM   13  O   UNL     1      65.789   8.908   5.930  1.00  0.00    -0.361 OA
HETATM   14  H   UNL     1      65.900   9.284   6.781  1.00  0.00     0.217 HD
ENDBRANCH   3  13
TORSDOF 2
ENDMDL
