MODEL 1
REMARK VINA RESULT:      -5.0      0.000      0.000
REMARK  1 active torsions:
REMARK  status: ('A' for Active; 'I' for Inactive)
REMARK    1  A    between atoms: N_1  and  C_2 
REMARK       I    between atoms: N_1  and  C_3 
ROOT
HETATM    1  C   UNL     1      62.872   8.954   5.058  1.00  0.00     0.040 A 
HETATM    2  C   UNL     1      62.604   8.512   3.753  1.00  0.00    -0.034 A 
HETATM    3  C   UNL     1      62.181   9.452   2.797  1.00  0.00     0.032 A 
HETATM    4  C   UNL     1      62.772  10.317   5.374  1.00  0.00     0.032 A 
HETATM    5  C   UNL     1      62.072  10.803   3.122  1.00  0.00     0.034 A 
HETATM    6  C   UNL     1      62.380  11.242   4.406  1.00  0.00     0.026 A 
HETATM    7 CL   UNL     1      61.549  11.930   1.935  1.00  0.00    -0.084 Cl
HETATM    8  C   UNL     1      62.645   7.064   3.342  1.00  0.00     0.050 C 
ENDROOT
BRANCH   1   9
HETATM    9  N   UNL     1      63.309   8.048   6.035  1.00  0.00    -0.327 N 
HETATM   10  C   UNL     1      64.584   7.600   6.247  1.00  0.00     0.218 C 
HETATM   11  O   UNL     1      64.796   6.769   7.133  1.00  0.00    -0.274 OA
HETATM   12  C   UNL     1      65.713   8.208   5.459  1.00  0.00     0.117 C 
HETATM   13  H   UNL     1      62.617   7.693   6.639  1.00  0.00     0.169 HD
ENDBRANCH   1   9
TORSDOF 1
ENDMDL
MODEL 2
REMARK VINA RESULT:      -4.7      1.384      2.492
REMARK  1 active torsions:
REMARK  status: ('A' for Active; 'I' for Inactive)
REMARK    1  A    between atoms: N_1  and  C_2 
REMARK       I    between atoms: N_1  and  C_3 
ROOT
HETATM    1  C   UNL     1      63.711   8.175   4.697  1.00  0.00     0.040 A 
HETATM    2  C   UNL     1      63.038   9.385   4.465  1.00  0.00    -0.034 A 
HETATM    3  C   UNL     1      62.422   9.584   3.216  1.00  0.00     0.032 A 
HETATM    4  C   UNL     1      63.712   7.170   3.718  1.00  0.00     0.032 A 
HETATM    5  C   UNL     1      62.439   8.585   2.243  1.00  0.00     0.034 A 
HETATM    6  C   UNL     1      63.071   7.372   2.496  1.00  0.00     0.026 A 
HETATM    7 CL   UNL     1      61.682   8.857   0.725  1.00  0.00    -0.084 Cl
HETATM    8  C   UNL     1      63.024  10.528   5.443  1.00  0.00     0.050 C 
ENDROOT
BRANCH   1   9
HETATM    9  N   UNL     1      64.325   7.935   5.935  1.00  0.00    -0.327 N 
HETATM   10  C   UNL     1      65.656   7.726   6.179  1.00  0.00     0.218 C 
HETATM   11  O   UNL     1      66.031   7.491   7.330  1.00  0.00    -0.274 OA
HETATM   12  C   UNL     1      66.640   7.886   5.052  1.00  0.00     0.117 C 
HETATM   13  H   UNL     1      63.730   7.915   6.718  1.00  0.00     0.169 HD
ENDBRANCH   1   9
TORSDOF 1
ENDMDL
MODEL 3
REMARK VINA RESULT:      -4.4      2.241      3.081
REMARK  1 active torsions:
REMARK  status: ('A' for Active; 'I' for Inactive)
REMARK    1  A    between atoms: N_1  and  C_2 
REMARK       I    between atoms: N_1  and  C_3 
ROOT
HETATM    1  C   UNL     1      62.570   8.347   3.384  1.00  0.00     0.040 A 
HETATM    2  C   UNL     1      61.527   7.472   3.725  1.00  0.00    -0.034 A 
HETATM    3  C   UNL     1      60.435   7.352   2.848  1.00  0.00     0.032 A 
HETATM    4  C   UNL     1      62.539   9.038   2.164  1.00  0.00     0.032 A 
HETATM    5  C   UNL     1      60.404   8.053   1.643  1.00  0.00     0.034 A 
HETATM    6  C   UNL     1      61.462   8.886   1.291  1.00  0.00     0.026 A 
HETATM    7 CL   UNL     1      59.055   7.891   0.592  1.00  0.00    -0.084 Cl
HETATM    8  C   UNL     1      61.463   6.726   5.031  1.00  0.00     0.050 C 
ENDROOT
BRANCH   1   9
HETATM    9  N   UNL     1      63.683   8.482   4.227  1.00  0.00    -0.327 N 
HETATM   10  C   UNL     1      63.940   9.492   5.115  1.00  0.00     0.218 C 
HETATM   11  O   UNL     1      64.990   9.480   5.759  1.00  0.00    -0.274 OA
HETATM   12  C   UNL     1      62.887  10.540   5.354  1.00  0.00     0.117 C 
HETATM   13  H   UNL     1      64.357   7.767   4.174  1.00  0.00     0.169 HD
ENDBRANCH   1   9
TORSDOF 1
ENDMDL
MODEL 4
REMARK VINA RESULT:      -4.3      3.724      4.952
REMARK  1 active torsions:
REMARK  status: ('A' for Active; 'I' for Inactive)
REMARK    1  A    between atoms: N_1  and  C_2 
REMARK       I    between atoms: N_1  and  C_3 
ROOT
HETATM    1  C   UNL     1      61.470   8.841   3.837  1.00  0.00     0.040 A 
HETATM    2  C   UNL     1      62.560   8.297   4.535  1.00  0.00    -0.034 A 
HETATM    3  C   UNL     1      62.479   6.965   4.977  1.00  0.00     0.032 A 
HETATM    4  C   UNL     1      60.353   8.044   3.543  1.00  0.00     0.032 A 
HETATM    5  C   UNL     1      61.360   6.183   4.693  1.00  0.00     0.034 A 
HETATM    6  C   UNL     1      60.301   6.715   3.964  1.00  0.00     0.026 A 
HETATM    7 CL   UNL     1      61.286   4.559   5.249  1.00  0.00    -0.084 Cl
HETATM    8  C   UNL     1      63.775   9.093   4.927  1.00  0.00     0.050 C 
ENDROOT
BRANCH   1   9
HETATM    9  N   UNL     1      61.519  10.162   3.368  1.00  0.00    -0.327 N 
HETATM   10  C   UNL     1      61.919  10.594   2.133  1.00  0.00     0.218 C 
HETATM   11  O   UNL     1      61.938  11.802   1.890  1.00  0.00    -0.274 OA
HETATM   12  C   UNL     1      62.231   9.578   1.067  1.00  0.00     0.117 C 
HETATM   13  H   UNL     1      61.233  10.858   4.002  1.00  0.00     0.169 HD
ENDBRANCH   1   9
TORSDOF 1
ENDMDL
MODEL 5
REMARK VINA RESULT:      -4.3      3.599      4.855
REMARK  1 active torsions:
REMARK  status: ('A' for Active; 'I' for Inactive)
REMARK    1  A    between atoms: N_1  and  C_2 
REMARK       I    between atoms: N_1  and  C_3 
ROOT
HETATM    1  C   UNL     1      63.764   8.344   4.988  1.00  0.00     0.040 A 
HETATM    2  C   UNL     1      63.240   7.319   5.791  1.00  0.00    -0.034 A 
HETATM    3  C   UNL     1      64.124   6.569   6.587  1.00  0.00     0.032 A 
HETATM    4  C   UNL     1      65.134   8.642   5.030  1.00  0.00     0.032 A 
HETATM    5  C   UNL     1      65.487   6.862   6.613  1.00  0.00     0.034 A 
HETATM    6  C   UNL     1      65.993   7.907   5.846  1.00  0.00     0.026 A 
HETATM    7 CL   UNL     1      66.546   5.927   7.591  1.00  0.00    -0.084 Cl
HETATM    8  C   UNL     1      61.792   6.909   5.774  1.00  0.00     0.050 C 
ENDROOT
BRANCH   1   9
HETATM    9  N   UNL     1      62.911   9.123   4.192  1.00  0.00    -0.327 N 
HETATM   10  C   UNL     1      62.417  10.369   4.469  1.00  0.00     0.218 C 
HETATM   11  O   UNL     1      61.643  10.905   3.674  1.00  0.00    -0.274 OA
HETATM   12  C   UNL     1      62.908  11.095   5.693  1.00  0.00     0.117 C 
HETATM   13  H   UNL     1      62.636   8.727   3.334  1.00  0.00     0.169 HD
ENDBRANCH   1   9
TORSDOF 1
ENDMDL
MODEL 6
REMARK VINA RESULT:      -4.3      2.206      2.635
REMARK  1 active torsions:
REMARK  status: ('A' for Active; 'I' for Inactive)
REMARK    1  A    between atoms: N_1  and  C_2 
REMARK       I    between atoms: N_1  and  C_3 
ROOT
HETATM    1  C   UNL     1      62.256   7.715   2.824  1.00  0.00     0.040 A 
HETATM    2  C   UNL     1      62.299   8.151   1.491  1.00  0.00    -0.034 A 
HETATM    3  C   UNL     1      62.097   9.517   1.222  1.00  0.00     0.032 A 
HETATM    4  C   UNL     1      62.072   8.640   3.862  1.00  0.00     0.032 A 
HETATM    5  C   UNL     1      61.901  10.428   2.259  1.00  0.00     0.034 A 
HETATM    6  C   UNL     1      61.902   9.995   3.582  1.00  0.00     0.026 A 
HETATM    7 CL   UNL     1      61.652  12.090   1.903  1.00  0.00    -0.084 Cl
HETATM    8  C   UNL     1      62.449   7.221   0.317  1.00  0.00     0.050 C 
ENDROOT
BRANCH   1   9
HETATM    9  N   UNL     1      62.468   6.363   3.132  1.00  0.00    -0.327 N 
HETATM   10  C   UNL     1      63.660   5.741   3.387  1.00  0.00     0.218 C 
HETATM   11  O   UNL     1      63.677   4.529   3.606  1.00  0.00    -0.274 OA
HETATM   12  C   UNL     1      64.910   6.573   3.491  1.00  0.00     0.117 C 
HETATM   13  H   UNL     1      61.664   5.795   3.168  1.00  0.00     0.169 HD
ENDBRANCH   1   9
TORSDOF 1
ENDMDL
MODEL 7
REMARK VINA RESULT:      -4.2      1.411      1.756
REMARK  1 active torsions:
REMARK  status: ('A' for Active; 'I' for Inactive)
REMARK    1  A    between atoms: N_1  and  C_2 
REMARK       I    between atoms: N_1  and  C_3 
ROOT
HETATM    1  C   UNL     1      63.711   7.731   5.253  1.00  0.00     0.040 A 
HETATM    2  C   UNL     1      63.768   7.001   4.056  1.00  0.00    -0.034 A 
HETATM    3  C   UNL     1      63.234   7.577   2.890  1.00  0.00     0.032 A 
HETATM    4  C   UNL     1      63.183   9.030   5.261  1.00  0.00     0.032 A 
HETATM    5  C   UNL     1      62.697   8.864   2.909  1.00  0.00     0.034 A 
HETATM    6  C   UNL     1      62.683   9.599   4.090  1.00  0.00     0.026 A 
HETATM    7 CL   UNL     1      62.047   9.542   1.470  1.00  0.00    -0.084 Cl
HETATM    8  C   UNL     1      64.280   5.588   3.968  1.00  0.00     0.050 C 
ENDROOT
BRANCH   1   9
HETATM    9  N   UNL     1      64.247   7.195   6.434  1.00  0.00    -0.327 N 
HETATM   10  C   UNL     1      65.555   7.205   6.837  1.00  0.00     0.218 C 
HETATM   11  O   UNL     1      65.868   6.654   7.893  1.00  0.00    -0.274 OA
HETATM   12  C   UNL     1      66.563   7.977   6.028  1.00  0.00     0.117 C 
HETATM   13  H   UNL     1      63.607   6.760   7.042  1.00  0.00     0.169 HD
ENDBRANCH   1   9
TORSDOF 1
ENDMDL
MODEL 8
REMARK VINA RESULT:      -4.2      2.049      2.540
REMARK  1 active torsions:
REMARK  status: ('A' for Active; 'I' for Inactive)
REMARK    1  A    between atoms: N_1  and  C_2 
REMARK       I    between atoms: N_1  and  C_3 
ROOT
HETATM    1  C   UNL     1      62.968   8.626   4.723  1.00  0.00     0.040 A 
HETATM    2  C   UNL     1      62.156   7.527   5.044  1.00  0.00    -0.034 A 
HETATM    3  C   UNL     1      61.084   7.209   4.191  1.00  0.00     0.032 A 
HETATM    4  C   UNL     1      62.740   9.349   3.543  1.00  0.00     0.032 A 
HETATM    5  C   UNL     1      60.856   7.941   3.027  1.00  0.00     0.034 A 
HETATM    6  C   UNL     1      61.690   9.003   2.692  1.00  0.00     0.026 A 
HETATM    7 CL   UNL     1      59.537   7.533   2.004  1.00  0.00    -0.084 Cl
HETATM    8  C   UNL     1      62.306   6.726   6.310  1.00  0.00     0.050 C 
ENDROOT
BRANCH   1   9
HETATM    9  N   UNL     1      64.054   8.965   5.543  1.00  0.00    -0.327 N 
HETATM   10  C   UNL     1      65.301   8.400   5.552  1.00  0.00     0.218 C 
HETATM   11  O   UNL     1      66.138   8.793   6.367  1.00  0.00    -0.274 OA
HETATM   12  C   UNL     1      65.650   7.382   4.500  1.00  0.00     0.117 C 
HETATM   13  H   UNL     1      63.902   9.694   6.186  1.00  0.00     0.169 HD
ENDBRANCH   1   9
TORSDOF 1
ENDMDL
MODEL 9
REMARK VINA RESULT:      -4.2      3.523      4.537
REMARK  1 active torsions:
REMARK  status: ('A' for Active; 'I' for Inactive)
REMARK    1  A    between atoms: N_1  and  C_2 
REMARK       I    between atoms: N_1  and  C_3 
ROOT
HETATM    1  C   UNL     1      61.062   8.582   2.899  1.00  0.00     0.040 A 
HETATM    2  C   UNL     1      61.531   8.179   1.639  1.00  0.00    -0.034 A 
HETATM    3  C   UNL     1      61.371   6.834   1.260  1.00  0.00     0.032 A 
HETATM    4  C   UNL     1      60.399   7.667   3.730  1.00  0.00     0.032 A 
HETATM    5  C   UNL     1      60.722   5.927   2.097  1.00  0.00     0.034 A 
HETATM    6  C   UNL     1      60.222   6.344   3.327  1.00  0.00     0.026 A 
HETATM    7 CL   UNL     1      60.545   4.289   1.610  1.00  0.00    -0.084 Cl
HETATM    8  C   UNL     1      62.289   9.085   0.707  1.00  0.00     0.050 C 
ENDROOT
BRANCH   1   9
HETATM    9  N   UNL     1      61.192   9.918   3.306  1.00  0.00    -0.327 N 
HETATM   10  C   UNL     1      62.093  10.436   4.197  1.00  0.00     0.218 C 
HETATM   11  O   UNL     1      62.049  11.635   4.475  1.00  0.00    -0.274 OA
HETATM   12  C   UNL     1      63.178   9.545   4.740  1.00  0.00     0.117 C 
HETATM   13  H   UNL     1      60.560  10.557   2.904  1.00  0.00     0.169 HD
ENDBRANCH   1   9
TORSDOF 1
ENDMDL
