MODEL 1
REMARK VINA RESULT:      -5.0      0.000      0.000
REMARK  0 active torsions:
REMARK  status: ('A' for Active; 'I' for Inactive)
ROOT
HETATM    1  N   UNL     1      62.917  10.964   5.838  1.00  0.00    -0.191 NA
HETATM    2  C   UNL     1      62.612   9.619   3.633  1.00  0.00     0.056 A 
HETATM    3  C   UNL     1      62.788  10.365   4.853  1.00  0.00     0.100 C 
HETATM    4  C   UNL     1      62.958   8.249   3.586  1.00  0.00    -0.041 A 
HETATM    5  C   UNL     1      62.081  10.250   2.486  1.00  0.00    -0.041 A 
HETATM    6  C   UNL     1      62.197   8.143   1.279  1.00  0.00     0.001 A 
HETATM    7  C   UNL     1      62.752   7.529   2.396  1.00  0.00     0.008 A 
HETATM    8  C   UNL     1      61.863   9.493   1.323  1.00  0.00     0.008 A 
HETATM    9  C   UNL     1      61.741  11.717   2.427  1.00  0.00     0.050 C 
HETATM   10  C   UNL     1      63.577   7.509   4.744  1.00  0.00     0.050 C 
ENDROOT
TORSDOF 0
ENDMDL
MODEL 2
REMARK VINA RESULT:      -5.0      0.095      2.766
REMARK  0 active torsions:
REMARK  status: ('A' for Active; 'I' for Inactive)
ROOT
HETATM    1  N   UNL     1      62.952  10.941   5.824  1.00  0.00    -0.191 NA
HETATM    2  C   UNL     1      62.588   9.591   3.631  1.00  0.00     0.056 A 
HETATM    3  C   UNL     1      62.783  10.337   4.847  1.00  0.00     0.100 C 
HETATM    4  C   UNL     1      62.105  10.240   2.471  1.00  0.00    -0.041 A 
HETATM    5  C   UNL     1      62.893   8.212   3.589  1.00  0.00    -0.041 A 
HETATM    6  C   UNL     1      62.281   8.153   1.236  1.00  0.00     0.001 A 
HETATM    7  C   UNL     1      61.948   9.502   1.285  1.00  0.00     0.008 A 
HETATM    8  C   UNL     1      62.750   7.512   2.379  1.00  0.00     0.008 A 
HETATM    9  C   UNL     1      63.354   7.425   4.789  1.00  0.00     0.050 C 
HETATM   10  C   UNL     1      61.707  11.694   2.439  1.00  0.00     0.050 C 
ENDROOT
TORSDOF 0
ENDMDL
MODEL 3
REMARK VINA RESULT:      -4.9      1.303      2.897
REMARK  0 active torsions:
REMARK  status: ('A' for Active; 'I' for Inactive)
ROOT
HETATM    1  N   UNL     1      64.120   7.912   5.929  1.00  0.00    -0.191 NA
HETATM    2  C   UNL     1      62.950   9.114   3.942  1.00  0.00     0.056 A 
HETATM    3  C   UNL     1      63.592   8.447   5.045  1.00  0.00     0.100 C 
HETATM    4  C   UNL     1      62.509  10.450   4.082  1.00  0.00    -0.041 A 
HETATM    5  C   UNL     1      62.772   8.441   2.712  1.00  0.00    -0.041 A 
HETATM    6  C   UNL     1      61.768  10.443   1.766  1.00  0.00     0.001 A 
HETATM    7  C   UNL     1      61.910  11.095   2.986  1.00  0.00     0.008 A 
HETATM    8  C   UNL     1      62.195   9.126   1.629  1.00  0.00     0.008 A 
HETATM    9  C   UNL     1      63.156   7.000   2.490  1.00  0.00     0.050 C 
HETATM   10  C   UNL     1      62.611  11.226   5.370  1.00  0.00     0.050 C 
ENDROOT
TORSDOF 0
ENDMDL
MODEL 4
REMARK VINA RESULT:      -4.9      1.365      2.529
REMARK  0 active torsions:
REMARK  status: ('A' for Active; 'I' for Inactive)
ROOT
HETATM    1  N   UNL     1      63.649   7.492   5.576  1.00  0.00    -0.191 NA
HETATM    2  C   UNL     1      62.751   9.184   3.817  1.00  0.00     0.056 A 
HETATM    3  C   UNL     1      63.255   8.248   4.789  1.00  0.00     0.100 C 
HETATM    4  C   UNL     1      62.515   8.765   2.487  1.00  0.00    -0.041 A 
HETATM    5  C   UNL     1      62.478  10.519   4.192  1.00  0.00    -0.041 A 
HETATM    6  C   UNL     1      61.695  10.988   1.939  1.00  0.00     0.001 A 
HETATM    7  C   UNL     1      61.996   9.684   1.559  1.00  0.00     0.008 A 
HETATM    8  C   UNL     1      61.934  11.402   3.245  1.00  0.00     0.008 A 
HETATM    9  C   UNL     1      62.755  11.069   5.568  1.00  0.00     0.050 C 
HETATM   10  C   UNL     1      62.824   7.377   1.987  1.00  0.00     0.050 C 
ENDROOT
TORSDOF 0
ENDMDL
MODEL 5
REMARK VINA RESULT:      -4.8      2.006      3.090
REMARK  0 active torsions:
REMARK  status: ('A' for Active; 'I' for Inactive)
ROOT
HETATM    1  N   UNL     1      63.621   6.127   2.775  1.00  0.00    -0.191 NA
HETATM    2  C   UNL     1      62.717   8.564   2.880  1.00  0.00     0.056 A 
HETATM    3  C   UNL     1      63.211   7.212   2.824  1.00  0.00     0.100 C 
HETATM    4  C   UNL     1      62.677   9.252   4.115  1.00  0.00    -0.041 A 
HETATM    5  C   UNL     1      62.283   9.210   1.701  1.00  0.00    -0.041 A 
HETATM    6  C   UNL     1      61.826  11.227   2.980  1.00  0.00     0.001 A 
HETATM    7  C   UNL     1      62.219  10.581   4.147  1.00  0.00     0.008 A 
HETATM    8  C   UNL     1      61.858  10.547   1.766  1.00  0.00     0.008 A 
HETATM    9  C   UNL     1      62.233   8.535   0.354  1.00  0.00     0.050 C 
HETATM   10  C   UNL     1      63.071   8.625   5.428  1.00  0.00     0.050 C 
ENDROOT
TORSDOF 0
ENDMDL
MODEL 6
REMARK VINA RESULT:      -4.7      1.534      2.799
REMARK  0 active torsions:
REMARK  status: ('A' for Active; 'I' for Inactive)
ROOT
HETATM    1  N   UNL     1      61.662  12.124   1.999  1.00  0.00    -0.191 NA
HETATM    2  C   UNL     1      62.342   9.816   2.986  1.00  0.00     0.056 A 
HETATM    3  C   UNL     1      61.972  11.096   2.439  1.00  0.00     0.100 C 
HETATM    4  C   UNL     1      62.695   9.705   4.351  1.00  0.00    -0.041 A 
HETATM    5  C   UNL     1      62.340   8.666   2.165  1.00  0.00    -0.041 A 
HETATM    6  C   UNL     1      62.989   7.307   4.074  1.00  0.00     0.001 A 
HETATM    7  C   UNL     1      63.026   8.443   4.875  1.00  0.00     0.008 A 
HETATM    8  C   UNL     1      62.648   7.417   2.729  1.00  0.00     0.008 A 
HETATM    9  C   UNL     1      62.036   8.699   0.689  1.00  0.00     0.050 C 
HETATM   10  C   UNL     1      62.774  10.885   5.286  1.00  0.00     0.050 C 
ENDROOT
TORSDOF 0
ENDMDL
MODEL 7
REMARK VINA RESULT:      -4.7      1.966      3.645
REMARK  0 active torsions:
REMARK  status: ('A' for Active; 'I' for Inactive)
ROOT
HETATM    1  N   UNL     1      62.953   6.216   3.004  1.00  0.00    -0.191 NA
HETATM    2  C   UNL     1      62.457   8.768   3.083  1.00  0.00     0.056 A 
HETATM    3  C   UNL     1      62.738   7.356   3.037  1.00  0.00     0.100 C 
HETATM    4  C   UNL     1      62.091   9.455   1.903  1.00  0.00    -0.041 A 
HETATM    5  C   UNL     1      62.531   9.467   4.309  1.00  0.00    -0.041 A 
HETATM    6  C   UNL     1      61.832  11.505   3.184  1.00  0.00     0.001 A 
HETATM    7  C   UNL     1      61.792  10.827   1.971  1.00  0.00     0.008 A 
HETATM    8  C   UNL     1      62.198  10.831   4.345  1.00  0.00     0.008 A 
HETATM    9  C   UNL     1      62.970   8.830   5.603  1.00  0.00     0.050 C 
HETATM   10  C   UNL     1      62.036   8.802   0.545  1.00  0.00     0.050 C 
ENDROOT
TORSDOF 0
ENDMDL
MODEL 8
REMARK VINA RESULT:      -3.7      3.221      4.967
REMARK  0 active torsions:
REMARK  status: ('A' for Active; 'I' for Inactive)
ROOT
HETATM    1  N   UNL     1      62.739   7.626   6.784  1.00  0.00    -0.191 NA
HETATM    2  C   UNL     1      64.949   6.784   5.702  1.00  0.00     0.056 A 
HETATM    3  C   UNL     1      63.728   7.257   6.301  1.00  0.00     0.100 C 
HETATM    4  C   UNL     1      66.039   6.405   6.520  1.00  0.00    -0.041 A 
HETATM    5  C   UNL     1      65.058   6.684   4.297  1.00  0.00    -0.041 A 
HETATM    6  C   UNL     1      67.305   5.788   4.538  1.00  0.00     0.001 A 
HETATM    7  C   UNL     1      67.213   5.919   5.919  1.00  0.00     0.008 A 
HETATM    8  C   UNL     1      66.236   6.167   3.733  1.00  0.00     0.008 A 
HETATM    9  C   UNL     1      63.972   7.121   3.347  1.00  0.00     0.050 C 
HETATM   10  C   UNL     1      66.030   6.526   8.023  1.00  0.00     0.050 C 
ENDROOT
TORSDOF 0
ENDMDL
MODEL 9
REMARK VINA RESULT:      -3.6     11.132     12.660
REMARK  0 active torsions:
REMARK  status: ('A' for Active; 'I' for Inactive)
ROOT
HETATM    1  N   UNL     1      56.247   3.284  12.181  1.00  0.00    -0.191 NA
HETATM    2  C   UNL     1      58.321   1.742  11.894  1.00  0.00     0.056 A 
HETATM    3  C   UNL     1      57.168   2.590  12.052  1.00  0.00     0.100 C 
HETATM    4  C   UNL     1      58.725   1.329  10.602  1.00  0.00    -0.041 A 
HETATM    5  C   UNL     1      59.061   1.331  13.025  1.00  0.00    -0.041 A 
HETATM    6  C   UNL     1      60.616   0.152  11.576  1.00  0.00     0.001 A 
HETATM    7  C   UNL     1      59.869   0.525  10.464  1.00  0.00     0.008 A 
HETATM    8  C   UNL     1      60.216   0.551  12.847  1.00  0.00     0.008 A 
HETATM    9  C   UNL     1      58.672   1.672  14.441  1.00  0.00     0.050 C 
HETATM   10  C   UNL     1      57.967   1.677   9.346  1.00  0.00     0.050 C 
ENDROOT
TORSDOF 0
ENDMDL
