MODEL 1
REMARK VINA RESULT:      -5.3      0.000      0.000
REMARK  2 active torsions:
REMARK  status: ('A' for Active; 'I' for Inactive)
REMARK    1  A    between atoms: C_1  and  C_2 
REMARK    2  A    between atoms: C_1  and  O_10 
ROOT
HETATM    1  C   UNL     1      62.947   8.851   4.777  1.00  0.00     0.041 A 
HETATM    2  C   UNL     1      62.298   9.489   2.525  1.00  0.00     0.041 A 
HETATM    3  C   UNL     1      62.728   8.517   3.436  1.00  0.00     0.042 A 
HETATM    4  C   UNL     1      62.066  10.812   2.932  1.00  0.00    -0.040 A 
HETATM    5  C   UNL     1      62.741  10.176   5.186  1.00  0.00     0.018 A 
HETATM    6  C   UNL     1      62.301  11.145   4.275  1.00  0.00     0.009 A 
HETATM    7 CL   UNL     1      62.073   9.002   0.882  1.00  0.00    -0.084 Cl
HETATM    8  C   UNL     1      61.582  11.865   1.973  1.00  0.00     0.050 C 
ENDROOT
BRANCH   1   9
HETATM    9  C   UNL     1      63.394   7.842   5.787  1.00  0.00     0.293 C 
HETATM   10  O   UNL     1      62.804   7.635   6.833  1.00  0.00    -0.259 OA
BRANCH   9  11
HETATM   11  O   UNL     1      64.523   7.216   5.370  1.00  0.00    -0.323 OA
HETATM   12  C   UNL     1      65.760   7.890   5.640  1.00  0.00     0.213 C 
ENDBRANCH   9  11
ENDBRANCH   1   9
TORSDOF 2
ENDMDL
MODEL 2
REMARK VINA RESULT:      -4.9      1.645      2.340
REMARK  2 active torsions:
REMARK  status: ('A' for Active; 'I' for Inactive)
REMARK    1  A    between atoms: C_1  and  C_2 
REMARK    2  A    between atoms: C_1  and  O_10 
ROOT
HETATM    1  C   UNL     1      63.759   8.278   4.756  1.00  0.00     0.041 A 
HETATM    2  C   UNL     1      62.501   9.707   3.249  1.00  0.00     0.041 A 
HETATM    3  C   UNL     1      63.156   9.507   4.470  1.00  0.00     0.042 A 
HETATM    4  C   UNL     1      62.442   8.690   2.283  1.00  0.00    -0.040 A 
HETATM    5  C   UNL     1      63.682   7.249   3.807  1.00  0.00     0.018 A 
HETATM    6  C   UNL     1      63.036   7.454   2.581  1.00  0.00     0.009 A 
HETATM    7 CL   UNL     1      61.761  11.246   2.980  1.00  0.00    -0.084 Cl
HETATM    8  C   UNL     1      61.762   8.894   0.956  1.00  0.00     0.050 C 
ENDROOT
BRANCH   1   9
HETATM    9  C   UNL     1      64.480   8.024   6.042  1.00  0.00     0.293 C 
HETATM   10  O   UNL     1      64.059   7.282   6.911  1.00  0.00    -0.259 OA
BRANCH   9  11
HETATM   11  O   UNL     1      65.639   8.730   6.087  1.00  0.00    -0.323 OA
HETATM   12  C   UNL     1      66.794   8.024   6.560  1.00  0.00     0.213 C 
ENDBRANCH   9  11
ENDBRANCH   1   9
TORSDOF 2
ENDMDL
MODEL 3
REMARK VINA RESULT:      -4.4      2.148      2.639
REMARK  2 active torsions:
REMARK  status: ('A' for Active; 'I' for Inactive)
REMARK    1  A    between atoms: C_1  and  C_2 
REMARK    2  A    between atoms: C_1  and  O_10 
ROOT
HETATM    1  C   UNL     1      62.759   8.027   3.117  1.00  0.00     0.041 A 
HETATM    2  C   UNL     1      62.341  10.352   3.679  1.00  0.00     0.041 A 
HETATM    3  C   UNL     1      62.722   9.060   4.059  1.00  0.00     0.042 A 
HETATM    4  C   UNL     1      61.999  10.645   2.350  1.00  0.00    -0.040 A 
HETATM    5  C   UNL     1      62.394   8.306   1.792  1.00  0.00     0.018 A 
HETATM    6  C   UNL     1      62.023   9.602   1.411  1.00  0.00     0.009 A 
HETATM    7 CL   UNL     1      62.299  11.568   4.907  1.00  0.00    -0.084 Cl
HETATM    8  C   UNL     1      61.608  12.032   1.918  1.00  0.00     0.050 C 
ENDROOT
BRANCH   1   9
HETATM    9  C   UNL     1      63.172   6.635   3.476  1.00  0.00     0.293 C 
HETATM   10  O   UNL     1      62.384   5.766   3.804  1.00  0.00    -0.259 OA
BRANCH   9  11
HETATM   11  O   UNL     1      64.519   6.497   3.382  1.00  0.00    -0.323 OA
HETATM   12  C   UNL     1      65.215   6.215   4.604  1.00  0.00     0.213 C 
ENDBRANCH   9  11
ENDBRANCH   1   9
TORSDOF 2
ENDMDL
MODEL 4
REMARK VINA RESULT:      -4.4      1.735      2.147
REMARK  2 active torsions:
REMARK  status: ('A' for Active; 'I' for Inactive)
REMARK    1  A    between atoms: C_1  and  C_2 
REMARK    2  A    between atoms: C_1  and  O_10 
ROOT
HETATM    1  C   UNL     1      64.016   8.316   4.393  1.00  0.00     0.041 A 
HETATM    2  C   UNL     1      62.996   7.530   2.333  1.00  0.00     0.041 A 
HETATM    3  C   UNL     1      63.940   7.379   3.356  1.00  0.00     0.042 A 
HETATM    4  C   UNL     1      62.101   8.610   2.327  1.00  0.00    -0.040 A 
HETATM    5  C   UNL     1      63.142   9.411   4.380  1.00  0.00     0.018 A 
HETATM    6  C   UNL     1      62.191   9.555   3.361  1.00  0.00     0.009 A 
HETATM    7 CL   UNL     1      62.982   6.343   1.077  1.00  0.00    -0.084 Cl
HETATM    8  C   UNL     1      61.065   8.777   1.249  1.00  0.00     0.050 C 
ENDROOT
BRANCH   1   9
HETATM    9  C   UNL     1      65.000   8.188   5.512  1.00  0.00     0.293 C 
HETATM   10  O   UNL     1      65.524   9.144   6.056  1.00  0.00    -0.259 OA
BRANCH   9  11
HETATM   11  O   UNL     1      65.212   6.882   5.816  1.00  0.00    -0.323 OA
HETATM   12  C   UNL     1      65.258   6.554   7.211  1.00  0.00     0.213 C 
ENDBRANCH   9  11
ENDBRANCH   1   9
TORSDOF 2
ENDMDL
MODEL 5
REMARK VINA RESULT:      -4.2      2.138      2.653
REMARK  2 active torsions:
REMARK  status: ('A' for Active; 'I' for Inactive)
REMARK    1  A    between atoms: C_1  and  C_2 
REMARK    2  A    between atoms: C_1  and  O_10 
ROOT
HETATM    1  C   UNL     1      62.300   9.162   4.063  1.00  0.00     0.041 A 
HETATM    2  C   UNL     1      60.915   7.576   2.853  1.00  0.00     0.041 A 
HETATM    3  C   UNL     1      61.619   7.941   4.007  1.00  0.00     0.042 A 
HETATM    4  C   UNL     1      60.865   8.424   1.736  1.00  0.00    -0.040 A 
HETATM    5  C   UNL     1      62.275  10.003   2.942  1.00  0.00     0.018 A 
HETATM    6  C   UNL     1      61.562   9.641   1.792  1.00  0.00     0.009 A 
HETATM    7 CL   UNL     1      60.119   6.041   2.853  1.00  0.00    -0.084 Cl
HETATM    8  C   UNL     1      60.095   8.059   0.496  1.00  0.00     0.050 C 
ENDROOT
BRANCH   1   9
HETATM    9  C   UNL     1      63.054   9.598   5.279  1.00  0.00     0.293 C 
HETATM   10  O   UNL     1      62.986  10.724   5.741  1.00  0.00    -0.259 OA
BRANCH   9  11
HETATM   11  O   UNL     1      63.801   8.577   5.771  1.00  0.00    -0.323 OA
HETATM   12  C   UNL     1      65.104   8.410   5.196  1.00  0.00     0.213 C 
ENDBRANCH   9  11
ENDBRANCH   1   9
TORSDOF 2
ENDMDL
MODEL 6
REMARK VINA RESULT:      -4.1      2.552      4.373
REMARK  2 active torsions:
REMARK  status: ('A' for Active; 'I' for Inactive)
REMARK    1  A    between atoms: C_1  and  C_2 
REMARK    2  A    between atoms: C_1  and  O_10 
ROOT
HETATM    1  C   UNL     1      62.947   8.580   3.989  1.00  0.00     0.041 A 
HETATM    2  C   UNL     1      64.614   6.858   3.596  1.00  0.00     0.041 A 
HETATM    3  C   UNL     1      63.364   7.425   3.318  1.00  0.00     0.042 A 
HETATM    4  C   UNL     1      65.478   7.435   4.538  1.00  0.00    -0.040 A 
HETATM    5  C   UNL     1      63.795   9.148   4.950  1.00  0.00     0.018 A 
HETATM    6  C   UNL     1      65.049   8.585   5.218  1.00  0.00     0.009 A 
HETATM    7 CL   UNL     1      65.047   5.418   2.742  1.00  0.00    -0.084 Cl
HETATM    8  C   UNL     1      66.834   6.853   4.833  1.00  0.00     0.050 C 
ENDROOT
BRANCH   1   9
HETATM    9  C   UNL     1      61.626   9.227   3.715  1.00  0.00     0.293 C 
HETATM   10  O   UNL     1      60.629   8.604   3.396  1.00  0.00    -0.259 OA
BRANCH   9  11
HETATM   11  O   UNL     1      61.711  10.572   3.872  1.00  0.00    -0.323 OA
HETATM   12  C   UNL     1      61.786  11.349   2.669  1.00  0.00     0.213 C 
ENDBRANCH   9  11
ENDBRANCH   1   9
TORSDOF 2
ENDMDL
MODEL 7
REMARK VINA RESULT:      -4.1      2.975      4.951
REMARK  2 active torsions:
REMARK  status: ('A' for Active; 'I' for Inactive)
REMARK    1  A    between atoms: C_1  and  C_2 
REMARK    2  A    between atoms: C_1  and  O_10 
ROOT
HETATM    1  C   UNL     1      63.390   8.372   4.025  1.00  0.00     0.041 A 
HETATM    2  C   UNL     1      65.477   7.952   5.195  1.00  0.00     0.041 A 
HETATM    3  C   UNL     1      64.307   8.703   5.029  1.00  0.00     0.042 A 
HETATM    4  C   UNL     1      65.753   6.850   4.372  1.00  0.00    -0.040 A 
HETATM    5  C   UNL     1      63.672   7.287   3.183  1.00  0.00     0.018 A 
HETATM    6  C   UNL     1      64.838   6.531   3.358  1.00  0.00     0.009 A 
HETATM    7 CL   UNL     1      66.570   8.439   6.443  1.00  0.00    -0.084 Cl
HETATM    8  C   UNL     1      66.994   6.017   4.551  1.00  0.00     0.050 C 
ENDROOT
BRANCH   1   9
HETATM    9  C   UNL     1      62.122   9.138   3.819  1.00  0.00     0.293 C 
HETATM   10  O   UNL     1      61.056   8.611   3.556  1.00  0.00    -0.259 OA
BRANCH   9  11
HETATM   11  O   UNL     1      62.339  10.470   3.966  1.00  0.00    -0.323 OA
HETATM   12  C   UNL     1      61.836  11.314   2.921  1.00  0.00     0.213 C 
ENDBRANCH   9  11
ENDBRANCH   1   9
TORSDOF 2
ENDMDL
MODEL 8
REMARK VINA RESULT:      -4.0      2.027      3.358
REMARK  2 active torsions:
REMARK  status: ('A' for Active; 'I' for Inactive)
REMARK    1  A    between atoms: C_1  and  C_2 
REMARK    2  A    between atoms: C_1  and  O_10 
ROOT
HETATM    1  C   UNL     1      63.688   8.084   3.985  1.00  0.00     0.041 A 
HETATM    2  C   UNL     1      62.495   8.045   1.870  1.00  0.00     0.041 A 
HETATM    3  C   UNL     1      62.790   8.671   3.087  1.00  0.00     0.042 A 
HETATM    4  C   UNL     1      63.096   6.827   1.517  1.00  0.00    -0.040 A 
HETATM    5  C   UNL     1      64.274   6.855   3.649  1.00  0.00     0.018 A 
HETATM    6  C   UNL     1      63.986   6.236   2.427  1.00  0.00     0.009 A 
HETATM    7 CL   UNL     1      61.357   8.822   0.826  1.00  0.00    -0.084 Cl
HETATM    8  C   UNL     1      62.809   6.151   0.203  1.00  0.00     0.050 C 
ENDROOT
BRANCH   1   9
HETATM    9  C   UNL     1      64.043   8.723   5.290  1.00  0.00     0.293 C 
HETATM   10  O   UNL     1      65.143   9.187   5.531  1.00  0.00    -0.259 OA
BRANCH   9  11
HETATM   11  O   UNL     1      62.981   8.704   6.135  1.00  0.00    -0.323 OA
HETATM   12  C   UNL     1      62.472   7.411   6.486  1.00  0.00     0.213 C 
ENDBRANCH   9  11
ENDBRANCH   1   9
TORSDOF 2
ENDMDL
MODEL 9
REMARK VINA RESULT:      -4.0      2.902      3.820
REMARK  2 active torsions:
REMARK  status: ('A' for Active; 'I' for Inactive)
REMARK    1  A    between atoms: C_1  and  C_2 
REMARK    2  A    between atoms: C_1  and  O_10 
ROOT
HETATM    1  C   UNL     1      62.053   7.881   2.132  1.00  0.00     0.041 A 
HETATM    2  C   UNL     1      61.993  10.267   2.580  1.00  0.00     0.041 A 
HETATM    3  C   UNL     1      61.854   9.194   1.692  1.00  0.00     0.042 A 
HETATM    4  C   UNL     1      62.323  10.055   3.927  1.00  0.00    -0.040 A 
HETATM    5  C   UNL     1      62.407   7.663   3.471  1.00  0.00     0.018 A 
HETATM    6  C   UNL     1      62.536   8.737   4.361  1.00  0.00     0.009 A 
HETATM    7 CL   UNL     1      61.753  11.860   1.953  1.00  0.00    -0.084 Cl
HETATM    8  C   UNL     1      62.454  11.194   4.901  1.00  0.00     0.050 C 
ENDROOT
BRANCH   1   9
HETATM    9  C   UNL     1      61.903   6.703   1.222  1.00  0.00     0.293 C 
HETATM   10  O   UNL     1      61.233   6.724   0.205  1.00  0.00    -0.259 OA
BRANCH   9  11
HETATM   11  O   UNL     1      62.606   5.642   1.693  1.00  0.00    -0.323 OA
HETATM   12  C   UNL     1      63.706   5.200   0.886  1.00  0.00     0.213 C 
ENDBRANCH   9  11
ENDBRANCH   1   9
TORSDOF 2
ENDMDL
