MODEL 1
REMARK VINA RESULT:      -5.3      0.000      0.000
REMARK  1 active torsions:
REMARK  status: ('A' for Active; 'I' for Inactive)
REMARK    1  A    between atoms: C_1  and  C_2 
ROOT
HETATM    1  C   UNL     1      62.394   9.968   3.581  1.00  0.00     0.046 A 
HETATM    2  C   UNL     1      62.029  10.403   2.289  1.00  0.00    -0.043 A 
HETATM    3  C   UNL     1      62.667   8.605   3.804  1.00  0.00     0.020 A 
HETATM    4  C   UNL     1      61.974   9.447   1.250  1.00  0.00     0.031 A 
HETATM    5  C   UNL     1      62.257   8.101   1.488  1.00  0.00     0.034 A 
HETATM    6  C   UNL     1      62.601   7.676   2.764  1.00  0.00     0.025 A 
HETATM    7 CL   UNL     1      62.162   6.966   0.200  1.00  0.00    -0.084 Cl
HETATM    8  C   UNL     1      61.662  11.811   1.913  1.00  0.00     0.049 C 
ENDROOT
BRANCH   1   9
HETATM    9  C   UNL     1      62.496  10.831   4.787  1.00  0.00     0.209 C 
HETATM   10  O   UNL     1      62.049  11.958   4.882  1.00  0.00    -0.644 OA
HETATM   11  O   UNL     1      63.047  10.218   5.844  1.00  0.00    -0.644 OA
ENDBRANCH   1   9
TORSDOF 1
ENDMDL
MODEL 2
REMARK VINA RESULT:      -5.2      2.506      3.577
REMARK  1 active torsions:
REMARK  status: ('A' for Active; 'I' for Inactive)
REMARK    1  A    between atoms: C_1  and  C_2 
ROOT
HETATM    1  C   UNL     1      62.989   8.751   4.782  1.00  0.00     0.046 A 
HETATM    2  C   UNL     1      62.733   8.439   3.430  1.00  0.00    -0.043 A 
HETATM    3  C   UNL     1      62.806  10.069   5.238  1.00  0.00     0.020 A 
HETATM    4  C   UNL     1      62.273   9.469   2.580  1.00  0.00     0.031 A 
HETATM    5  C   UNL     1      62.089  10.770   3.052  1.00  0.00     0.034 A 
HETATM    6  C   UNL     1      62.356  11.074   4.380  1.00  0.00     0.025 A 
HETATM    7 CL   UNL     1      61.543  12.000   1.982  1.00  0.00    -0.084 Cl
HETATM    8  C   UNL     1      62.931   7.093   2.791  1.00  0.00     0.049 C 
ENDROOT
BRANCH   1   9
HETATM    9  C   UNL     1      63.481   7.796   5.811  1.00  0.00     0.209 C 
HETATM   10  O   UNL     1      64.547   7.213   5.773  1.00  0.00    -0.644 OA
HETATM   11  O   UNL     1      62.680   7.697   6.881  1.00  0.00    -0.644 OA
ENDBRANCH   1   9
TORSDOF 1
ENDMDL
MODEL 3
REMARK VINA RESULT:      -5.1      2.107      2.698
REMARK  1 active torsions:
REMARK  status: ('A' for Active; 'I' for Inactive)
REMARK    1  A    between atoms: C_1  and  C_2 
ROOT
HETATM    1  C   UNL     1      63.775   8.613   4.535  1.00  0.00     0.046 A 
HETATM    2  C   UNL     1      62.933   9.729   4.350  1.00  0.00    -0.043 A 
HETATM    3  C   UNL     1      63.769   7.572   3.588  1.00  0.00     0.020 A 
HETATM    4  C   UNL     1      62.122   9.773   3.194  1.00  0.00     0.031 A 
HETATM    5  C   UNL     1      62.135   8.736   2.261  1.00  0.00     0.034 A 
HETATM    6  C   UNL     1      62.956   7.633   2.455  1.00  0.00     0.025 A 
HETATM    7 CL   UNL     1      61.122   8.819   0.874  1.00  0.00    -0.084 Cl
HETATM    8  C   UNL     1      62.796  10.888   5.299  1.00  0.00     0.049 C 
ENDROOT
BRANCH   1   9
HETATM    9  C   UNL     1      64.686   8.400   5.692  1.00  0.00     0.209 C 
HETATM   10  O   UNL     1      65.710   9.022   5.902  1.00  0.00    -0.644 OA
HETATM   11  O   UNL     1      64.228   7.508   6.581  1.00  0.00    -0.644 OA
ENDBRANCH   1   9
TORSDOF 1
ENDMDL
MODEL 4
REMARK VINA RESULT:      -4.9      1.870      2.548
REMARK  1 active torsions:
REMARK  status: ('A' for Active; 'I' for Inactive)
REMARK    1  A    between atoms: C_1  and  C_2 
ROOT
HETATM    1  C   UNL     1      62.361   9.917   3.411  1.00  0.00     0.046 A 
HETATM    2  C   UNL     1      62.351   8.926   2.406  1.00  0.00    -0.043 A 
HETATM    3  C   UNL     1      62.691   9.563   4.732  1.00  0.00     0.020 A 
HETATM    4  C   UNL     1      62.703   7.606   2.763  1.00  0.00     0.031 A 
HETATM    5  C   UNL     1      63.037   7.275   4.077  1.00  0.00     0.034 A 
HETATM    6  C   UNL     1      63.031   8.250   5.065  1.00  0.00     0.025 A 
HETATM    7 CL   UNL     1      63.444   5.652   4.475  1.00  0.00    -0.084 Cl
HETATM    8  C   UNL     1      61.971   9.144   0.968  1.00  0.00     0.049 C 
ENDROOT
BRANCH   1   9
HETATM    9  C   UNL     1      62.013  11.350   3.216  1.00  0.00     0.209 C 
HETATM   10  O   UNL     1      61.837  11.888   2.140  1.00  0.00    -0.644 OA
HETATM   11  O   UNL     1      61.795  12.012   4.361  1.00  0.00    -0.644 OA
ENDBRANCH   1   9
TORSDOF 1
ENDMDL
MODEL 5
REMARK VINA RESULT:      -4.8      2.106      3.280
REMARK  1 active torsions:
REMARK  status: ('A' for Active; 'I' for Inactive)
REMARK    1  A    between atoms: C_1  and  C_2 
ROOT
HETATM    1  C   UNL     1      63.688   8.368   4.440  1.00  0.00     0.046 A 
HETATM    2  C   UNL     1      63.724   7.413   3.402  1.00  0.00    -0.043 A 
HETATM    3  C   UNL     1      62.780   9.440   4.368  1.00  0.00     0.020 A 
HETATM    4  C   UNL     1      62.818   7.556   2.328  1.00  0.00     0.031 A 
HETATM    5  C   UNL     1      61.917   8.621   2.277  1.00  0.00     0.034 A 
HETATM    6  C   UNL     1      61.896   9.566   3.294  1.00  0.00     0.025 A 
HETATM    7 CL   UNL     1      60.841   8.770   0.944  1.00  0.00    -0.084 Cl
HETATM    8  C   UNL     1      64.671   6.248   3.318  1.00  0.00     0.049 C 
ENDROOT
BRANCH   1   9
HETATM    9  C   UNL     1      64.570   8.375   5.638  1.00  0.00     0.209 C 
HETATM   10  O   UNL     1      65.492   9.145   5.825  1.00  0.00    -0.644 OA
HETATM   11  O   UNL     1      64.196   7.506   6.587  1.00  0.00    -0.644 OA
ENDBRANCH   1   9
TORSDOF 1
ENDMDL
MODEL 6
REMARK VINA RESULT:      -4.6      1.334      2.562
REMARK  1 active torsions:
REMARK  status: ('A' for Active; 'I' for Inactive)
REMARK    1  A    between atoms: C_1  and  C_2 
ROOT
HETATM    1  C   UNL     1      62.516   9.594   4.229  1.00  0.00     0.046 A 
HETATM    2  C   UNL     1      62.046   8.265   4.173  1.00  0.00    -0.043 A 
HETATM    3  C   UNL     1      62.298  10.455   3.138  1.00  0.00     0.020 A 
HETATM    4  C   UNL     1      61.343   7.851   3.020  1.00  0.00     0.031 A 
HETATM    5  C   UNL     1      61.128   8.721   1.951  1.00  0.00     0.034 A 
HETATM    6  C   UNL     1      61.605  10.024   2.005  1.00  0.00     0.025 A 
HETATM    7 CL   UNL     1      60.282   8.174   0.557  1.00  0.00    -0.084 Cl
HETATM    8  C   UNL     1      62.248   7.221   5.236  1.00  0.00     0.049 C 
ENDROOT
BRANCH   1   9
HETATM    9  C   UNL     1      63.276  10.195   5.357  1.00  0.00     0.209 C 
HETATM   10  O   UNL     1      62.841  11.025   6.133  1.00  0.00    -0.644 OA
HETATM   11  O   UNL     1      64.493   9.661   5.533  1.00  0.00    -0.644 OA
ENDBRANCH   1   9
TORSDOF 1
ENDMDL
MODEL 7
REMARK VINA RESULT:      -4.1      2.995      4.013
REMARK  1 active torsions:
REMARK  status: ('A' for Active; 'I' for Inactive)
REMARK    1  A    between atoms: C_1  and  C_2 
ROOT
HETATM    1  C   UNL     1      63.259   8.413   3.828  1.00  0.00     0.046 A 
HETATM    2  C   UNL     1      63.669   7.265   3.118  1.00  0.00    -0.043 A 
HETATM    3  C   UNL     1      64.053   8.897   4.884  1.00  0.00     0.020 A 
HETATM    4  C   UNL     1      64.888   6.651   3.483  1.00  0.00     0.031 A 
HETATM    5  C   UNL     1      65.666   7.149   4.528  1.00  0.00     0.034 A 
HETATM    6  C   UNL     1      65.251   8.272   5.233  1.00  0.00     0.025 A 
HETATM    7 CL   UNL     1      67.135   6.363   4.953  1.00  0.00    -0.084 Cl
HETATM    8  C   UNL     1      62.903   6.606   2.004  1.00  0.00     0.049 C 
ENDROOT
BRANCH   1   9
HETATM    9  C   UNL     1      62.009   9.180   3.583  1.00  0.00     0.209 C 
HETATM   10  O   UNL     1      60.882   8.732   3.678  1.00  0.00    -0.644 OA
HETATM   11  O   UNL     1      62.213  10.483   3.344  1.00  0.00    -0.644 OA
ENDBRANCH   1   9
TORSDOF 1
ENDMDL
MODEL 8
REMARK VINA RESULT:      -4.0      6.514      7.226
REMARK  1 active torsions:
REMARK  status: ('A' for Active; 'I' for Inactive)
REMARK    1  A    between atoms: C_1  and  C_2 
ROOT
HETATM    1  C   UNL     1      57.915   6.224   7.479  1.00  0.00     0.046 A 
HETATM    2  C   UNL     1      58.694   6.060   6.314  1.00  0.00    -0.043 A 
HETATM    3  C   UNL     1      56.536   6.478   7.363  1.00  0.00     0.020 A 
HETATM    4  C   UNL     1      58.048   6.133   5.060  1.00  0.00     0.031 A 
HETATM    5  C   UNL     1      56.677   6.377   4.964  1.00  0.00     0.034 A 
HETATM    6  C   UNL     1      55.918   6.552   6.113  1.00  0.00     0.025 A 
HETATM    7 CL   UNL     1      55.931   6.475   3.418  1.00  0.00    -0.084 Cl
HETATM    8  C   UNL     1      60.180   5.834   6.282  1.00  0.00     0.049 C 
ENDROOT
BRANCH   1   9
HETATM    9  C   UNL     1      58.427   6.183   8.875  1.00  0.00     0.209 C 
HETATM   10  O   UNL     1      58.848   5.192   9.439  1.00  0.00    -0.644 OA
HETATM   11  O   UNL     1      58.495   7.388   9.459  1.00  0.00    -0.644 OA
ENDBRANCH   1   9
TORSDOF 1
ENDMDL
MODEL 9
REMARK VINA RESULT:      -3.9      5.724      6.489
REMARK  1 active torsions:
REMARK  status: ('A' for Active; 'I' for Inactive)
REMARK    1  A    between atoms: C_1  and  C_2 
ROOT
HETATM    1  C   UNL     1      59.011   6.014   7.465  1.00  0.00     0.046 A 
HETATM    2  C   UNL     1      58.068   6.145   6.424  1.00  0.00    -0.043 A 
HETATM    3  C   UNL     1      60.377   5.886   7.154  1.00  0.00     0.020 A 
HETATM    4  C   UNL     1      58.538   6.168   5.092  1.00  0.00     0.031 A 
HETATM    5  C   UNL     1      59.898   6.049   4.802  1.00  0.00     0.034 A 
HETATM    6  C   UNL     1      60.821   5.906   5.830  1.00  0.00     0.025 A 
HETATM    7 CL   UNL     1      60.430   6.065   3.167  1.00  0.00    -0.084 Cl
HETATM    8  C   UNL     1      56.578   6.239   6.601  1.00  0.00     0.049 C 
ENDROOT
BRANCH   1   9
HETATM    9  C   UNL     1      58.693   5.965   8.917  1.00  0.00     0.209 C 
HETATM   10  O   UNL     1      58.762   4.972   9.617  1.00  0.00    -0.644 OA
HETATM   11  O   UNL     1      58.416   7.164   9.449  1.00  0.00    -0.644 OA
ENDBRANCH   1   9
TORSDOF 1
ENDMDL
