MODEL 1
REMARK VINA RESULT:      -4.8      0.000      0.000
REMARK  3 active torsions:
REMARK  status: ('A' for Active; 'I' for Inactive)
REMARK    1  A    between atoms: C_1  and  C_2 
REMARK    2  A    between atoms: C_8  and  C_10 
REMARK    3  A    between atoms: C_10  and  C_11 
ROOT
HETATM    1  C   UNL     1      65.108   8.022   5.092  1.00  0.00     0.009 A 
HETATM    2  C   UNL     1      64.748   7.243   3.986  1.00  0.00     0.015 A 
HETATM    3  C   UNL     1      64.346   9.152   5.412  1.00  0.00     0.015 A 
HETATM    4  C   UNL     1      63.213   9.474   4.664  1.00  0.00     0.008 A 
HETATM    5  C   UNL     1      63.612   7.570   3.239  1.00  0.00     0.008 A 
HETATM    6  C   UNL     1      62.824   8.677   3.582  1.00  0.00    -0.058 A 
ENDROOT
BRANCH   1   7
HETATM    7  C   UNL     1      66.287   7.705   5.945  1.00  0.00     0.155 C 
HETATM    8  O   UNL     1      66.155   7.669   7.168  1.00  0.00    -0.293 OA
HETATM    9  C   UNL     1      67.609   7.365   5.304  1.00  0.00     0.096 C 
ENDBRANCH   1   7
BRANCH   6  10
HETATM   10  C   UNL     1      61.590   9.025   2.786  1.00  0.00     0.038 C 
BRANCH  10  11
HETATM   11  C   UNL     1      61.834   9.958   1.595  1.00  0.00     0.000 C 
HETATM   12  C   UNL     1      61.806  11.436   1.962  1.00  0.00     0.005 C 
ENDBRANCH  10  11
ENDBRANCH   6  10
TORSDOF 3
ENDMDL
MODEL 2
REMARK VINA RESULT:      -4.7      2.290      4.865
REMARK  3 active torsions:
REMARK  status: ('A' for Active; 'I' for Inactive)
REMARK    1  A    between atoms: C_1  and  C_2 
REMARK    2  A    between atoms: C_8  and  C_10 
REMARK    3  A    between atoms: C_10  and  C_11 
ROOT
HETATM    1  C   UNL     1      62.557   9.831   3.625  1.00  0.00     0.009 A 
HETATM    2  C   UNL     1      62.463   8.842   2.639  1.00  0.00     0.015 A 
HETATM    3  C   UNL     1      63.194   9.534   4.836  1.00  0.00     0.015 A 
HETATM    4  C   UNL     1      63.767   8.278   5.042  1.00  0.00     0.008 A 
HETATM    5  C   UNL     1      63.038   7.585   2.850  1.00  0.00     0.008 A 
HETATM    6  C   UNL     1      63.711   7.298   4.045  1.00  0.00    -0.058 A 
ENDROOT
BRANCH   1   7
HETATM    7  C   UNL     1      61.994  11.198   3.445  1.00  0.00     0.155 C 
HETATM    8  O   UNL     1      61.805  11.908   4.431  1.00  0.00    -0.293 OA
HETATM    9  C   UNL     1      61.727  11.723   2.056  1.00  0.00     0.096 C 
ENDBRANCH   1   7
BRANCH   6  10
HETATM   10  C   UNL     1      64.345   5.946   4.272  1.00  0.00     0.038 C 
BRANCH  10  11
HETATM   11  C   UNL     1      65.610   5.683   3.448  1.00  0.00     0.000 C 
HETATM   12  C   UNL     1      66.844   6.400   3.980  1.00  0.00     0.005 C 
ENDBRANCH  10  11
ENDBRANCH   6  10
TORSDOF 3
ENDMDL
MODEL 3
REMARK VINA RESULT:      -4.7      1.460      2.386
REMARK  3 active torsions:
REMARK  status: ('A' for Active; 'I' for Inactive)
REMARK    1  A    between atoms: C_1  and  C_2 
REMARK    2  A    between atoms: C_8  and  C_10 
REMARK    3  A    between atoms: C_10  and  C_11 
ROOT
HETATM    1  C   UNL     1      64.091   8.385   4.833  1.00  0.00     0.009 A 
HETATM    2  C   UNL     1      63.325   9.556   4.884  1.00  0.00     0.015 A 
HETATM    3  C   UNL     1      63.948   7.519   3.742  1.00  0.00     0.015 A 
HETATM    4  C   UNL     1      63.085   7.841   2.694  1.00  0.00     0.008 A 
HETATM    5  C   UNL     1      62.461   9.874   3.831  1.00  0.00     0.008 A 
HETATM    6  C   UNL     1      62.346   9.030   2.719  1.00  0.00    -0.058 A 
ENDROOT
BRANCH   1   7
HETATM    7  C   UNL     1      65.052   8.010   5.906  1.00  0.00     0.155 C 
HETATM    8  O   UNL     1      65.932   8.805   6.233  1.00  0.00    -0.293 OA
HETATM    9  C   UNL     1      64.897   6.695   6.628  1.00  0.00     0.096 C 
ENDBRANCH   1   7
BRANCH   6  10
HETATM   10  C   UNL     1      61.425   9.376   1.575  1.00  0.00     0.038 C 
BRANCH  10  11
HETATM   11  C   UNL     1      61.109   8.213   0.628  1.00  0.00     0.000 C 
HETATM   12  C   UNL     1      59.618   7.969   0.436  1.00  0.00     0.005 C 
ENDBRANCH  10  11
ENDBRANCH   6  10
TORSDOF 3
ENDMDL
MODEL 4
REMARK VINA RESULT:      -4.4      2.078      5.192
REMARK  3 active torsions:
REMARK  status: ('A' for Active; 'I' for Inactive)
REMARK    1  A    between atoms: C_1  and  C_2 
REMARK    2  A    between atoms: C_8  and  C_10 
REMARK    3  A    between atoms: C_10  and  C_11 
ROOT
HETATM    1  C   UNL     1      63.021   9.058   3.762  1.00  0.00     0.009 A 
HETATM    2  C   UNL     1      63.708   9.218   4.971  1.00  0.00     0.015 A 
HETATM    3  C   UNL     1      63.251   7.914   2.990  1.00  0.00     0.015 A 
HETATM    4  C   UNL     1      64.122   6.921   3.440  1.00  0.00     0.008 A 
HETATM    5  C   UNL     1      64.580   8.221   5.419  1.00  0.00     0.008 A 
HETATM    6  C   UNL     1      64.781   7.056   4.667  1.00  0.00    -0.058 A 
ENDROOT
BRANCH   1   7
HETATM    7  C   UNL     1      62.055  10.069   3.250  1.00  0.00     0.155 C 
HETATM    8  O   UNL     1      61.515  10.842   4.041  1.00  0.00    -0.293 OA
HETATM    9  C   UNL     1      61.801  10.184   1.768  1.00  0.00     0.096 C 
ENDBRANCH   1   7
BRANCH   6  10
HETATM   10  C   UNL     1      65.712   5.971   5.153  1.00  0.00     0.038 C 
BRANCH  10  11
HETATM   11  C   UNL     1      67.163   6.107   4.679  1.00  0.00     0.000 C 
HETATM   12  C   UNL     1      67.956   7.161   5.440  1.00  0.00     0.005 C 
ENDBRANCH  10  11
ENDBRANCH   6  10
TORSDOF 3
ENDMDL
MODEL 5
REMARK VINA RESULT:      -4.4      2.309      5.221
REMARK  3 active torsions:
REMARK  status: ('A' for Active; 'I' for Inactive)
REMARK    1  A    between atoms: C_1  and  C_2 
REMARK    2  A    between atoms: C_8  and  C_10 
REMARK    3  A    between atoms: C_10  and  C_11 
ROOT
HETATM    1  C   UNL     1      62.799   9.649   3.845  1.00  0.00     0.009 A 
HETATM    2  C   UNL     1      63.526   9.444   5.023  1.00  0.00     0.015 A 
HETATM    3  C   UNL     1      62.731   8.623   2.894  1.00  0.00     0.015 A 
HETATM    4  C   UNL     1      63.344   7.393   3.137  1.00  0.00     0.008 A 
HETATM    5  C   UNL     1      64.139   8.210   5.263  1.00  0.00     0.008 A 
HETATM    6  C   UNL     1      64.039   7.169   4.331  1.00  0.00    -0.058 A 
ENDROOT
BRANCH   1   7
HETATM    7  C   UNL     1      62.096  10.928   3.550  1.00  0.00     0.155 C 
HETATM    8  O   UNL     1      61.836  11.701   4.471  1.00  0.00    -0.293 OA
HETATM    9  C   UNL     1      61.772  11.296   2.123  1.00  0.00     0.096 C 
ENDBRANCH   1   7
BRANCH   6  10
HETATM   10  C   UNL     1      64.689   5.831   4.591  1.00  0.00     0.038 C 
BRANCH  10  11
HETATM   11  C   UNL     1      65.687   5.816   5.754  1.00  0.00     0.000 C 
HETATM   12  C   UNL     1      65.188   5.057   6.976  1.00  0.00     0.005 C 
ENDBRANCH  10  11
ENDBRANCH   6  10
TORSDOF 3
ENDMDL
MODEL 6
REMARK VINA RESULT:      -4.2      2.038      5.039
REMARK  3 active torsions:
REMARK  status: ('A' for Active; 'I' for Inactive)
REMARK    1  A    between atoms: C_1  and  C_2 
REMARK    2  A    between atoms: C_8  and  C_10 
REMARK    3  A    between atoms: C_10  and  C_11 
ROOT
HETATM    1  C   UNL     1      63.717   8.925   4.550  1.00  0.00     0.009 A 
HETATM    2  C   UNL     1      64.933   8.616   5.172  1.00  0.00     0.015 A 
HETATM    3  C   UNL     1      63.246   8.102   3.520  1.00  0.00     0.015 A 
HETATM    4  C   UNL     1      63.958   6.961   3.146  1.00  0.00     0.008 A 
HETATM    5  C   UNL     1      65.643   7.472   4.795  1.00  0.00     0.008 A 
HETATM    6  C   UNL     1      65.154   6.625   3.792  1.00  0.00    -0.058 A 
ENDROOT
BRANCH   1   7
HETATM    7  C   UNL     1      62.900  10.109   4.932  1.00  0.00     0.155 C 
HETATM    8  O   UNL     1      63.034  10.599   6.052  1.00  0.00    -0.293 OA
HETATM    9  C   UNL     1      61.971  10.738   3.924  1.00  0.00     0.096 C 
ENDBRANCH   1   7
BRANCH   6  10
HETATM   10  C   UNL     1      65.910   5.382   3.390  1.00  0.00     0.038 C 
BRANCH  10  11
HETATM   11  C   UNL     1      67.208   5.139   4.170  1.00  0.00     0.000 C 
HETATM   12  C   UNL     1      67.086   4.057   5.235  1.00  0.00     0.005 C 
ENDBRANCH  10  11
ENDBRANCH   6  10
TORSDOF 3
ENDMDL
MODEL 7
REMARK VINA RESULT:      -4.2      1.653      2.262
REMARK  3 active torsions:
REMARK  status: ('A' for Active; 'I' for Inactive)
REMARK    1  A    between atoms: C_1  and  C_2 
REMARK    2  A    between atoms: C_8  and  C_10 
REMARK    3  A    between atoms: C_10  and  C_11 
ROOT
HETATM    1  C   UNL     1      65.556   6.978   6.698  1.00  0.00     0.009 A 
HETATM    2  C   UNL     1      65.919   8.068   5.897  1.00  0.00     0.015 A 
HETATM    3  C   UNL     1      64.246   6.488   6.634  1.00  0.00     0.015 A 
HETATM    4  C   UNL     1      63.324   7.049   5.751  1.00  0.00     0.008 A 
HETATM    5  C   UNL     1      64.992   8.628   5.013  1.00  0.00     0.008 A 
HETATM    6  C   UNL     1      63.692   8.113   4.918  1.00  0.00    -0.058 A 
ENDROOT
BRANCH   1   7
HETATM    7  C   UNL     1      66.509   6.319   7.632  1.00  0.00     0.155 C 
HETATM    8  O   UNL     1      66.224   6.238   8.827  1.00  0.00    -0.293 OA
HETATM    9  C   UNL     1      67.776   5.698   7.100  1.00  0.00     0.096 C 
ENDBRANCH   1   7
BRANCH   6  10
HETATM   10  C   UNL     1      62.692   8.706   3.956  1.00  0.00     0.038 C 
BRANCH  10  11
HETATM   11  C   UNL     1      62.270  10.145   4.272  1.00  0.00     0.000 C 
HETATM   12  C   UNL     1      61.927  10.965   3.035  1.00  0.00     0.005 C 
ENDBRANCH  10  11
ENDBRANCH   6  10
TORSDOF 3
ENDMDL
MODEL 8
REMARK VINA RESULT:      -4.0      2.572      4.113
REMARK  3 active torsions:
REMARK  status: ('A' for Active; 'I' for Inactive)
REMARK    1  A    between atoms: C_1  and  C_2 
REMARK    2  A    between atoms: C_8  and  C_10 
REMARK    3  A    between atoms: C_10  and  C_11 
ROOT
HETATM    1  C   UNL     1      62.574   9.703   3.667  1.00  0.00     0.009 A 
HETATM    2  C   UNL     1      63.064   8.393   3.728  1.00  0.00     0.015 A 
HETATM    3  C   UNL     1      62.047  10.182   2.461  1.00  0.00     0.015 A 
HETATM    4  C   UNL     1      61.970   9.349   1.344  1.00  0.00     0.008 A 
HETATM    5  C   UNL     1      62.985   7.562   2.606  1.00  0.00     0.008 A 
HETATM    6  C   UNL     1      62.422   8.026   1.410  1.00  0.00    -0.058 A 
ENDROOT
BRANCH   1   7
HETATM    7  C   UNL     1      62.600  10.622   4.837  1.00  0.00     0.155 C 
HETATM    8  O   UNL     1      63.102  10.241   5.894  1.00  0.00    -0.293 OA
HETATM    9  C   UNL     1      62.075  12.030   4.699  1.00  0.00     0.096 C 
ENDBRANCH   1   7
BRANCH   6  10
HETATM   10  C   UNL     1      62.323   7.129   0.200  1.00  0.00     0.038 C 
BRANCH  10  11
HETATM   11  C   UNL     1      61.407   5.912   0.375  1.00  0.00     0.000 C 
HETATM   12  C   UNL     1      59.999   6.270   0.833  1.00  0.00     0.005 C 
ENDBRANCH  10  11
ENDBRANCH   6  10
TORSDOF 3
ENDMDL
MODEL 9
REMARK VINA RESULT:      -3.9      2.576      5.730
REMARK  3 active torsions:
REMARK  status: ('A' for Active; 'I' for Inactive)
REMARK    1  A    between atoms: C_1  and  C_2 
REMARK    2  A    between atoms: C_8  and  C_10 
REMARK    3  A    between atoms: C_10  and  C_11 
ROOT
HETATM    1  C   UNL     1      63.068   8.060   4.922  1.00  0.00     0.009 A 
HETATM    2  C   UNL     1      63.036   7.002   5.839  1.00  0.00     0.015 A 
HETATM    3  C   UNL     1      64.259   8.774   4.741  1.00  0.00     0.015 A 
HETATM    4  C   UNL     1      65.414   8.408   5.433  1.00  0.00     0.008 A 
HETATM    5  C   UNL     1      64.196   6.639   6.530  1.00  0.00     0.008 A 
HETATM    6  C   UNL     1      65.399   7.326   6.320  1.00  0.00    -0.058 A 
ENDROOT
BRANCH   1   7
HETATM    7  C   UNL     1      61.875   8.471   4.133  1.00  0.00     0.155 C 
HETATM    8  O   UNL     1      60.883   7.742   4.114  1.00  0.00    -0.293 OA
HETATM    9  C   UNL     1      61.865   9.801   3.422  1.00  0.00     0.096 C 
ENDBRANCH   1   7
BRANCH   6  10
HETATM   10  C   UNL     1      66.657   6.929   7.055  1.00  0.00     0.038 C 
BRANCH  10  11
HETATM   11  C   UNL     1      66.453   6.564   8.529  1.00  0.00     0.000 C 
HETATM   12  C   UNL     1      67.734   6.137   9.234  1.00  0.00     0.005 C 
ENDBRANCH  10  11
ENDBRANCH   6  10
TORSDOF 3
ENDMDL
