MODEL 1
REMARK VINA RESULT:      -4.2      0.000      0.000
REMARK  0 active torsions:
REMARK  status: ('A' for Active; 'I' for Inactive)
ROOT
HETATM    1  N   UNL     1      61.576  11.323   2.261  1.00  0.00    -0.266 N 
ATOM      2  HN  UNL     1      61.182  11.841   1.476  1.00  0.00     0.194 HD
HETATM    3  O   UNL     1      61.902  11.821   3.510  1.00  0.00    -0.243 OA
HETATM    4  C   UNL     1      62.413   9.653   3.555  1.00  0.00     0.060 A 
HETATM    5  C   UNL     1      62.402  10.818   4.281  1.00  0.00     0.074 A 
HETATM    6  C   UNL     1      61.886  10.022   2.296  1.00  0.00     0.031 A 
HETATM    7  C   UNL     1      62.800  11.175   5.653  1.00  0.00     0.079 C 
HETATM    8  C   UNL     1      61.664   9.164   1.110  1.00  0.00     0.070 C 
ENDROOT
TORSDOF 0
ENDMDL
MODEL 2
REMARK VINA RESULT:      -3.7      1.817      2.846
REMARK  0 active torsions:
REMARK  status: ('A' for Active; 'I' for Inactive)
ROOT
HETATM    1  N   UNL     1      62.633  10.861   5.275  1.00  0.00    -0.266 N 
ATOM      2  HN  UNL     1      62.853  11.099   6.241  1.00  0.00     0.194 HD
HETATM    3  O   UNL     1      62.205  11.720   4.280  1.00  0.00    -0.243 OA
HETATM    4  C   UNL     1      62.318   9.700   3.347  1.00  0.00     0.060 A 
HETATM    5  C   UNL     1      62.018  11.022   3.127  1.00  0.00     0.074 A 
HETATM    6  C   UNL     1      62.698   9.650   4.707  1.00  0.00     0.031 A 
HETATM    7  C   UNL     1      61.562  11.790   1.956  1.00  0.00     0.079 C 
HETATM    8  C   UNL     1      63.128   8.473   5.494  1.00  0.00     0.070 C 
ENDROOT
TORSDOF 0
ENDMDL
MODEL 3
REMARK VINA RESULT:      -3.5      2.099      2.431
REMARK  0 active torsions:
REMARK  status: ('A' for Active; 'I' for Inactive)
ROOT
HETATM    1  N   UNL     1      62.522  11.347   4.886  1.00  0.00    -0.266 N 
ATOM      2  HN  UNL     1      62.466  12.334   5.132  1.00  0.00     0.194 HD
HETATM    3  O   UNL     1      62.931  10.305   5.699  1.00  0.00    -0.243 OA
HETATM    4  C   UNL     1      62.419   9.391   3.733  1.00  0.00     0.060 A 
HETATM    5  C   UNL     1      62.867   9.137   5.006  1.00  0.00     0.074 A 
HETATM    6  C   UNL     1      62.217  10.790   3.707  1.00  0.00     0.031 A 
HETATM    7  C   UNL     1      63.268   7.918   5.727  1.00  0.00     0.079 C 
HETATM    8  C   UNL     1      61.734  11.624   2.584  1.00  0.00     0.070 C 
ENDROOT
TORSDOF 0
ENDMDL
MODEL 4
REMARK VINA RESULT:      -3.5      0.992      3.113
REMARK  0 active torsions:
REMARK  status: ('A' for Active; 'I' for Inactive)
ROOT
HETATM    1  N   UNL     1      61.755  11.488   2.866  1.00  0.00    -0.266 N 
ATOM      2  HN  UNL     1      61.518  12.466   3.030  1.00  0.00     0.194 HD
HETATM    3  O   UNL     1      61.617  10.783   1.684  1.00  0.00    -0.243 OA
HETATM    4  C   UNL     1      62.465   9.350   3.164  1.00  0.00     0.060 A 
HETATM    5  C   UNL     1      62.043   9.504   1.867  1.00  0.00     0.074 A 
HETATM    6  C   UNL     1      62.265  10.621   3.749  1.00  0.00     0.031 A 
HETATM    7  C   UNL     1      61.967   8.610   0.700  1.00  0.00     0.079 C 
HETATM    8  C   UNL     1      62.548  11.043   5.139  1.00  0.00     0.070 C 
ENDROOT
TORSDOF 0
ENDMDL
MODEL 5
REMARK VINA RESULT:      -3.5      3.160      3.536
REMARK  0 active torsions:
REMARK  status: ('A' for Active; 'I' for Inactive)
ROOT
HETATM    1  N   UNL     1      63.549  10.290   5.523  1.00  0.00    -0.266 N 
ATOM      2  HN  UNL     1      63.166  11.141   5.933  1.00  0.00     0.194 HD
HETATM    3  O   UNL     1      64.721   9.647   5.876  1.00  0.00    -0.243 OA
HETATM    4  C   UNL     1      63.830   8.446   4.224  1.00  0.00     0.060 A 
HETATM    5  C   UNL     1      64.886   8.544   5.098  1.00  0.00     0.074 A 
HETATM    6  C   UNL     1      63.020   9.564   4.531  1.00  0.00     0.031 A 
HETATM    7  C   UNL     1      66.091   7.735   5.344  1.00  0.00     0.079 C 
HETATM    8  C   UNL     1      61.741   9.966   3.903  1.00  0.00     0.070 C 
ENDROOT
TORSDOF 0
ENDMDL
MODEL 6
REMARK VINA RESULT:      -3.5      5.770      6.628
REMARK  0 active torsions:
REMARK  status: ('A' for Active; 'I' for Inactive)
ROOT
HETATM    1  N   UNL     1      66.941   8.467   7.299  1.00  0.00    -0.266 N 
ATOM      2  HN  UNL     1      67.645   9.001   7.808  1.00  0.00     0.194 HD
HETATM    3  O   UNL     1      66.151   8.910   6.254  1.00  0.00    -0.243 OA
HETATM    4  C   UNL     1      65.576   6.787   6.607  1.00  0.00     0.060 A 
HETATM    5  C   UNL     1      65.336   7.902   5.842  1.00  0.00     0.074 A 
HETATM    6  C   UNL     1      66.590   7.192   7.505  1.00  0.00     0.031 A 
HETATM    7  C   UNL     1      64.424   8.204   4.727  1.00  0.00     0.079 C 
HETATM    8  C   UNL     1      67.244   6.394   8.566  1.00  0.00     0.070 C 
ENDROOT
TORSDOF 0
ENDMDL
MODEL 7
REMARK VINA RESULT:      -3.3      4.924      5.542
REMARK  0 active torsions:
REMARK  status: ('A' for Active; 'I' for Inactive)
ROOT
HETATM    1  N   UNL     1      66.310   8.598   6.545  1.00  0.00    -0.266 N 
ATOM      2  HN  UNL     1      66.863   8.923   7.337  1.00  0.00     0.194 HD
HETATM    3  O   UNL     1      65.163   9.176   6.034  1.00  0.00    -0.243 OA
HETATM    4  C   UNL     1      65.565   7.383   4.775  1.00  0.00     0.060 A 
HETATM    5  C   UNL     1      64.720   8.447   4.975  1.00  0.00     0.074 A 
HETATM    6  C   UNL     1      66.545   7.522   5.784  1.00  0.00     0.031 A 
HETATM    7  C   UNL     1      63.500   8.927   4.305  1.00  0.00     0.079 C 
HETATM    8  C   UNL     1      67.714   6.654   6.050  1.00  0.00     0.070 C 
ENDROOT
TORSDOF 0
ENDMDL
MODEL 8
REMARK VINA RESULT:      -3.2      3.467      3.980
REMARK  0 active torsions:
REMARK  status: ('A' for Active; 'I' for Inactive)
ROOT
HETATM    1  N   UNL     1      64.995   8.556   5.888  1.00  0.00    -0.266 N 
ATOM      2  HN  UNL     1      65.917   8.309   6.246  1.00  0.00     0.194 HD
HETATM    3  O   UNL     1      64.495   9.828   5.676  1.00  0.00    -0.243 OA
HETATM    4  C   UNL     1      62.876   8.419   5.077  1.00  0.00     0.060 A 
HETATM    5  C   UNL     1      63.227   9.742   5.190  1.00  0.00     0.074 A 
HETATM    6  C   UNL     1      64.017   7.716   5.526  1.00  0.00     0.031 A 
HETATM    7  C   UNL     1      62.542  11.013   4.904  1.00  0.00     0.079 C 
HETATM    8  C   UNL     1      64.211   6.252   5.621  1.00  0.00     0.070 C 
ENDROOT
TORSDOF 0
ENDMDL
MODEL 9
REMARK VINA RESULT:      -3.2      4.849      5.192
REMARK  0 active torsions:
REMARK  status: ('A' for Active; 'I' for Inactive)
ROOT
HETATM    1  N   UNL     1      63.530   7.712   6.361  1.00  0.00    -0.266 N 
ATOM      2  HN  UNL     1      62.525   7.739   6.531  1.00  0.00     0.194 HD
HETATM    3  O   UNL     1      64.505   7.203   7.199  1.00  0.00    -0.243 OA
HETATM    4  C   UNL     1      65.572   7.956   5.394  1.00  0.00     0.060 A 
HETATM    5  C   UNL     1      65.726   7.350   6.616  1.00  0.00     0.074 A 
HETATM    6  C   UNL     1      64.178   8.162   5.280  1.00  0.00     0.031 A 
HETATM    7  C   UNL     1      66.885   6.854   7.377  1.00  0.00     0.079 C 
HETATM    8  C   UNL     1      63.434   8.781   4.160  1.00  0.00     0.070 C 
ENDROOT
TORSDOF 0
ENDMDL
