MODEL 1
REMARK VINA RESULT:      -5.3      0.000      0.000
REMARK  1 active torsions:
REMARK  status: ('A' for Active; 'I' for Inactive)
REMARK    1  A    between atoms: C_1  and  C_2 
ROOT
HETATM    1  C   UNL     1      62.917   8.814   4.770  1.00  0.00     0.042 A 
HETATM    2  C   UNL     1      62.263   9.453   2.532  1.00  0.00     0.041 A 
HETATM    3  C   UNL     1      62.693   8.477   3.432  1.00  0.00     0.042 A 
HETATM    4  C   UNL     1      62.065  10.780   2.952  1.00  0.00    -0.040 A 
HETATM    5  C   UNL     1      62.728  10.130   5.202  1.00  0.00     0.019 A 
HETATM    6  C   UNL     1      62.302  11.105   4.297  1.00  0.00     0.009 A 
HETATM    7 CL   UNL     1      61.996   8.979   0.892  1.00  0.00    -0.084 Cl
HETATM    8  C   UNL     1      61.626  11.856   1.996  1.00  0.00     0.050 C 
ENDROOT
BRANCH   1   9
HETATM    9  C   UNL     1      63.414   7.758   5.684  1.00  0.00     0.209 C 
HETATM   10  O   UNL     1      64.260   6.948   5.359  1.00  0.00    -0.644 OA
HETATM   11  O   UNL     1      62.814   7.766   6.893  1.00  0.00    -0.644 OA
ENDBRANCH   1   9
TORSDOF 1
ENDMDL
MODEL 2
REMARK VINA RESULT:      -5.1      2.412      3.399
REMARK  1 active torsions:
REMARK  status: ('A' for Active; 'I' for Inactive)
REMARK    1  A    between atoms: C_1  and  C_2 
ROOT
HETATM    1  C   UNL     1      62.371  10.044   3.565  1.00  0.00     0.042 A 
HETATM    2  C   UNL     1      62.974   7.899   2.624  1.00  0.00     0.041 A 
HETATM    3  C   UNL     1      62.958   8.782   3.704  1.00  0.00     0.042 A 
HETATM    4  C   UNL     1      62.416   8.267   1.388  1.00  0.00    -0.040 A 
HETATM    5  C   UNL     1      61.816  10.425   2.339  1.00  0.00     0.019 A 
HETATM    6  C   UNL     1      61.838   9.540   1.260  1.00  0.00     0.009 A 
HETATM    7 CL   UNL     1      63.707   6.352   2.857  1.00  0.00    -0.084 Cl
HETATM    8  C   UNL     1      62.442   7.343   0.201  1.00  0.00     0.050 C 
ENDROOT
BRANCH   1   9
HETATM    9  C   UNL     1      62.413  10.968   4.722  1.00  0.00     0.209 C 
HETATM   10  O   UNL     1      61.971  12.100   4.680  1.00  0.00    -0.644 OA
HETATM   11  O   UNL     1      63.018  10.444   5.809  1.00  0.00    -0.644 OA
ENDBRANCH   1   9
TORSDOF 1
ENDMDL
MODEL 3
REMARK VINA RESULT:      -4.8      2.854      4.032
REMARK  1 active torsions:
REMARK  status: ('A' for Active; 'I' for Inactive)
REMARK    1  A    between atoms: C_1  and  C_2 
ROOT
HETATM    1  C   UNL     1      63.077   9.652   4.566  1.00  0.00     0.042 A 
HETATM    2  C   UNL     1      64.496   7.702   4.385  1.00  0.00     0.041 A 
HETATM    3  C   UNL     1      64.158   8.894   5.028  1.00  0.00     0.042 A 
HETATM    4  C   UNL     1      63.770   7.258   3.267  1.00  0.00    -0.040 A 
HETATM    5  C   UNL     1      62.348   9.225   3.452  1.00  0.00     0.019 A 
HETATM    6  C   UNL     1      62.693   8.034   2.810  1.00  0.00     0.009 A 
HETATM    7 CL   UNL     1      65.836   6.804   5.003  1.00  0.00    -0.084 Cl
HETATM    8  C   UNL     1      64.130   5.990   2.541  1.00  0.00     0.050 C 
ENDROOT
BRANCH   1   9
HETATM    9  C   UNL     1      62.777  10.932   5.249  1.00  0.00     0.209 C 
HETATM   10  O   UNL     1      63.175  11.193   6.369  1.00  0.00    -0.644 OA
HETATM   11  O   UNL     1      61.996  11.760   4.523  1.00  0.00    -0.644 OA
ENDBRANCH   1   9
TORSDOF 1
ENDMDL
MODEL 4
REMARK VINA RESULT:      -4.8      1.694      2.549
REMARK  1 active torsions:
REMARK  status: ('A' for Active; 'I' for Inactive)
REMARK    1  A    between atoms: C_1  and  C_2 
ROOT
HETATM    1  C   UNL     1      63.882   8.221   4.718  1.00  0.00     0.042 A 
HETATM    2  C   UNL     1      62.545   9.693   3.342  1.00  0.00     0.041 A 
HETATM    3  C   UNL     1      63.245   9.451   4.524  1.00  0.00     0.042 A 
HETATM    4  C   UNL     1      62.459   8.707   2.343  1.00  0.00    -0.040 A 
HETATM    5  C   UNL     1      63.802   7.229   3.736  1.00  0.00     0.019 A 
HETATM    6  C   UNL     1      63.097   7.474   2.555  1.00  0.00     0.009 A 
HETATM    7 CL   UNL     1      61.784  11.232   3.154  1.00  0.00    -0.084 Cl
HETATM    8  C   UNL     1      61.691   8.934   1.070  1.00  0.00     0.050 C 
ENDROOT
BRANCH   1   9
HETATM    9  C   UNL     1      64.578   7.988   6.005  1.00  0.00     0.209 C 
HETATM   10  O   UNL     1      64.127   7.275   6.880  1.00  0.00    -0.644 OA
HETATM   11  O   UNL     1      65.739   8.668   6.121  1.00  0.00    -0.644 OA
ENDBRANCH   1   9
TORSDOF 1
ENDMDL
MODEL 5
REMARK VINA RESULT:      -4.5      1.573      1.902
REMARK  1 active torsions:
REMARK  status: ('A' for Active; 'I' for Inactive)
REMARK    1  A    between atoms: C_1  and  C_2 
ROOT
HETATM    1  C   UNL     1      63.853   8.433   4.833  1.00  0.00     0.042 A 
HETATM    2  C   UNL     1      63.118   7.716   2.644  1.00  0.00     0.041 A 
HETATM    3  C   UNL     1      63.884   7.502   3.791  1.00  0.00     0.042 A 
HETATM    4  C   UNL     1      62.321   8.867   2.517  1.00  0.00    -0.040 A 
HETATM    5  C   UNL     1      63.069   9.585   4.720  1.00  0.00     0.019 A 
HETATM    6  C   UNL     1      62.307   9.797   3.569  1.00  0.00     0.009 A 
HETATM    7 CL   UNL     1      63.191   6.529   1.391  1.00  0.00    -0.084 Cl
HETATM    8  C   UNL     1      61.505   9.133   1.282  1.00  0.00     0.050 C 
ENDROOT
BRANCH   1   9
HETATM    9  C   UNL     1      64.714   8.191   6.015  1.00  0.00     0.209 C 
HETATM   10  O   UNL     1      65.814   8.693   6.144  1.00  0.00    -0.644 OA
HETATM   11  O   UNL     1      64.174   7.336   6.910  1.00  0.00    -0.644 OA
ENDBRANCH   1   9
TORSDOF 1
ENDMDL
MODEL 6
REMARK VINA RESULT:      -4.1      2.759      4.071
REMARK  1 active torsions:
REMARK  status: ('A' for Active; 'I' for Inactive)
REMARK    1  A    between atoms: C_1  and  C_2 
ROOT
HETATM    1  C   UNL     1      62.705   9.523   3.543  1.00  0.00     0.042 A 
HETATM    2  C   UNL     1      63.245   7.346   2.638  1.00  0.00     0.041 A 
HETATM    3  C   UNL     1      62.642   8.596   2.497  1.00  0.00     0.042 A 
HETATM    4  C   UNL     1      63.907   6.998   3.829  1.00  0.00    -0.040 A 
HETATM    5  C   UNL     1      63.356   9.190   4.735  1.00  0.00     0.019 A 
HETATM    6  C   UNL     1      63.955   7.936   4.873  1.00  0.00     0.009 A 
HETATM    7 CL   UNL     1      63.141   6.245   1.312  1.00  0.00    -0.084 Cl
HETATM    8  C   UNL     1      64.544   5.648   4.016  1.00  0.00     0.050 C 
ENDROOT
BRANCH   1   9
HETATM    9  C   UNL     1      62.015  10.823   3.369  1.00  0.00     0.209 C 
HETATM   10  O   UNL     1      61.742  11.555   4.301  1.00  0.00    -0.644 OA
HETATM   11  O   UNL     1      61.693  11.095   2.087  1.00  0.00    -0.644 OA
ENDBRANCH   1   9
TORSDOF 1
ENDMDL
MODEL 7
REMARK VINA RESULT:      -4.0      4.425      6.396
REMARK  1 active torsions:
REMARK  status: ('A' for Active; 'I' for Inactive)
REMARK    1  A    between atoms: C_1  and  C_2 
ROOT
HETATM    1  C   UNL     1      65.451   7.388   5.324  1.00  0.00     0.042 A 
HETATM    2  C   UNL     1      66.321   5.916   7.034  1.00  0.00     0.041 A 
HETATM    3  C   UNL     1      65.497   6.978   6.660  1.00  0.00     0.042 A 
HETATM    4  C   UNL     1      67.120   5.257   6.084  1.00  0.00    -0.040 A 
HETATM    5  C   UNL     1      66.243   6.745   4.367  1.00  0.00     0.019 A 
HETATM    6  C   UNL     1      67.069   5.685   4.747  1.00  0.00     0.009 A 
HETATM    7 CL   UNL     1      66.333   5.450   8.698  1.00  0.00    -0.084 Cl
HETATM    8  C   UNL     1      68.035   4.126   6.465  1.00  0.00     0.050 C 
ENDROOT
BRANCH   1   9
HETATM    9  C   UNL     1      64.596   8.547   4.976  1.00  0.00     0.209 C 
HETATM   10  O   UNL     1      63.795   8.526   4.061  1.00  0.00    -0.644 OA
HETATM   11  O   UNL     1      64.819   9.632   5.748  1.00  0.00    -0.644 OA
ENDBRANCH   1   9
TORSDOF 1
ENDMDL
MODEL 8
REMARK VINA RESULT:      -4.0      2.715      4.111
REMARK  1 active torsions:
REMARK  status: ('A' for Active; 'I' for Inactive)
REMARK    1  A    between atoms: C_1  and  C_2 
ROOT
HETATM    1  C   UNL     1      63.726   8.815   4.486  1.00  0.00     0.042 A 
HETATM    2  C   UNL     1      64.240   6.840   3.188  1.00  0.00     0.041 A 
HETATM    3  C   UNL     1      63.382   7.900   3.486  1.00  0.00     0.042 A 
HETATM    4  C   UNL     1      65.444   6.671   3.892  1.00  0.00    -0.040 A 
HETATM    5  C   UNL     1      64.919   8.657   5.199  1.00  0.00     0.019 A 
HETATM    6  C   UNL     1      65.772   7.593   4.900  1.00  0.00     0.009 A 
HETATM    7 CL   UNL     1      63.767   5.746   1.938  1.00  0.00    -0.084 Cl
HETATM    8  C   UNL     1      66.374   5.524   3.608  1.00  0.00     0.050 C 
ENDROOT
BRANCH   1   9
HETATM    9  C   UNL     1      62.768   9.901   4.802  1.00  0.00     0.209 C 
HETATM   10  O   UNL     1      61.857  10.214   4.060  1.00  0.00    -0.644 OA
HETATM   11  O   UNL     1      63.027  10.524   5.971  1.00  0.00    -0.644 OA
ENDBRANCH   1   9
TORSDOF 1
ENDMDL
MODEL 9
REMARK VINA RESULT:      -4.0      3.249      4.084
REMARK  1 active torsions:
REMARK  status: ('A' for Active; 'I' for Inactive)
REMARK    1  A    between atoms: C_1  and  C_2 
ROOT
HETATM    1  C   UNL     1      61.603   8.586   1.842  1.00  0.00     0.042 A 
HETATM    2  C   UNL     1      62.426   8.673   4.115  1.00  0.00     0.041 A 
HETATM    3  C   UNL     1      62.031   7.930   3.001  1.00  0.00     0.042 A 
HETATM    4  C   UNL     1      62.386  10.078   4.092  1.00  0.00    -0.040 A 
HETATM    5  C   UNL     1      61.554   9.983   1.806  1.00  0.00     0.019 A 
HETATM    6  C   UNL     1      61.946  10.722   2.924  1.00  0.00     0.009 A 
HETATM    7 CL   UNL     1      62.951   7.810   5.516  1.00  0.00    -0.084 Cl
HETATM    8  C   UNL     1      62.783  10.901   5.287  1.00  0.00     0.050 C 
ENDROOT
BRANCH   1   9
HETATM    9  C   UNL     1      61.151   7.761   0.697  1.00  0.00     0.209 C 
HETATM   10  O   UNL     1      61.820   6.860   0.228  1.00  0.00    -0.644 OA
HETATM   11  O   UNL     1      59.948   8.130   0.209  1.00  0.00    -0.644 OA
ENDBRANCH   1   9
TORSDOF 1
ENDMDL
