MODEL 1
REMARK VINA RESULT:      -5.3      0.000      0.000
REMARK  2 active torsions:
REMARK  status: ('A' for Active; 'I' for Inactive)
REMARK    1  A    between atoms: C_1  and  C_3 
REMARK    2  A    between atoms: C_1  and  O_7 
ROOT
HETATM    1  N   UNL     1      61.946  12.085   4.324  1.00  0.00    -0.191 NA
HETATM    2  C   UNL     1      62.945   8.721   3.670  1.00  0.00     0.060 A 
HETATM    3  C   UNL     1      62.083  11.050   3.809  1.00  0.00     0.100 C 
HETATM    4  C   UNL     1      62.255   9.810   3.119  1.00  0.00     0.060 A 
HETATM    5  C   UNL     1      63.166   7.585   2.867  1.00  0.00     0.019 A 
HETATM    6  C   UNL     1      61.760   9.732   1.800  1.00  0.00     0.024 A 
HETATM    7  C   UNL     1      62.689   7.525   1.553  1.00  0.00     0.001 A 
HETATM    8  C   UNL     1      61.975   8.594   1.023  1.00  0.00     0.002 A 
ENDROOT
BRANCH   2   9
HETATM    9  C   UNL     1      63.530   8.688   5.045  1.00  0.00     0.294 C 
HETATM   10  O   UNL     1      62.867   8.395   6.028  1.00  0.00    -0.259 OA
BRANCH   9  11
HETATM   11  O   UNL     1      64.824   9.081   5.056  1.00  0.00    -0.322 OA
HETATM   12  C   UNL     1      65.776   8.078   5.444  1.00  0.00     0.213 C 
ENDBRANCH   9  11
ENDBRANCH   2   9
TORSDOF 2
ENDMDL
MODEL 2
REMARK VINA RESULT:      -5.1      1.927      2.791
REMARK  2 active torsions:
REMARK  status: ('A' for Active; 'I' for Inactive)
REMARK    1  A    between atoms: C_1  and  C_3 
REMARK    2  A    between atoms: C_1  and  O_7 
ROOT
HETATM    1  N   UNL     1      63.359   6.295   2.615  1.00  0.00    -0.191 NA
HETATM    2  C   UNL     1      62.895   9.487   4.145  1.00  0.00     0.060 A 
HETATM    3  C   UNL     1      63.110   7.420   2.777  1.00  0.00     0.100 C 
HETATM    4  C   UNL     1      62.755   8.796   2.933  1.00  0.00     0.060 A 
HETATM    5  C   UNL     1      62.406  10.804   4.232  1.00  0.00     0.019 A 
HETATM    6  C   UNL     1      62.177   9.443   1.821  1.00  0.00     0.024 A 
HETATM    7  C   UNL     1      61.815  11.430   3.129  1.00  0.00     0.001 A 
HETATM    8  C   UNL     1      61.711  10.754   1.920  1.00  0.00     0.002 A 
ENDROOT
BRANCH   2   9
HETATM    9  C   UNL     1      63.475   8.907   5.395  1.00  0.00     0.294 C 
HETATM   10  O   UNL     1      62.797   8.290   6.202  1.00  0.00    -0.259 OA
BRANCH   9  11
HETATM   11  O   UNL     1      64.785   9.210   5.535  1.00  0.00    -0.322 OA
HETATM   12  C   UNL     1      65.686   8.091   5.547  1.00  0.00     0.213 C 
ENDBRANCH   9  11
ENDBRANCH   2   9
TORSDOF 2
ENDMDL
MODEL 3
REMARK VINA RESULT:      -5.0      1.620      2.170
REMARK  2 active torsions:
REMARK  status: ('A' for Active; 'I' for Inactive)
REMARK    1  A    between atoms: C_1  and  C_3 
REMARK    2  A    between atoms: C_1  and  O_7 
ROOT
HETATM    1  N   UNL     1      63.757  11.772   6.704  1.00  0.00    -0.191 NA
HETATM    2  C   UNL     1      63.765   8.866   4.631  1.00  0.00     0.060 A 
HETATM    3  C   UNL     1      63.471  10.992   5.890  1.00  0.00     0.100 C 
HETATM    4  C   UNL     1      63.102  10.082   4.850  1.00  0.00     0.060 A 
HETATM    5  C   UNL     1      63.407   8.095   3.508  1.00  0.00     0.019 A 
HETATM    6  C   UNL     1      62.067  10.484   3.980  1.00  0.00     0.024 A 
HETATM    7  C   UNL     1      62.393   8.512   2.638  1.00  0.00     0.001 A 
HETATM    8  C   UNL     1      61.715   9.701   2.881  1.00  0.00     0.002 A 
ENDROOT
BRANCH   2   9
HETATM    9  C   UNL     1      64.885   8.341   5.470  1.00  0.00     0.294 C 
HETATM   10  O   UNL     1      66.057   8.503   5.167  1.00  0.00    -0.259 OA
BRANCH   9  11
HETATM   11  O   UNL     1      64.435   7.632   6.530  1.00  0.00    -0.322 OA
HETATM   12  C   UNL     1      65.017   6.329   6.700  1.00  0.00     0.213 C 
ENDBRANCH   9  11
ENDBRANCH   2   9
TORSDOF 2
ENDMDL
MODEL 4
REMARK VINA RESULT:      -4.4      2.167      3.222
REMARK  2 active torsions:
REMARK  status: ('A' for Active; 'I' for Inactive)
REMARK    1  A    between atoms: C_1  and  C_3 
REMARK    2  A    between atoms: C_1  and  O_7 
ROOT
HETATM    1  N   UNL     1      62.819   6.600   1.368  1.00  0.00    -0.191 NA
HETATM    2  C   UNL     1      62.671   9.192   3.818  1.00  0.00     0.060 A 
HETATM    3  C   UNL     1      62.697   7.641   1.873  1.00  0.00     0.100 C 
HETATM    4  C   UNL     1      62.500   8.934   2.450  1.00  0.00     0.060 A 
HETATM    5  C   UNL     1      62.337  10.468   4.312  1.00  0.00     0.019 A 
HETATM    6  C   UNL     1      62.048   9.960   1.595  1.00  0.00     0.024 A 
HETATM    7  C   UNL     1      61.869  11.473   3.459  1.00  0.00     0.001 A 
HETATM    8  C   UNL     1      61.735  11.223   2.098  1.00  0.00     0.002 A 
ENDROOT
BRANCH   2   9
HETATM    9  C   UNL     1      63.128   8.186   4.825  1.00  0.00     0.294 C 
HETATM   10  O   UNL     1      64.310   7.944   5.014  1.00  0.00    -0.259 OA
BRANCH   9  11
HETATM   11  O   UNL     1      62.090   7.559   5.424  1.00  0.00    -0.322 OA
HETATM   12  C   UNL     1      62.419   6.368   6.156  1.00  0.00     0.213 C 
ENDBRANCH   9  11
ENDBRANCH   2   9
TORSDOF 2
ENDMDL
MODEL 5
REMARK VINA RESULT:      -4.4      2.936      4.686
REMARK  2 active torsions:
REMARK  status: ('A' for Active; 'I' for Inactive)
REMARK    1  A    between atoms: C_1  and  C_3 
REMARK    2  A    between atoms: C_1  and  O_7 
ROOT
HETATM    1  N   UNL     1      64.335   6.375   3.164  1.00  0.00    -0.191 NA
HETATM    2  C   UNL     1      62.320   9.298   2.787  1.00  0.00     0.060 A 
HETATM    3  C   UNL     1      63.785   7.377   3.383  1.00  0.00     0.100 C 
HETATM    4  C   UNL     1      63.160   8.627   3.687  1.00  0.00     0.060 A 
HETATM    5  C   UNL     1      61.849  10.579   3.131  1.00  0.00     0.019 A 
HETATM    6  C   UNL     1      63.476   9.220   4.927  1.00  0.00     0.024 A 
HETATM    7  C   UNL     1      62.185  11.169   4.354  1.00  0.00     0.001 A 
HETATM    8  C   UNL     1      62.989  10.485   5.258  1.00  0.00     0.002 A 
ENDROOT
BRANCH   2   9
HETATM    9  C   UNL     1      61.926   8.782   1.441  1.00  0.00     0.294 C 
HETATM   10  O   UNL     1      62.438   9.192   0.411  1.00  0.00    -0.259 OA
BRANCH   9  11
HETATM   11  O   UNL     1      60.915   7.886   1.516  1.00  0.00    -0.322 OA
HETATM   12  C   UNL     1      59.738   8.210   0.759  1.00  0.00     0.213 C 
ENDBRANCH   9  11
ENDBRANCH   2   9
TORSDOF 2
ENDMDL
MODEL 6
REMARK VINA RESULT:      -4.2      2.567      3.489
REMARK  2 active torsions:
REMARK  status: ('A' for Active; 'I' for Inactive)
REMARK    1  A    between atoms: C_1  and  C_3 
REMARK    2  A    between atoms: C_1  and  O_7 
ROOT
HETATM    1  N   UNL     1      64.946   5.278   3.447  1.00  0.00    -0.191 NA
HETATM    2  C   UNL     1      64.274   8.448   4.945  1.00  0.00     0.060 A 
HETATM    3  C   UNL     1      64.532   6.350   3.634  1.00  0.00     0.100 C 
HETATM    4  C   UNL     1      63.968   7.648   3.835  1.00  0.00     0.060 A 
HETATM    5  C   UNL     1      63.576   9.659   5.117  1.00  0.00     0.019 A 
HETATM    6  C   UNL     1      63.011   8.087   2.896  1.00  0.00     0.024 A 
HETATM    7  C   UNL     1      62.614  10.077   4.191  1.00  0.00     0.001 A 
HETATM    8  C   UNL     1      62.339   9.297   3.074  1.00  0.00     0.002 A 
ENDROOT
BRANCH   2   9
HETATM    9  C   UNL     1      65.254   8.086   6.013  1.00  0.00     0.294 C 
HETATM   10  O   UNL     1      64.946   7.396   6.973  1.00  0.00    -0.259 OA
BRANCH   9  11
HETATM   11  O   UNL     1      66.460   8.663   5.814  1.00  0.00    -0.322 OA
HETATM   12  C   UNL     1      67.500   7.790   5.347  1.00  0.00     0.213 C 
ENDBRANCH   9  11
ENDBRANCH   2   9
TORSDOF 2
ENDMDL
MODEL 7
REMARK VINA RESULT:      -3.8     10.910     12.139
REMARK  2 active torsions:
REMARK  status: ('A' for Active; 'I' for Inactive)
REMARK    1  A    between atoms: C_1  and  C_3 
REMARK    2  A    between atoms: C_1  and  O_7 
ROOT
HETATM    1  N   UNL     1      54.646   3.157  11.695  1.00  0.00    -0.191 NA
HETATM    2  C   UNL     1      58.156   2.506  11.695  1.00  0.00     0.060 A 
HETATM    3  C   UNL     1      55.718   2.859  12.039  1.00  0.00     0.100 C 
HETATM    4  C   UNL     1      57.007   2.448  12.498  1.00  0.00     0.060 A 
HETATM    5  C   UNL     1      59.357   1.967  12.195  1.00  0.00     0.019 A 
HETATM    6  C   UNL     1      57.086   1.899  13.794  1.00  0.00     0.024 A 
HETATM    7  C   UNL     1      59.419   1.405  13.475  1.00  0.00     0.001 A 
HETATM    8  C   UNL     1      58.286   1.382  14.280  1.00  0.00     0.002 A 
ENDROOT
BRANCH   2   9
HETATM    9  C   UNL     1      58.198   3.048  10.303  1.00  0.00     0.294 C 
HETATM   10  O   UNL     1      57.939   2.360   9.328  1.00  0.00    -0.259 OA
BRANCH   9  11
HETATM   11  O   UNL     1      58.613   4.335  10.271  1.00  0.00    -0.322 OA
HETATM   12  C   UNL     1      58.871   4.874   8.965  1.00  0.00     0.213 C 
ENDBRANCH   9  11
ENDBRANCH   2   9
TORSDOF 2
ENDMDL
MODEL 8
REMARK VINA RESULT:      -3.7      3.654      6.104
REMARK  2 active torsions:
REMARK  status: ('A' for Active; 'I' for Inactive)
REMARK    1  A    between atoms: C_1  and  C_3 
REMARK    2  A    between atoms: C_1  and  O_7 
ROOT
HETATM    1  N   UNL     1      65.233   5.731   3.110  1.00  0.00    -0.191 NA
HETATM    2  C   UNL     1      66.161   6.688   6.422  1.00  0.00     0.060 A 
HETATM    3  C   UNL     1      65.719   5.733   4.168  1.00  0.00     0.100 C 
HETATM    4  C   UNL     1      66.369   5.708   5.440  1.00  0.00     0.060 A 
HETATM    5  C   UNL     1      66.938   6.644   7.595  1.00  0.00     0.019 A 
HETATM    6  C   UNL     1      67.309   4.680   5.665  1.00  0.00     0.024 A 
HETATM    7  C   UNL     1      67.882   5.632   7.800  1.00  0.00     0.001 A 
HETATM    8  C   UNL     1      68.059   4.643   6.839  1.00  0.00     0.002 A 
ENDROOT
BRANCH   2   9
HETATM    9  C   UNL     1      65.209   7.833   6.296  1.00  0.00     0.294 C 
HETATM   10  O   UNL     1      65.572   8.947   5.952  1.00  0.00    -0.259 OA
BRANCH   9  11
HETATM   11  O   UNL     1      63.954   7.494   6.667  1.00  0.00    -0.322 OA
HETATM   12  C   UNL     1      62.914   7.839   5.739  1.00  0.00     0.213 C 
ENDBRANCH   9  11
ENDBRANCH   2   9
TORSDOF 2
ENDMDL
MODEL 9
REMARK VINA RESULT:      -3.7      5.048      7.125
REMARK  2 active torsions:
REMARK  status: ('A' for Active; 'I' for Inactive)
REMARK    1  A    between atoms: C_1  and  C_3 
REMARK    2  A    between atoms: C_1  and  O_7 
ROOT
HETATM    1  N   UNL     1      66.140   8.687   6.473  1.00  0.00    -0.191 NA
HETATM    2  C   UNL     1      67.188   5.278   6.631  1.00  0.00     0.060 A 
HETATM    3  C   UNL     1      66.603   7.687   6.846  1.00  0.00     0.100 C 
HETATM    4  C   UNL     1      67.152   6.473   7.364  1.00  0.00     0.060 A 
HETATM    5  C   UNL     1      67.638   4.107   7.270  1.00  0.00     0.019 A 
HETATM    6  C   UNL     1      67.607   6.489   8.700  1.00  0.00     0.024 A 
HETATM    7  C   UNL     1      68.068   4.129   8.601  1.00  0.00     0.001 A 
HETATM    8  C   UNL     1      68.063   5.323   9.313  1.00  0.00     0.002 A 
ENDROOT
BRANCH   2   9
HETATM    9  C   UNL     1      66.721   5.130   5.219  1.00  0.00     0.294 C 
HETATM   10  O   UNL     1      67.443   5.375   4.265  1.00  0.00    -0.259 OA
BRANCH   9  11
HETATM   11  O   UNL     1      65.420   4.768   5.150  1.00  0.00    -0.322 OA
HETATM   12  C   UNL     1      64.963   4.328   3.861  1.00  0.00     0.213 C 
ENDBRANCH   9  11
ENDBRANCH   2   9
TORSDOF 2
ENDMDL
