MODEL 1
REMARK VINA RESULT:      -4.9      0.000      0.000
REMARK  3 active torsions:
REMARK  status: ('A' for Active; 'I' for Inactive)
REMARK    1  A    between atoms: C_1  and  O_2 
REMARK    2  A    between atoms: O_2  and  C_6 
REMARK    3  A    between atoms: C_7  and  N_8 
ROOT
HETATM    1  C   UNL     1      62.120   8.950   3.216  1.00  0.00     0.078 A 
HETATM    2  C   UNL     1      63.129  10.546   5.305  1.00  0.00     0.025 A 
HETATM    3  C   UNL     1      63.124   8.472   4.058  1.00  0.00     0.039 A 
HETATM    4  C   UNL     1      61.691  10.265   3.359  1.00  0.00     0.039 A 
HETATM    5  C   UNL     1      63.639   9.270   5.081  1.00  0.00     0.031 A 
HETATM    6  C   UNL     1      62.199  11.061   4.394  1.00  0.00     0.031 A 
ENDROOT
BRANCH   1   7
HETATM    7  O   UNL     1      61.689   8.051   2.290  1.00  0.00    -0.255 OA
BRANCH   7   8
HETATM    8  C   UNL     1      61.744   8.387   0.912  1.00  0.00     0.530 C 
HETATM    9  F   UNL     1      62.539   9.444   0.638  1.00  0.00    -0.144 F 
HETATM   10  F   UNL     1      60.493   8.700   0.503  1.00  0.00    -0.144 F 
HETATM   11  F   UNL     1      62.163   7.321   0.200  1.00  0.00    -0.144 F 
ENDBRANCH   7   8
ENDBRANCH   1   7
BRANCH   2  12
HETATM   12  N   UNL     1      63.710  11.380   6.269  1.00  0.00    -0.399 N 
HETATM   13  H   UNL     1      64.406  11.027   6.870  1.00  0.00     0.156 HD
HETATM   14  H   UNL     1      63.424  12.319   6.344  1.00  0.00     0.156 HD
ENDBRANCH   2  12
TORSDOF 3
ENDMDL
MODEL 2
REMARK VINA RESULT:      -4.8      3.710      4.505
REMARK  3 active torsions:
REMARK  status: ('A' for Active; 'I' for Inactive)
REMARK    1  A    between atoms: C_1  and  O_2 
REMARK    2  A    between atoms: O_2  and  C_6 
REMARK    3  A    between atoms: C_7  and  N_8 
ROOT
HETATM    1  C   UNL     1      63.258   8.923   4.958  1.00  0.00     0.078 A 
HETATM    2  C   UNL     1      61.961  10.663   3.163  1.00  0.00     0.025 A 
HETATM    3  C   UNL     1      62.985  10.243   5.315  1.00  0.00     0.039 A 
HETATM    4  C   UNL     1      62.969   8.503   3.663  1.00  0.00     0.039 A 
HETATM    5  C   UNL     1      62.361  11.112   4.419  1.00  0.00     0.031 A 
HETATM    6  C   UNL     1      62.330   9.372   2.769  1.00  0.00     0.031 A 
ENDROOT
BRANCH   1   7
HETATM    7  O   UNL     1      63.833   8.182   5.943  1.00  0.00    -0.255 OA
BRANCH   7   8
HETATM    8  C   UNL     1      65.149   7.680   5.760  1.00  0.00     0.530 C 
HETATM    9  F   UNL     1      65.920   8.445   4.958  1.00  0.00    -0.144 F 
HETATM   10  F   UNL     1      65.058   6.455   5.193  1.00  0.00    -0.144 F 
HETATM   11  F   UNL     1      65.753   7.543   6.958  1.00  0.00    -0.144 F 
ENDBRANCH   7   8
ENDBRANCH   1   7
BRANCH   2  12
HETATM   12  N   UNL     1      61.422  11.559   2.231  1.00  0.00    -0.399 N 
HETATM   13  H   UNL     1      60.645  11.295   1.687  1.00  0.00     0.156 HD
HETATM   14  H   UNL     1      61.819  12.453   2.121  1.00  0.00     0.156 HD
ENDBRANCH   2  12
TORSDOF 3
ENDMDL
MODEL 3
REMARK VINA RESULT:      -4.8      3.656      4.453
REMARK  3 active torsions:
REMARK  status: ('A' for Active; 'I' for Inactive)
REMARK    1  A    between atoms: C_1  and  O_2 
REMARK    2  A    between atoms: O_2  and  C_6 
REMARK    3  A    between atoms: C_7  and  N_8 
ROOT
HETATM    1  C   UNL     1      63.165   9.061   5.122  1.00  0.00     0.078 A 
HETATM    2  C   UNL     1      62.033  10.703   3.133  1.00  0.00     0.025 A 
HETATM    3  C   UNL     1      62.765   8.526   3.897  1.00  0.00     0.039 A 
HETATM    4  C   UNL     1      62.907  10.402   5.387  1.00  0.00     0.039 A 
HETATM    5  C   UNL     1      62.186   9.335   2.919  1.00  0.00     0.031 A 
HETATM    6  C   UNL     1      62.337  11.216   4.400  1.00  0.00     0.031 A 
ENDROOT
BRANCH   1   7
HETATM    7  O   UNL     1      63.748   8.164   5.962  1.00  0.00    -0.255 OA
BRANCH   7   8
HETATM    8  C   UNL     1      65.062   7.702   5.687  1.00  0.00     0.530 C 
HETATM    9  F   UNL     1      65.101   6.499   5.073  1.00  0.00    -0.144 F 
HETATM   10  F   UNL     1      65.724   7.583   6.861  1.00  0.00    -0.144 F 
HETATM   11  F   UNL     1      65.713   8.608   4.929  1.00  0.00    -0.144 F 
ENDBRANCH   7   8
ENDBRANCH   1   7
BRANCH   2  12
HETATM   12  N   UNL     1      61.367  11.495   2.190  1.00  0.00    -0.399 N 
HETATM   13  H   UNL     1      60.388  11.597   2.236  1.00  0.00     0.156 HD
HETATM   14  H   UNL     1      61.877  11.951   1.482  1.00  0.00     0.156 HD
ENDBRANCH   2  12
TORSDOF 3
ENDMDL
MODEL 4
REMARK VINA RESULT:      -4.6      0.653      1.881
REMARK  3 active torsions:
REMARK  status: ('A' for Active; 'I' for Inactive)
REMARK    1  A    between atoms: C_1  and  O_2 
REMARK    2  A    between atoms: O_2  and  C_6 
REMARK    3  A    between atoms: C_7  and  N_8 
ROOT
HETATM    1  C   UNL     1      61.785   9.126   3.307  1.00  0.00     0.078 A 
HETATM    2  C   UNL     1      63.063  10.667   5.289  1.00  0.00     0.025 A 
HETATM    3  C   UNL     1      61.659  10.515   3.323  1.00  0.00     0.039 A 
HETATM    4  C   UNL     1      62.472   8.501   4.343  1.00  0.00     0.039 A 
HETATM    5  C   UNL     1      62.275  11.277   4.317  1.00  0.00     0.031 A 
HETATM    6  C   UNL     1      63.100   9.268   5.332  1.00  0.00     0.031 A 
ENDROOT
BRANCH   1   7
HETATM    7  O   UNL     1      61.165   8.518   2.260  1.00  0.00    -0.255 OA
BRANCH   7   8
HETATM    8  C   UNL     1      61.921   8.162   1.112  1.00  0.00     0.530 C 
HETATM    9  F   UNL     1      61.226   7.447   0.201  1.00  0.00    -0.144 F 
HETATM   10  F   UNL     1      62.968   7.406   1.514  1.00  0.00    -0.144 F 
HETATM   11  F   UNL     1      62.407   9.275   0.526  1.00  0.00    -0.144 F 
ENDBRANCH   7   8
ENDBRANCH   1   7
BRANCH   2  12
HETATM   12  N   UNL     1      63.601  11.421   6.339  1.00  0.00    -0.399 N 
HETATM   13  H   UNL     1      63.856  12.361   6.190  1.00  0.00     0.156 HD
HETATM   14  H   UNL     1      63.724  11.012   7.226  1.00  0.00     0.156 HD
ENDBRANCH   2  12
TORSDOF 3
ENDMDL
MODEL 5
REMARK VINA RESULT:      -4.3      1.443      2.183
REMARK  3 active torsions:
REMARK  status: ('A' for Active; 'I' for Inactive)
REMARK    1  A    between atoms: C_1  and  O_2 
REMARK    2  A    between atoms: O_2  and  C_6 
REMARK    3  A    between atoms: C_7  and  N_8 
ROOT
HETATM    1  C   UNL     1      62.602   8.227   3.245  1.00  0.00     0.078 A 
HETATM    2  C   UNL     1      64.714   8.470   5.092  1.00  0.00     0.025 A 
HETATM    3  C   UNL     1      62.595   9.234   4.210  1.00  0.00     0.039 A 
HETATM    4  C   UNL     1      63.622   7.281   3.269  1.00  0.00     0.039 A 
HETATM    5  C   UNL     1      63.631   9.342   5.138  1.00  0.00     0.031 A 
HETATM    6  C   UNL     1      64.668   7.398   4.193  1.00  0.00     0.031 A 
ENDROOT
BRANCH   1   7
HETATM    7  O   UNL     1      61.550   8.266   2.384  1.00  0.00    -0.255 OA
BRANCH   7   8
HETATM    8  C   UNL     1      61.657   9.019   1.185  1.00  0.00     0.530 C 
HETATM    9  F   UNL     1      61.829  10.344   1.384  1.00  0.00    -0.144 F 
HETATM   10  F   UNL     1      60.515   8.856   0.479  1.00  0.00    -0.144 F 
HETATM   11  F   UNL     1      62.680   8.547   0.442  1.00  0.00    -0.144 F 
ENDBRANCH   7   8
ENDBRANCH   1   7
BRANCH   2  12
HETATM   12  N   UNL     1      65.704   8.519   6.081  1.00  0.00    -0.399 N 
HETATM   13  H   UNL     1      66.281   9.314   6.161  1.00  0.00     0.156 HD
HETATM   14  H   UNL     1      65.823   7.760   6.698  1.00  0.00     0.156 HD
ENDBRANCH   2  12
TORSDOF 3
ENDMDL
MODEL 6
REMARK VINA RESULT:      -4.1      3.674      4.538
REMARK  3 active torsions:
REMARK  status: ('A' for Active; 'I' for Inactive)
REMARK    1  A    between atoms: C_1  and  O_2 
REMARK    2  A    between atoms: O_2  and  C_6 
REMARK    3  A    between atoms: C_7  and  N_8 
ROOT
HETATM    1  C   UNL     1      64.866   7.515   5.166  1.00  0.00     0.078 A 
HETATM    2  C   UNL     1      66.720   6.998   7.222  1.00  0.00     0.025 A 
HETATM    3  C   UNL     1      66.183   7.966   5.070  1.00  0.00     0.039 A 
HETATM    4  C   UNL     1      64.453   6.890   6.337  1.00  0.00     0.039 A 
HETATM    5  C   UNL     1      67.096   7.727   6.098  1.00  0.00     0.031 A 
HETATM    6  C   UNL     1      65.374   6.639   7.362  1.00  0.00     0.031 A 
ENDROOT
BRANCH   1   7
HETATM    7  O   UNL     1      64.100   7.785   4.075  1.00  0.00    -0.255 OA
BRANCH   7   8
HETATM    8  C   UNL     1      63.132   8.822   4.141  1.00  0.00     0.530 C 
HETATM    9  F   UNL     1      63.496   9.860   4.925  1.00  0.00    -0.144 F 
HETATM   10  F   UNL     1      61.992   8.303   4.653  1.00  0.00    -0.144 F 
HETATM   11  F   UNL     1      62.865   9.275   2.899  1.00  0.00    -0.144 F 
ENDBRANCH   7   8
ENDBRANCH   1   7
BRANCH   2  12
HETATM   12  N   UNL     1      67.609   6.841   8.293  1.00  0.00    -0.399 N 
HETATM   13  H   UNL     1      67.945   7.632   8.773  1.00  0.00     0.156 HD
HETATM   14  H   UNL     1      67.896   5.939   8.566  1.00  0.00     0.156 HD
ENDBRANCH   2  12
TORSDOF 3
ENDMDL
MODEL 7
REMARK VINA RESULT:      -4.0      3.273      4.197
REMARK  3 active torsions:
REMARK  status: ('A' for Active; 'I' for Inactive)
REMARK    1  A    between atoms: C_1  and  O_2 
REMARK    2  A    between atoms: O_2  and  C_6 
REMARK    3  A    between atoms: C_7  and  N_8 
ROOT
HETATM    1  C   UNL     1      63.829   8.113   4.639  1.00  0.00     0.078 A 
HETATM    2  C   UNL     1      66.245   6.778   4.079  1.00  0.00     0.025 A 
HETATM    3  C   UNL     1      65.022   8.515   5.239  1.00  0.00     0.039 A 
HETATM    4  C   UNL     1      63.830   6.979   3.834  1.00  0.00     0.039 A 
HETATM    5  C   UNL     1      66.216   7.841   4.977  1.00  0.00     0.031 A 
HETATM    6  C   UNL     1      65.031   6.311   3.562  1.00  0.00     0.031 A 
ENDROOT
BRANCH   1   7
HETATM    7  O   UNL     1      62.754   8.884   4.955  1.00  0.00    -0.255 OA
BRANCH   7   8
HETATM    8  C   UNL     1      62.262   9.818   4.006  1.00  0.00     0.530 C 
HETATM    9  F   UNL     1      62.816   9.696   2.780  1.00  0.00    -0.144 F 
HETATM   10  F   UNL     1      62.535  11.064   4.457  1.00  0.00    -0.144 F 
HETATM   11  F   UNL     1      60.922   9.696   3.900  1.00  0.00    -0.144 F 
ENDBRANCH   7   8
ENDBRANCH   1   7
BRANCH   2  12
HETATM   12  N   UNL     1      67.422   6.044   3.890  1.00  0.00    -0.399 N 
HETATM   13  H   UNL     1      67.383   5.064   3.803  1.00  0.00     0.156 HD
HETATM   14  H   UNL     1      68.290   6.508   3.844  1.00  0.00     0.156 HD
ENDBRANCH   2  12
TORSDOF 3
ENDMDL
MODEL 8
REMARK VINA RESULT:      -3.9      3.712      4.849
REMARK  3 active torsions:
REMARK  status: ('A' for Active; 'I' for Inactive)
REMARK    1  A    between atoms: C_1  and  O_2 
REMARK    2  A    between atoms: O_2  and  C_6 
REMARK    3  A    between atoms: C_7  and  N_8 
ROOT
HETATM    1  C   UNL     1      61.700   9.610   3.311  1.00  0.00     0.078 A 
HETATM    2  C   UNL     1      60.783   7.949   1.229  1.00  0.00     0.025 A 
HETATM    3  C   UNL     1      61.927   9.946   1.976  1.00  0.00     0.039 A 
HETATM    4  C   UNL     1      61.098   8.391   3.604  1.00  0.00     0.039 A 
HETATM    5  C   UNL     1      61.491   9.113   0.945  1.00  0.00     0.031 A 
HETATM    6  C   UNL     1      60.649   7.562   2.568  1.00  0.00     0.031 A 
ENDROOT
BRANCH   1   7
HETATM    7  O   UNL     1      62.145  10.533   4.206  1.00  0.00    -0.255 OA
BRANCH   7   8
HETATM    8  C   UNL     1      63.131  10.162   5.158  1.00  0.00     0.530 C 
HETATM    9  F   UNL     1      62.659   9.392   6.163  1.00  0.00    -0.144 F 
HETATM   10  F   UNL     1      63.633  11.291   5.709  1.00  0.00    -0.144 F 
HETATM   11  F   UNL     1      64.139   9.514   4.539  1.00  0.00    -0.144 F 
ENDBRANCH   7   8
ENDBRANCH   1   7
BRANCH   2  12
HETATM   12  N   UNL     1      60.430   7.068   0.200  1.00  0.00    -0.399 N 
HETATM   13  H   UNL     1      61.015   6.968  -0.585  1.00  0.00     0.156 HD
HETATM   14  H   UNL     1      59.596   6.547   0.262  1.00  0.00     0.156 HD
ENDBRANCH   2  12
TORSDOF 3
ENDMDL
MODEL 9
REMARK VINA RESULT:      -3.9      4.382      5.147
REMARK  3 active torsions:
REMARK  status: ('A' for Active; 'I' for Inactive)
REMARK    1  A    between atoms: C_1  and  O_2 
REMARK    2  A    between atoms: O_2  and  C_6 
REMARK    3  A    between atoms: C_7  and  N_8 
ROOT
HETATM    1  C   UNL     1      62.969   7.926   5.703  1.00  0.00     0.078 A 
HETATM    2  C   UNL     1      61.413   8.600   3.453  1.00  0.00     0.025 A 
HETATM    3  C   UNL     1      61.829   7.191   5.376  1.00  0.00     0.039 A 
HETATM    4  C   UNL     1      63.273   9.060   4.957  1.00  0.00     0.039 A 
HETATM    5  C   UNL     1      61.047   7.537   4.274  1.00  0.00     0.031 A 
HETATM    6  C   UNL     1      62.495   9.399   3.843  1.00  0.00     0.031 A 
ENDROOT
BRANCH   1   7
HETATM    7  O   UNL     1      63.654   7.452   6.778  1.00  0.00    -0.255 OA
BRANCH   7   8
HETATM    8  C   UNL     1      64.947   6.896   6.591  1.00  0.00     0.530 C 
HETATM    9  F   UNL     1      65.086   6.209   5.437  1.00  0.00    -0.144 F 
HETATM   10  F   UNL     1      65.191   6.039   7.610  1.00  0.00    -0.144 F 
HETATM   11  F   UNL     1      65.874   7.876   6.638  1.00  0.00    -0.144 F 
ENDBRANCH   7   8
ENDBRANCH   1   7
BRANCH   2  12
HETATM   12  N   UNL     1      60.578   9.004   2.405  1.00  0.00    -0.399 N 
HETATM   13  H   UNL     1      60.444   9.963   2.223  1.00  0.00     0.156 HD
HETATM   14  H   UNL     1      60.124   8.329   1.849  1.00  0.00     0.156 HD
ENDBRANCH   2  12
TORSDOF 3
ENDMDL
