MODEL 1
REMARK VINA RESULT:      -5.4      0.000      0.000
REMARK  2 active torsions:
REMARK  status: ('A' for Active; 'I' for Inactive)
REMARK    1  A    between atoms: C_1  and  C_2 
REMARK    2  A    between atoms: C_3  and  C_4 
REMARK       I    between atoms: C_4  and  N_9 
ROOT
HETATM    1  C   UNL     1      62.919   8.740   3.210  1.00  0.00     0.063 A 
HETATM    2  C   UNL     1      62.671   9.832   4.059  1.00  0.00     0.046 A 
HETATM    3  C   UNL     1      62.489   8.832   1.859  1.00  0.00     0.017 A 
HETATM    4  C   UNL     1      62.046  10.983   3.535  1.00  0.00     0.018 A 
HETATM    5  C   UNL     1      61.861   9.973   1.362  1.00  0.00     0.001 A 
HETATM    6  C   UNL     1      61.645  11.055   2.200  1.00  0.00     0.001 A 
ENDROOT
BRANCH   2   7
HETATM    7  C   UNL     1      63.038   9.953   5.498  1.00  0.00     0.250 C 
HETATM    8  O   UNL     1      62.893   9.005   6.261  1.00  0.00    -0.268 OA
HETATM    9  N   UNL     1      63.608  11.105   5.953  1.00  0.00    -0.366 N 
HETATM   10  H   UNL     1      63.727  11.870   5.344  1.00  0.00     0.159 HD
HETATM   11  H   UNL     1      63.902  11.172   6.890  1.00  0.00     0.159 HD
ENDBRANCH   2   7
BRANCH   1  12
HETATM   12  C   UNL     1      63.644   7.473   3.575  1.00  0.00     0.418 C 
HETATM   13  F   UNL     1      63.005   6.629   4.420  1.00  0.00    -0.166 F 
HETATM   14  F   UNL     1      64.851   7.723   4.158  1.00  0.00    -0.166 F 
HETATM   15  F   UNL     1      63.925   6.723   2.470  1.00  0.00    -0.166 F 
ENDBRANCH   1  12
TORSDOF 2
ENDMDL
MODEL 2
REMARK VINA RESULT:      -5.0      2.437      3.139
REMARK  2 active torsions:
REMARK  status: ('A' for Active; 'I' for Inactive)
REMARK    1  A    between atoms: C_1  and  C_2 
REMARK    2  A    between atoms: C_3  and  C_4 
REMARK       I    between atoms: C_4  and  N_9 
ROOT
HETATM    1  C   UNL     1      62.830   8.802   3.827  1.00  0.00     0.063 A 
HETATM    2  C   UNL     1      62.146   9.614   2.906  1.00  0.00     0.046 A 
HETATM    3  C   UNL     1      63.228   9.379   5.062  1.00  0.00     0.017 A 
HETATM    4  C   UNL     1      61.848  10.949   3.255  1.00  0.00     0.018 A 
HETATM    5  C   UNL     1      62.936  10.704   5.385  1.00  0.00     0.001 A 
HETATM    6  C   UNL     1      62.238  11.489   4.482  1.00  0.00     0.001 A 
ENDROOT
BRANCH   2   7
HETATM    7  C   UNL     1      61.635   9.218   1.565  1.00  0.00     0.250 C 
HETATM    8  O   UNL     1      62.387   9.167   0.599  1.00  0.00    -0.268 OA
HETATM    9  N   UNL     1      60.333   8.837   1.427  1.00  0.00    -0.366 N 
HETATM   10  H   UNL     1      59.723   8.876   2.199  1.00  0.00     0.159 HD
HETATM   11  H   UNL     1      60.002   8.523   0.554  1.00  0.00     0.159 HD
ENDBRANCH   2   7
BRANCH   1  12
HETATM   12  C   UNL     1      63.156   7.343   3.658  1.00  0.00     0.418 C 
HETATM   13  F   UNL     1      62.113   6.510   3.426  1.00  0.00    -0.166 F 
HETATM   14  F   UNL     1      63.792   6.829   4.750  1.00  0.00    -0.166 F 
HETATM   15  F   UNL     1      64.011   7.140   2.614  1.00  0.00    -0.166 F 
ENDBRANCH   1  12
TORSDOF 2
ENDMDL
MODEL 3
REMARK VINA RESULT:      -5.0      1.967      2.650
REMARK  2 active torsions:
REMARK  status: ('A' for Active; 'I' for Inactive)
REMARK    1  A    between atoms: C_1  and  C_2 
REMARK    2  A    between atoms: C_3  and  C_4 
REMARK       I    between atoms: C_4  and  N_9 
ROOT
HETATM    1  C   UNL     1      62.906   8.391   3.127  1.00  0.00     0.063 A 
HETATM    2  C   UNL     1      62.199   9.404   2.457  1.00  0.00     0.046 A 
HETATM    3  C   UNL     1      63.176   7.186   2.425  1.00  0.00     0.017 A 
HETATM    4  C   UNL     1      61.819   9.204   1.113  1.00  0.00     0.018 A 
HETATM    5  C   UNL     1      62.782   7.002   1.100  1.00  0.00     0.001 A 
HETATM    6  C   UNL     1      62.108   8.016   0.440  1.00  0.00     0.001 A 
ENDROOT
BRANCH   2   7
HETATM    7  C   UNL     1      61.815  10.739   2.995  1.00  0.00     0.250 C 
HETATM    8  O   UNL     1      61.664  10.907   4.199  1.00  0.00    -0.268 OA
HETATM    9  N   UNL     1      61.704  11.800   2.146  1.00  0.00    -0.366 N 
HETATM   10  H   UNL     1      61.824  11.670   1.177  1.00  0.00     0.159 HD
HETATM   11  H   UNL     1      61.503  12.696   2.501  1.00  0.00     0.159 HD
ENDBRANCH   2   7
BRANCH   1  12
HETATM   12  C   UNL     1      63.459   8.465   4.525  1.00  0.00     0.418 C 
HETATM   13  F   UNL     1      62.555   8.543   5.532  1.00  0.00    -0.166 F 
HETATM   14  F   UNL     1      64.283   9.538   4.695  1.00  0.00    -0.166 F 
HETATM   15  F   UNL     1      64.222   7.372   4.818  1.00  0.00    -0.166 F 
ENDBRANCH   1  12
TORSDOF 2
ENDMDL
MODEL 4
REMARK VINA RESULT:      -5.0      2.487      3.218
REMARK  2 active torsions:
REMARK  status: ('A' for Active; 'I' for Inactive)
REMARK    1  A    between atoms: C_1  and  C_2 
REMARK    2  A    between atoms: C_3  and  C_4 
REMARK       I    between atoms: C_4  and  N_9 
ROOT
HETATM    1  C   UNL     1      62.791   9.289   3.762  1.00  0.00     0.063 A 
HETATM    2  C   UNL     1      62.973   8.158   2.947  1.00  0.00     0.046 A 
HETATM    3  C   UNL     1      62.165  10.430   3.194  1.00  0.00     0.017 A 
HETATM    4  C   UNL     1      62.498   8.185   1.618  1.00  0.00     0.018 A 
HETATM    5  C   UNL     1      61.712  10.442   1.875  1.00  0.00     0.001 A 
HETATM    6  C   UNL     1      61.873   9.314   1.087  1.00  0.00     0.001 A 
ENDROOT
BRANCH   2   7
HETATM    7  C   UNL     1      63.595   6.862   3.335  1.00  0.00     0.250 C 
HETATM    8  O   UNL     1      64.811   6.713   3.287  1.00  0.00    -0.268 OA
HETATM    9  N   UNL     1      62.811   5.857   3.817  1.00  0.00    -0.366 N 
HETATM   10  H   UNL     1      61.833   5.970   3.858  1.00  0.00     0.159 HD
HETATM   11  H   UNL     1      63.221   5.017   4.125  1.00  0.00     0.159 HD
ENDBRANCH   2   7
BRANCH   1  12
HETATM   12  C   UNL     1      63.157   9.407   5.217  1.00  0.00     0.418 C 
HETATM   13  F   UNL     1      62.666   8.455   6.047  1.00  0.00    -0.166 F 
HETATM   14  F   UNL     1      62.753  10.595   5.752  1.00  0.00    -0.166 F 
HETATM   15  F   UNL     1      64.509   9.371   5.396  1.00  0.00    -0.166 F 
ENDBRANCH   1  12
TORSDOF 2
ENDMDL
MODEL 5
REMARK VINA RESULT:      -4.9      2.430      3.431
REMARK  2 active torsions:
REMARK  status: ('A' for Active; 'I' for Inactive)
REMARK    1  A    between atoms: C_1  and  C_2 
REMARK    2  A    between atoms: C_3  and  C_4 
REMARK       I    between atoms: C_4  and  N_9 
ROOT
HETATM    1  C   UNL     1      62.725   8.568   2.933  1.00  0.00     0.063 A 
HETATM    2  C   UNL     1      63.572   8.015   3.908  1.00  0.00     0.046 A 
HETATM    3  C   UNL     1      62.570   7.868   1.707  1.00  0.00     0.017 A 
HETATM    4  C   UNL     1      64.201   6.778   3.652  1.00  0.00     0.018 A 
HETATM    5  C   UNL     1      63.209   6.653   1.466  1.00  0.00     0.001 A 
HETATM    6  C   UNL     1      64.021   6.103   2.444  1.00  0.00     0.001 A 
ENDROOT
BRANCH   2   7
HETATM    7  C   UNL     1      63.874   8.572   5.256  1.00  0.00     0.250 C 
HETATM    8  O   UNL     1      64.863   9.273   5.436  1.00  0.00    -0.268 OA
HETATM    9  N   UNL     1      63.001   8.361   6.282  1.00  0.00    -0.366 N 
HETATM   10  H   UNL     1      62.204   7.799   6.144  1.00  0.00     0.159 HD
HETATM   11  H   UNL     1      63.167   8.771   7.162  1.00  0.00     0.159 HD
ENDBRANCH   2   7
BRANCH   1  12
HETATM   12  C   UNL     1      61.914   9.828   3.067  1.00  0.00     0.418 C 
HETATM   13  F   UNL     1      62.552  10.911   3.573  1.00  0.00    -0.166 F 
HETATM   14  F   UNL     1      60.819   9.652   3.861  1.00  0.00    -0.166 F 
HETATM   15  F   UNL     1      61.423  10.237   1.861  1.00  0.00    -0.166 F 
ENDBRANCH   1  12
TORSDOF 2
ENDMDL
MODEL 6
REMARK VINA RESULT:      -4.7      2.766      3.638
REMARK  2 active torsions:
REMARK  status: ('A' for Active; 'I' for Inactive)
REMARK    1  A    between atoms: C_1  and  C_2 
REMARK    2  A    between atoms: C_3  and  C_4 
REMARK       I    between atoms: C_4  and  N_9 
ROOT
HETATM    1  C   UNL     1      63.409   8.625   4.207  1.00  0.00     0.063 A 
HETATM    2  C   UNL     1      64.483   7.779   4.531  1.00  0.00     0.046 A 
HETATM    3  C   UNL     1      62.673   8.350   3.024  1.00  0.00     0.017 A 
HETATM    4  C   UNL     1      64.766   6.677   3.697  1.00  0.00     0.018 A 
HETATM    5  C   UNL     1      62.975   7.263   2.205  1.00  0.00     0.001 A 
HETATM    6  C   UNL     1      64.019   6.420   2.546  1.00  0.00     0.001 A 
ENDROOT
BRANCH   2   7
HETATM    7  C   UNL     1      65.379   7.878   5.717  1.00  0.00     0.250 C 
HETATM    8  O   UNL     1      66.406   8.544   5.671  1.00  0.00    -0.268 OA
HETATM    9  N   UNL     1      65.012   7.282   6.888  1.00  0.00    -0.366 N 
HETATM   10  H   UNL     1      64.187   6.746   6.931  1.00  0.00     0.159 HD
HETATM   11  H   UNL     1      65.573   7.388   7.690  1.00  0.00     0.159 HD
ENDBRANCH   2   7
BRANCH   1  12
HETATM   12  C   UNL     1      62.916   9.792   5.021  1.00  0.00     0.418 C 
HETATM   13  F   UNL     1      61.907  10.522   4.486  1.00  0.00    -0.166 F 
HETATM   14  F   UNL     1      63.908  10.688   5.286  1.00  0.00    -0.166 F 
HETATM   15  F   UNL     1      62.455   9.390   6.241  1.00  0.00    -0.166 F 
ENDBRANCH   1  12
TORSDOF 2
ENDMDL
MODEL 7
REMARK VINA RESULT:      -4.6      3.280      4.465
REMARK  2 active torsions:
REMARK  status: ('A' for Active; 'I' for Inactive)
REMARK    1  A    between atoms: C_1  and  C_2 
REMARK    2  A    between atoms: C_3  and  C_4 
REMARK       I    between atoms: C_4  and  N_9 
ROOT
HETATM    1  C   UNL     1      63.102   9.058   3.918  1.00  0.00     0.063 A 
HETATM    2  C   UNL     1      63.142   7.937   3.071  1.00  0.00     0.046 A 
HETATM    3  C   UNL     1      64.050   9.135   4.972  1.00  0.00     0.017 A 
HETATM    4  C   UNL     1      64.137   6.957   3.274  1.00  0.00     0.018 A 
HETATM    5  C   UNL     1      65.019   8.151   5.165  1.00  0.00     0.001 A 
HETATM    6  C   UNL     1      65.068   7.063   4.309  1.00  0.00     0.001 A 
ENDROOT
BRANCH   2   7
HETATM    7  C   UNL     1      62.254   7.656   1.909  1.00  0.00     0.250 C 
HETATM    8  O   UNL     1      62.411   8.244   0.846  1.00  0.00    -0.268 OA
HETATM    9  N   UNL     1      61.304   6.682   2.008  1.00  0.00    -0.366 N 
HETATM   10  H   UNL     1      61.173   6.206   2.860  1.00  0.00     0.159 HD
HETATM   11  H   UNL     1      60.750   6.455   1.227  1.00  0.00     0.159 HD
ENDBRANCH   2   7
BRANCH   1  12
HETATM   12  C   UNL     1      62.168  10.232   3.799  1.00  0.00     0.418 C 
HETATM   13  F   UNL     1      62.226  10.940   2.645  1.00  0.00    -0.166 F 
HETATM   14  F   UNL     1      62.364  11.146   4.792  1.00  0.00    -0.166 F 
HETATM   15  F   UNL     1      60.864   9.847   3.914  1.00  0.00    -0.166 F 
ENDBRANCH   1  12
TORSDOF 2
ENDMDL
MODEL 8
REMARK VINA RESULT:      -4.5     13.372     14.417
REMARK  2 active torsions:
REMARK  status: ('A' for Active; 'I' for Inactive)
REMARK    1  A    between atoms: C_1  and  C_2 
REMARK    2  A    between atoms: C_3  and  C_4 
REMARK       I    between atoms: C_4  and  N_9 
ROOT
HETATM    1  C   UNL     1      57.501   0.659  13.654  1.00  0.00     0.063 A 
HETATM    2  C   UNL     1      56.168   1.104  13.646  1.00  0.00     0.046 A 
HETATM    3  C   UNL     1      57.740  -0.741  13.633  1.00  0.00     0.017 A 
HETATM    4  C   UNL     1      55.127   0.154  13.581  1.00  0.00     0.018 A 
HETATM    5  C   UNL     1      56.698  -1.665  13.580  1.00  0.00     0.001 A 
HETATM    6  C   UNL     1      55.388  -1.217  13.547  1.00  0.00     0.001 A 
ENDROOT
BRANCH   2   7
HETATM    7  C   UNL     1      55.691   2.515  13.658  1.00  0.00     0.250 C 
HETATM    8  O   UNL     1      55.793   3.218  12.660  1.00  0.00    -0.268 OA
HETATM    9  N   UNL     1      55.069   3.005  14.769  1.00  0.00    -0.366 N 
HETATM   10  H   UNL     1      54.984   2.445  15.574  1.00  0.00     0.159 HD
HETATM   11  H   UNL     1      54.704   3.919  14.765  1.00  0.00     0.159 HD
ENDBRANCH   2   7
BRANCH   1  12
HETATM   12  C   UNL     1      58.731   1.527  13.637  1.00  0.00     0.418 C 
HETATM   13  F   UNL     1      58.796   2.470  12.666  1.00  0.00    -0.166 F 
HETATM   14  F   UNL     1      59.874   0.795  13.507  1.00  0.00    -0.166 F 
HETATM   15  F   UNL     1      58.872   2.214  14.808  1.00  0.00    -0.166 F 
ENDBRANCH   1  12
TORSDOF 2
ENDMDL
MODEL 9
REMARK VINA RESULT:      -4.5      3.852      4.939
REMARK  2 active torsions:
REMARK  status: ('A' for Active; 'I' for Inactive)
REMARK    1  A    between atoms: C_1  and  C_2 
REMARK    2  A    between atoms: C_3  and  C_4 
REMARK       I    between atoms: C_4  and  N_9 
ROOT
HETATM    1  C   UNL     1      66.225   6.677   5.915  1.00  0.00     0.063 A 
HETATM    2  C   UNL     1      65.024   7.055   5.290  1.00  0.00     0.046 A 
HETATM    3  C   UNL     1      67.127   5.855   5.190  1.00  0.00     0.017 A 
HETATM    4  C   UNL     1      64.779   6.639   3.964  1.00  0.00     0.018 A 
HETATM    5  C   UNL     1      66.863   5.443   3.885  1.00  0.00     0.001 A 
HETATM    6  C   UNL     1      65.688   5.842   3.267  1.00  0.00     0.001 A 
ENDROOT
BRANCH   2   7
HETATM    7  C   UNL     1      63.946   7.910   5.859  1.00  0.00     0.250 C 
HETATM    8  O   UNL     1      63.187   7.473   6.716  1.00  0.00    -0.268 OA
HETATM    9  N   UNL     1      63.849   9.215   5.474  1.00  0.00    -0.366 N 
HETATM   10  H   UNL     1      64.456   9.572   4.786  1.00  0.00     0.159 HD
HETATM   11  H   UNL     1      63.173   9.800   5.885  1.00  0.00     0.159 HD
ENDBRANCH   2   7
BRANCH   1  12
HETATM   12  C   UNL     1      66.686   7.095   7.285  1.00  0.00     0.418 C 
HETATM   13  F   UNL     1      65.860   6.805   8.320  1.00  0.00    -0.166 F 
HETATM   14  F   UNL     1      66.906   8.438   7.365  1.00  0.00    -0.166 F 
HETATM   15  F   UNL     1      67.878   6.514   7.609  1.00  0.00    -0.166 F 
ENDBRANCH   1  12
TORSDOF 2
ENDMDL
