MODEL 1
REMARK VINA RESULT:      -4.9      0.000      0.000
REMARK  4 active torsions:
REMARK  status: ('A' for Active; 'I' for Inactive)
REMARK    1  A    between atoms: C_1  and  C_4 
REMARK    2  A    between atoms: C_1  and  O_6 
REMARK    3  A    between atoms: S_2  and  C_4 
REMARK    4  A    between atoms: S_2  and  C_5 
ROOT
HETATM    1  C   UNL     1      62.569   9.301   3.917  1.00  0.00     0.001 A 
HETATM    2  C   UNL     1      62.260  10.630   4.225  1.00  0.00     0.018 A 
HETATM    3  C   UNL     1      62.482   8.863   2.593  1.00  0.00     0.018 A 
HETATM    4  C   UNL     1      61.853  11.508   3.217  1.00  0.00     0.001 A 
HETATM    5  C   UNL     1      62.078   9.742   1.585  1.00  0.00     0.001 A 
HETATM    6  C   UNL     1      61.763  11.063   1.898  1.00  0.00     0.000 A 
ENDROOT
BRANCH   1   7
HETATM    7  S   UNL     1      63.092   8.176   5.196  1.00  0.00    -0.120 SA
BRANCH   7   8
HETATM    8  C   UNL     1      64.895   8.287   4.950  1.00  0.00     0.190 C 
BRANCH   8   9
HETATM    9  C   UNL     1      65.644   8.121   6.258  1.00  0.00     0.268 C 
HETATM   10  O   UNL     1      66.575   8.806   6.653  1.00  0.00    -0.264 OA
BRANCH   9  11
HETATM   11  O   UNL     1      65.068   7.117   6.993  1.00  0.00    -0.326 OA
HETATM   12  C   UNL     1      65.971   6.474   7.898  1.00  0.00     0.213 C 
ENDBRANCH   9  11
ENDBRANCH   8   9
ENDBRANCH   7   8
ENDBRANCH   1   7
TORSDOF 4
ENDMDL
MODEL 2
REMARK VINA RESULT:      -4.9      0.098      1.398
REMARK  4 active torsions:
REMARK  status: ('A' for Active; 'I' for Inactive)
REMARK    1  A    between atoms: C_1  and  C_4 
REMARK    2  A    between atoms: C_1  and  O_6 
REMARK    3  A    between atoms: S_2  and  C_4 
REMARK    4  A    between atoms: S_2  and  C_5 
ROOT
HETATM    1  C   UNL     1      62.509   9.306   3.934  1.00  0.00     0.001 A 
HETATM    2  C   UNL     1      62.412   8.866   2.610  1.00  0.00     0.018 A 
HETATM    3  C   UNL     1      62.225  10.640   4.238  1.00  0.00     0.018 A 
HETATM    4  C   UNL     1      62.048   9.759   1.598  1.00  0.00     0.001 A 
HETATM    5  C   UNL     1      61.858  11.531   3.227  1.00  0.00     0.001 A 
HETATM    6  C   UNL     1      61.771  11.090   1.908  1.00  0.00     0.000 A 
ENDROOT
BRANCH   1   7
HETATM    7  S   UNL     1      62.970   8.174   5.230  1.00  0.00    -0.120 SA
BRANCH   7   8
HETATM    8  C   UNL     1      64.769   8.130   4.939  1.00  0.00     0.190 C 
BRANCH   8   9
HETATM    9  C   UNL     1      65.539   8.071   6.245  1.00  0.00     0.268 C 
HETATM   10  O   UNL     1      66.459   8.803   6.577  1.00  0.00    -0.264 OA
BRANCH   9  11
HETATM   11  O   UNL     1      64.999   7.107   7.055  1.00  0.00    -0.326 OA
HETATM   12  C   UNL     1      65.963   6.419   7.856  1.00  0.00     0.213 C 
ENDBRANCH   9  11
ENDBRANCH   8   9
ENDBRANCH   7   8
ENDBRANCH   1   7
TORSDOF 4
ENDMDL
MODEL 3
REMARK VINA RESULT:      -4.3      1.533      2.303
REMARK  4 active torsions:
REMARK  status: ('A' for Active; 'I' for Inactive)
REMARK    1  A    between atoms: C_1  and  C_4 
REMARK    2  A    between atoms: C_1  and  O_6 
REMARK    3  A    between atoms: S_2  and  C_4 
REMARK    4  A    between atoms: S_2  and  C_5 
ROOT
HETATM    1  C   UNL     1      62.631   8.820   3.039  1.00  0.00     0.001 A 
HETATM    2  C   UNL     1      62.291   9.250   1.752  1.00  0.00     0.018 A 
HETATM    3  C   UNL     1      62.524   9.710   4.111  1.00  0.00     0.018 A 
HETATM    4  C   UNL     1      61.862  10.562   1.540  1.00  0.00     0.001 A 
HETATM    5  C   UNL     1      62.093  11.021   3.899  1.00  0.00     0.001 A 
HETATM    6  C   UNL     1      61.763  11.447   2.614  1.00  0.00     0.000 A 
ENDROOT
BRANCH   1   7
HETATM    7  S   UNL     1      63.176   7.147   3.318  1.00  0.00    -0.120 SA
BRANCH   7   8
HETATM    8  C   UNL     1      62.279   6.813   4.870  1.00  0.00     0.190 C 
BRANCH   8   9
HETATM    9  C   UNL     1      63.125   7.154   6.082  1.00  0.00     0.268 C 
HETATM   10  O   UNL     1      62.738   7.686   7.110  1.00  0.00    -0.264 OA
BRANCH   9  11
HETATM   11  O   UNL     1      64.405   6.701   5.891  1.00  0.00    -0.326 OA
HETATM   12  C   UNL     1      65.167   6.598   7.097  1.00  0.00     0.213 C 
ENDBRANCH   9  11
ENDBRANCH   8   9
ENDBRANCH   7   8
ENDBRANCH   1   7
TORSDOF 4
ENDMDL
MODEL 4
REMARK VINA RESULT:      -4.3      3.096      5.321
REMARK  4 active torsions:
REMARK  status: ('A' for Active; 'I' for Inactive)
REMARK    1  A    between atoms: C_1  and  C_4 
REMARK    2  A    between atoms: C_1  and  O_6 
REMARK    3  A    between atoms: S_2  and  C_4 
REMARK    4  A    between atoms: S_2  and  C_5 
ROOT
HETATM    1  C   UNL     1      64.236   8.301   4.615  1.00  0.00     0.001 A 
HETATM    2  C   UNL     1      65.531   8.238   5.141  1.00  0.00     0.018 A 
HETATM    3  C   UNL     1      63.835   7.361   3.661  1.00  0.00     0.018 A 
HETATM    4  C   UNL     1      66.419   7.251   4.705  1.00  0.00     0.001 A 
HETATM    5  C   UNL     1      64.722   6.373   3.229  1.00  0.00     0.001 A 
HETATM    6  C   UNL     1      66.014   6.319   3.750  1.00  0.00     0.000 A 
ENDROOT
BRANCH   1   7
HETATM    7  S   UNL     1      63.097   9.554   5.167  1.00  0.00    -0.120 SA
BRANCH   7   8
HETATM    8  C   UNL     1      61.982   9.578   3.724  1.00  0.00     0.190 C 
BRANCH   8   9
HETATM    9  C   UNL     1      61.904  10.962   3.108  1.00  0.00     0.268 C 
HETATM   10  O   UNL     1      61.883  12.024   3.711  1.00  0.00    -0.264 OA
BRANCH   9  11
HETATM   11  O   UNL     1      61.937  10.859   1.742  1.00  0.00    -0.326 OA
HETATM   12  C   UNL     1      62.022   9.513   1.265  1.00  0.00     0.213 C 
ENDBRANCH   9  11
ENDBRANCH   8   9
ENDBRANCH   7   8
ENDBRANCH   1   7
TORSDOF 4
ENDMDL
MODEL 5
REMARK VINA RESULT:      -4.3      2.353      5.496
REMARK  4 active torsions:
REMARK  status: ('A' for Active; 'I' for Inactive)
REMARK    1  A    between atoms: C_1  and  C_4 
REMARK    2  A    between atoms: C_1  and  O_6 
REMARK    3  A    between atoms: S_2  and  C_4 
REMARK    4  A    between atoms: S_2  and  C_5 
ROOT
HETATM    1  C   UNL     1      64.766   7.438   5.792  1.00  0.00     0.001 A 
HETATM    2  C   UNL     1      65.148   6.305   6.518  1.00  0.00     0.018 A 
HETATM    3  C   UNL     1      65.739   8.184   5.121  1.00  0.00     0.018 A 
HETATM    4  C   UNL     1      66.493   5.932   6.582  1.00  0.00     0.001 A 
HETATM    5  C   UNL     1      67.083   7.809   5.183  1.00  0.00     0.001 A 
HETATM    6  C   UNL     1      67.459   6.683   5.914  1.00  0.00     0.000 A 
ENDROOT
BRANCH   1   7
HETATM    7  S   UNL     1      63.054   7.919   5.703  1.00  0.00    -0.120 SA
BRANCH   7   8
HETATM    8  C   UNL     1      63.213   9.317   4.543  1.00  0.00     0.190 C 
BRANCH   8   9
HETATM    9  C   UNL     1      62.893  10.636   5.219  1.00  0.00     0.268 C 
HETATM   10  O   UNL     1      63.424  11.083   6.224  1.00  0.00    -0.264 OA
BRANCH   9  11
HETATM   11  O   UNL     1      61.953  11.313   4.486  1.00  0.00    -0.326 OA
HETATM   12  C   UNL     1      61.906  10.926   3.109  1.00  0.00     0.213 C 
ENDBRANCH   9  11
ENDBRANCH   8   9
ENDBRANCH   7   8
ENDBRANCH   1   7
TORSDOF 4
ENDMDL
MODEL 6
REMARK VINA RESULT:      -3.9      1.758      2.485
REMARK  4 active torsions:
REMARK  status: ('A' for Active; 'I' for Inactive)
REMARK    1  A    between atoms: C_1  and  C_4 
REMARK    2  A    between atoms: C_1  and  O_6 
REMARK    3  A    between atoms: S_2  and  C_4 
REMARK    4  A    between atoms: S_2  and  C_5 
ROOT
HETATM    1  C   UNL     1      62.698   8.658   2.931  1.00  0.00     0.001 A 
HETATM    2  C   UNL     1      62.287   9.278   1.746  1.00  0.00     0.018 A 
HETATM    3  C   UNL     1      62.654   9.372   4.132  1.00  0.00     0.018 A 
HETATM    4  C   UNL     1      61.849  10.604   1.763  1.00  0.00     0.001 A 
HETATM    5  C   UNL     1      62.213  10.697   4.148  1.00  0.00     0.001 A 
HETATM    6  C   UNL     1      61.811  11.313   2.963  1.00  0.00     0.000 A 
ENDROOT
BRANCH   1   7
HETATM    7  S   UNL     1      63.255   6.967   2.919  1.00  0.00    -0.120 SA
BRANCH   7   8
HETATM    8  C   UNL     1      64.295   7.001   4.417  1.00  0.00     0.190 C 
BRANCH   8   9
HETATM    9  C   UNL     1      65.706   6.529   4.123  1.00  0.00     0.268 C 
HETATM   10  O   UNL     1      66.044   5.770   3.227  1.00  0.00    -0.264 OA
BRANCH   9  11
HETATM   11  O   UNL     1      66.585   7.146   4.974  1.00  0.00    -0.326 OA
HETATM   12  C   UNL     1      65.969   8.092   5.853  1.00  0.00     0.213 C 
ENDBRANCH   9  11
ENDBRANCH   8   9
ENDBRANCH   7   8
ENDBRANCH   1   7
TORSDOF 4
ENDMDL
MODEL 7
REMARK VINA RESULT:      -3.7     12.421     14.046
REMARK  4 active torsions:
REMARK  status: ('A' for Active; 'I' for Inactive)
REMARK    1  A    between atoms: C_1  and  C_4 
REMARK    2  A    between atoms: C_1  and  O_6 
REMARK    3  A    between atoms: S_2  and  C_4 
REMARK    4  A    between atoms: S_2  and  C_5 
ROOT
HETATM    1  C   UNL     1      56.579   1.531  13.017  1.00  0.00     0.001 A 
HETATM    2  C   UNL     1      57.207   0.927  14.111  1.00  0.00     0.018 A 
HETATM    3  C   UNL     1      57.352   2.198  12.062  1.00  0.00     0.018 A 
HETATM    4  C   UNL     1      58.595   1.004  14.255  1.00  0.00     0.001 A 
HETATM    5  C   UNL     1      58.739   2.272  12.205  1.00  0.00     0.001 A 
HETATM    6  C   UNL     1      59.360   1.676  13.301  1.00  0.00     0.000 A 
ENDROOT
BRANCH   1   7
HETATM    7  S   UNL     1      54.811   1.434  12.825  1.00  0.00    -0.120 SA
BRANCH   7   8
HETATM    8  C   UNL     1      54.324   2.688  14.057  1.00  0.00     0.190 C 
BRANCH   8   9
HETATM    9  C   UNL     1      54.250   4.071  13.440  1.00  0.00     0.268 C 
HETATM   10  O   UNL     1      54.451   5.132  14.011  1.00  0.00    -0.264 OA
BRANCH   9  11
HETATM   11  O   UNL     1      53.992   3.962  12.098  1.00  0.00    -0.326 OA
HETATM   12  C   UNL     1      52.700   4.443  11.717  1.00  0.00     0.213 C 
ENDBRANCH   9  11
ENDBRANCH   8   9
ENDBRANCH   7   8
ENDBRANCH   1   7
TORSDOF 4
ENDMDL
MODEL 8
REMARK VINA RESULT:      -3.6      9.465     11.759
REMARK  4 active torsions:
REMARK  status: ('A' for Active; 'I' for Inactive)
REMARK    1  A    between atoms: C_1  and  C_4 
REMARK    2  A    between atoms: C_1  and  O_6 
REMARK    3  A    between atoms: S_2  and  C_4 
REMARK    4  A    between atoms: S_2  and  C_5 
ROOT
HETATM    1  C   UNL     1      57.593   1.988  11.853  1.00  0.00     0.001 A 
HETATM    2  C   UNL     1      58.925   2.124  12.258  1.00  0.00     0.018 A 
HETATM    3  C   UNL     1      56.659   1.435  12.734  1.00  0.00     0.018 A 
HETATM    4  C   UNL     1      59.320   1.696  13.528  1.00  0.00     0.001 A 
HETATM    5  C   UNL     1      57.054   1.011  14.005  1.00  0.00     0.001 A 
HETATM    6  C   UNL     1      58.384   1.141  14.401  1.00  0.00     0.000 A 
ENDROOT
BRANCH   1   7
HETATM    7  S   UNL     1      57.081   2.533  10.237  1.00  0.00    -0.120 SA
BRANCH   7   8
HETATM    8  C   UNL     1      58.680   3.169   9.633  1.00  0.00     0.190 C 
BRANCH   8   9
HETATM    9  C   UNL     1      58.496   4.407   8.777  1.00  0.00     0.268 C 
HETATM   10  O   UNL     1      58.113   4.436   7.617  1.00  0.00    -0.264 OA
BRANCH   9  11
HETATM   11  O   UNL     1      58.753   5.526   9.525  1.00  0.00    -0.326 OA
HETATM   12  C   UNL     1      58.585   6.752   8.807  1.00  0.00     0.213 C 
ENDBRANCH   9  11
ENDBRANCH   8   9
ENDBRANCH   7   8
ENDBRANCH   1   7
TORSDOF 4
ENDMDL
MODEL 9
REMARK VINA RESULT:      -3.6      4.126      5.127
REMARK  4 active torsions:
REMARK  status: ('A' for Active; 'I' for Inactive)
REMARK    1  A    between atoms: C_1  and  C_4 
REMARK    2  A    between atoms: C_1  and  O_6 
REMARK    3  A    between atoms: S_2  and  C_4 
REMARK    4  A    between atoms: S_2  and  C_5 
ROOT
HETATM    1  C   UNL     1      61.686   8.350   3.211  1.00  0.00     0.001 A 
HETATM    2  C   UNL     1      61.869   8.307   1.825  1.00  0.00     0.018 A 
HETATM    3  C   UNL     1      61.683   9.585   3.866  1.00  0.00     0.018 A 
HETATM    4  C   UNL     1      62.061   9.489   1.105  1.00  0.00     0.001 A 
HETATM    5  C   UNL     1      61.873  10.766   3.145  1.00  0.00     0.001 A 
HETATM    6  C   UNL     1      62.063  10.717   1.765  1.00  0.00     0.000 A 
ENDROOT
BRANCH   1   7
HETATM    7  S   UNL     1      61.436   6.848   4.136  1.00  0.00    -0.120 SA
BRANCH   7   8
HETATM    8  C   UNL     1      59.785   6.399   3.505  1.00  0.00     0.190 C 
BRANCH   8   9
HETATM    9  C   UNL     1      58.685   6.979   4.373  1.00  0.00     0.268 C 
HETATM   10  O   UNL     1      57.883   7.841   4.048  1.00  0.00    -0.264 OA
BRANCH   9  11
HETATM   11  O   UNL     1      58.664   6.333   5.582  1.00  0.00    -0.326 OA
HETATM   12  C   UNL     1      58.130   5.008   5.519  1.00  0.00     0.213 C 
ENDBRANCH   9  11
ENDBRANCH   8   9
ENDBRANCH   7   8
ENDBRANCH   1   7
TORSDOF 4
ENDMDL
