MODEL 1
REMARK VINA RESULT:      -5.4      0.000      0.000
REMARK  1 active torsions:
REMARK  status: ('A' for Active; 'I' for Inactive)
REMARK    1  A    between atoms: C_1  and  C_2 
REMARK       I    between atoms: C_2  and  N_6 
ROOT
HETATM    1  C   UNL     1      63.017   9.454   4.183  1.00  0.00     0.038 A 
HETATM    2  C   UNL     1      62.897   8.686   2.998  1.00  0.00    -0.040 A 
HETATM    3  C   UNL     1      62.230   9.255   1.877  1.00  0.00    -0.055 A 
HETATM    4  C   UNL     1      62.464  10.748   4.232  1.00  0.00     0.017 A 
HETATM    5  C   UNL     1      63.445   7.287   2.855  1.00  0.00     0.050 C 
HETATM    6  C   UNL     1      61.816  11.294   3.130  1.00  0.00     0.002 A 
HETATM    7  C   UNL     1      61.701  10.553   1.958  1.00  0.00     0.007 A 
HETATM    8  C   UNL     1      62.064   8.495   0.585  1.00  0.00     0.049 C 
ENDROOT
BRANCH   1   9
HETATM    9  C   UNL     1      63.671   8.940   5.427  1.00  0.00     0.249 C 
HETATM   10  O   UNL     1      64.837   9.174   5.722  1.00  0.00    -0.268 OA
HETATM   11  N   UNL     1      62.912   8.161   6.261  1.00  0.00    -0.366 N 
HETATM   12  H   UNL     1      61.975   7.967   6.034  1.00  0.00     0.159 HD
HETATM   13  H   UNL     1      63.305   7.796   7.086  1.00  0.00     0.159 HD
ENDBRANCH   1   9
TORSDOF 1
ENDMDL
MODEL 2
REMARK VINA RESULT:      -5.3      1.237      2.584
REMARK  1 active torsions:
REMARK  status: ('A' for Active; 'I' for Inactive)
REMARK    1  A    between atoms: C_1  and  C_2 
REMARK       I    between atoms: C_2  and  N_6 
ROOT
HETATM    1  C   UNL     1      62.897   8.762   4.126  1.00  0.00     0.038 A 
HETATM    2  C   UNL     1      62.487  10.081   3.808  1.00  0.00    -0.040 A 
HETATM    3  C   UNL     1      62.064  10.366   2.479  1.00  0.00    -0.055 A 
HETATM    4  C   UNL     1      62.893   7.773   3.125  1.00  0.00     0.017 A 
HETATM    5  C   UNL     1      62.471  11.212   4.809  1.00  0.00     0.050 C 
HETATM    6  C   UNL     1      62.475   8.062   1.831  1.00  0.00     0.002 A 
HETATM    7  C   UNL     1      62.061   9.351   1.510  1.00  0.00     0.007 A 
HETATM    8  C   UNL     1      61.616  11.747   2.070  1.00  0.00     0.049 C 
ENDROOT
BRANCH   1   9
HETATM    9  C   UNL     1      63.390   8.365   5.482  1.00  0.00     0.249 C 
HETATM   10  O   UNL     1      62.654   7.960   6.374  1.00  0.00    -0.268 OA
HETATM   11  N   UNL     1      64.735   8.476   5.720  1.00  0.00    -0.366 N 
HETATM   12  H   UNL     1      65.335   8.800   5.011  1.00  0.00     0.159 HD
HETATM   13  H   UNL     1      65.100   8.232   6.601  1.00  0.00     0.159 HD
ENDBRANCH   1   9
TORSDOF 1
ENDMDL
MODEL 3
REMARK VINA RESULT:      -4.8      2.562      3.655
REMARK  1 active torsions:
REMARK  status: ('A' for Active; 'I' for Inactive)
REMARK    1  A    between atoms: C_1  and  C_2 
REMARK       I    between atoms: C_2  and  N_6 
ROOT
HETATM    1  C   UNL     1      62.207   9.419   2.762  1.00  0.00     0.038 A 
HETATM    2  C   UNL     1      63.081   8.550   3.463  1.00  0.00    -0.040 A 
HETATM    3  C   UNL     1      63.589   8.962   4.727  1.00  0.00    -0.055 A 
HETATM    4  C   UNL     1      61.877  10.669   3.318  1.00  0.00     0.017 A 
HETATM    5  C   UNL     1      63.503   7.198   2.942  1.00  0.00     0.050 C 
HETATM    6  C   UNL     1      62.378  11.060   4.554  1.00  0.00     0.002 A 
HETATM    7  C   UNL     1      63.228  10.212   5.256  1.00  0.00     0.007 A 
HETATM    8  C   UNL     1      64.524   8.090   5.526  1.00  0.00     0.049 C 
ENDROOT
BRANCH   1   9
HETATM    9  C   UNL     1      61.642   9.096   1.415  1.00  0.00     0.249 C 
HETATM   10  O   UNL     1      62.306   9.104   0.385  1.00  0.00    -0.268 OA
HETATM   11  N   UNL     1      60.308   8.786   1.350  1.00  0.00    -0.366 N 
HETATM   12  H   UNL     1      59.766   8.776   2.170  1.00  0.00     0.159 HD
HETATM   13  H   UNL     1      59.894   8.574   0.482  1.00  0.00     0.159 HD
ENDBRANCH   1   9
TORSDOF 1
ENDMDL
MODEL 4
REMARK VINA RESULT:      -4.7      1.894      2.860
REMARK  1 active torsions:
REMARK  status: ('A' for Active; 'I' for Inactive)
REMARK    1  A    between atoms: C_1  and  C_2 
REMARK       I    between atoms: C_2  and  N_6 
ROOT
HETATM    1  C   UNL     1      62.722   8.390   3.317  1.00  0.00     0.038 A 
HETATM    2  C   UNL     1      62.282   9.388   2.412  1.00  0.00    -0.040 A 
HETATM    3  C   UNL     1      62.082  10.712   2.896  1.00  0.00    -0.055 A 
HETATM    4  C   UNL     1      62.935   8.722   4.669  1.00  0.00     0.017 A 
HETATM    5  C   UNL     1      62.013   9.126   0.950  1.00  0.00     0.050 C 
HETATM    6  C   UNL     1      62.739  10.019   5.129  1.00  0.00     0.002 A 
HETATM    7  C   UNL     1      62.317  11.009   4.248  1.00  0.00     0.007 A 
HETATM    8  C   UNL     1      61.614  11.823   1.990  1.00  0.00     0.049 C 
ENDROOT
BRANCH   1   9
HETATM    9  C   UNL     1      62.932   6.963   2.920  1.00  0.00     0.249 C 
HETATM   10  O   UNL     1      63.987   6.538   2.465  1.00  0.00    -0.268 OA
HETATM   11  N   UNL     1      61.873   6.105   3.071  1.00  0.00    -0.366 N 
HETATM   12  H   UNL     1      61.021   6.436   3.435  1.00  0.00     0.159 HD
HETATM   13  H   UNL     1      61.966   5.159   2.815  1.00  0.00     0.159 HD
ENDBRANCH   1   9
TORSDOF 1
ENDMDL
MODEL 5
REMARK VINA RESULT:      -4.6      0.963      2.653
REMARK  1 active torsions:
REMARK  status: ('A' for Active; 'I' for Inactive)
REMARK    1  A    between atoms: C_1  and  C_2 
REMARK       I    between atoms: C_2  and  N_6 
ROOT
HETATM    1  C   UNL     1      63.528   8.059   3.999  1.00  0.00     0.038 A 
HETATM    2  C   UNL     1      62.701   8.769   3.094  1.00  0.00    -0.040 A 
HETATM    3  C   UNL     1      62.430   8.197   1.819  1.00  0.00    -0.055 A 
HETATM    4  C   UNL     1      64.075   6.820   3.616  1.00  0.00     0.017 A 
HETATM    5  C   UNL     1      62.081  10.109   3.409  1.00  0.00     0.050 C 
HETATM    6  C   UNL     1      63.802   6.270   2.369  1.00  0.00     0.002 A 
HETATM    7  C   UNL     1      62.983   6.953   1.476  1.00  0.00     0.007 A 
HETATM    8  C   UNL     1      61.560   8.896   0.806  1.00  0.00     0.049 C 
ENDROOT
BRANCH   1   9
HETATM    9  C   UNL     1      63.900   8.585   5.350  1.00  0.00     0.249 C 
HETATM   10  O   UNL     1      64.828   9.363   5.539  1.00  0.00    -0.268 OA
HETATM   11  N   UNL     1      63.157   8.155   6.419  1.00  0.00    -0.366 N 
HETATM   12  H   UNL     1      62.410   7.531   6.279  1.00  0.00     0.159 HD
HETATM   13  H   UNL     1      63.372   8.471   7.326  1.00  0.00     0.159 HD
ENDBRANCH   1   9
TORSDOF 1
ENDMDL
MODEL 6
REMARK VINA RESULT:      -4.1      2.308      3.396
REMARK  1 active torsions:
REMARK  status: ('A' for Active; 'I' for Inactive)
REMARK    1  A    between atoms: C_1  and  C_2 
REMARK       I    between atoms: C_2  and  N_6 
ROOT
HETATM    1  C   UNL     1      62.575   9.232   3.057  1.00  0.00     0.038 A 
HETATM    2  C   UNL     1      62.365   8.348   1.969  1.00  0.00    -0.040 A 
HETATM    3  C   UNL     1      63.012   7.081   1.981  1.00  0.00    -0.055 A 
HETATM    4  C   UNL     1      63.427   8.848   4.110  1.00  0.00     0.017 A 
HETATM    5  C   UNL     1      61.482   8.676   0.790  1.00  0.00     0.050 C 
HETATM    6  C   UNL     1      64.052   7.607   4.112  1.00  0.00     0.002 A 
HETATM    7  C   UNL     1      63.846   6.727   3.054  1.00  0.00     0.007 A 
HETATM    8  C   UNL     1      62.836   6.092   0.857  1.00  0.00     0.049 C 
ENDROOT
BRANCH   1   9
HETATM    9  C   UNL     1      61.967  10.598   3.128  1.00  0.00     0.249 C 
HETATM   10  O   UNL     1      61.516  11.082   4.159  1.00  0.00    -0.268 OA
HETATM   11  N   UNL     1      61.916  11.325   1.967  1.00  0.00    -0.366 N 
HETATM   12  H   UNL     1      62.276  10.946   1.134  1.00  0.00     0.159 HD
HETATM   13  H   UNL     1      61.518  12.225   1.968  1.00  0.00     0.159 HD
ENDBRANCH   1   9
TORSDOF 1
ENDMDL
MODEL 7
REMARK VINA RESULT:      -4.0      2.714      3.992
REMARK  1 active torsions:
REMARK  status: ('A' for Active; 'I' for Inactive)
REMARK    1  A    between atoms: C_1  and  C_2 
REMARK       I    between atoms: C_2  and  N_6 
ROOT
HETATM    1  C   UNL     1      61.778   9.176   3.802  1.00  0.00     0.038 A 
HETATM    2  C   UNL     1      62.741   8.655   4.701  1.00  0.00    -0.040 A 
HETATM    3  C   UNL     1      62.550   7.346   5.227  1.00  0.00    -0.055 A 
HETATM    4  C   UNL     1      60.652   8.402   3.463  1.00  0.00     0.017 A 
HETATM    5  C   UNL     1      63.972   9.414   5.134  1.00  0.00     0.050 C 
HETATM    6  C   UNL     1      60.477   7.124   3.981  1.00  0.00     0.002 A 
HETATM    7  C   UNL     1      61.421   6.598   4.857  1.00  0.00     0.007 A 
HETATM    8  C   UNL     1      63.533   6.729   6.190  1.00  0.00     0.049 C 
ENDROOT
BRANCH   1   9
HETATM    9  C   UNL     1      61.867  10.551   3.216  1.00  0.00     0.249 C 
HETATM   10  O   UNL     1      61.780  11.575   3.883  1.00  0.00    -0.268 OA
HETATM   11  N   UNL     1      62.047  10.647   1.861  1.00  0.00    -0.366 N 
HETATM   12  H   UNL     1      62.118   9.831   1.315  1.00  0.00     0.159 HD
HETATM   13  H   UNL     1      62.103  11.532   1.434  1.00  0.00     0.159 HD
ENDBRANCH   1   9
TORSDOF 1
ENDMDL
MODEL 8
REMARK VINA RESULT:      -3.9      1.881      2.768
REMARK  1 active torsions:
REMARK  status: ('A' for Active; 'I' for Inactive)
REMARK    1  A    between atoms: C_1  and  C_2 
REMARK       I    between atoms: C_2  and  N_6 
ROOT
HETATM    1  C   UNL     1      62.379   8.570   4.406  1.00  0.00     0.038 A 
HETATM    2  C   UNL     1      61.831   9.002   3.172  1.00  0.00    -0.040 A 
HETATM    3  C   UNL     1      61.031   8.094   2.422  1.00  0.00    -0.055 A 
HETATM    4  C   UNL     1      62.137   7.257   4.853  1.00  0.00     0.017 A 
HETATM    5  C   UNL     1      62.045  10.384   2.604  1.00  0.00     0.050 C 
HETATM    6  C   UNL     1      61.353   6.380   4.113  1.00  0.00     0.002 A 
HETATM    7  C   UNL     1      60.801   6.796   2.905  1.00  0.00     0.007 A 
HETATM    8  C   UNL     1      60.418   8.484   1.101  1.00  0.00     0.049 C 
ENDROOT
BRANCH   1   9
HETATM    9  C   UNL     1      63.257   9.434   5.256  1.00  0.00     0.249 C 
HETATM   10  O   UNL     1      62.866  10.453   5.812  1.00  0.00    -0.268 OA
HETATM   11  N   UNL     1      64.566   9.052   5.398  1.00  0.00    -0.366 N 
HETATM   12  H   UNL     1      64.891   8.236   4.956  1.00  0.00     0.159 HD
HETATM   13  H   UNL     1      65.180   9.596   5.942  1.00  0.00     0.159 HD
ENDBRANCH   1   9
TORSDOF 1
ENDMDL
MODEL 9
REMARK VINA RESULT:      -3.8     12.806     14.025
REMARK  1 active torsions:
REMARK  status: ('A' for Active; 'I' for Inactive)
REMARK    1  A    between atoms: C_1  and  C_2 
REMARK       I    between atoms: C_2  and  N_6 
ROOT
HETATM    1  C   UNL     1      56.533   1.255  13.665  1.00  0.00     0.038 A 
HETATM    2  C   UNL     1      56.719   2.007  12.478  1.00  0.00    -0.040 A 
HETATM    3  C   UNL     1      58.044   2.329  12.072  1.00  0.00    -0.055 A 
HETATM    4  C   UNL     1      57.653   0.859  14.420  1.00  0.00     0.017 A 
HETATM    5  C   UNL     1      55.581   2.487  11.611  1.00  0.00     0.050 C 
HETATM    6  C   UNL     1      58.943   1.178  14.012  1.00  0.00     0.002 A 
HETATM    7  C   UNL     1      59.139   1.907  12.844  1.00  0.00     0.007 A 
HETATM    8  C   UNL     1      58.317   3.128  10.822  1.00  0.00     0.049 C 
ENDROOT
BRANCH   1   9
HETATM    9  C   UNL     1      55.182   0.890  14.197  1.00  0.00     0.249 C 
HETATM   10  O   UNL     1      54.599  -0.147  13.903  1.00  0.00    -0.268 OA
HETATM   11  N   UNL     1      54.581   1.779  15.049  1.00  0.00    -0.366 N 
HETATM   12  H   UNL     1      55.040   2.614  15.293  1.00  0.00     0.159 HD
HETATM   13  H   UNL     1      53.689   1.582  15.416  1.00  0.00     0.159 HD
ENDBRANCH   1   9
TORSDOF 1
ENDMDL
