MODEL 1
REMARK VINA RESULT:      -4.9      0.000      0.000
REMARK  2 active torsions:
REMARK  status: ('A' for Active; 'I' for Inactive)
REMARK    1  A    between atoms: C_1  and  C_2 
REMARK    2  A    between atoms: C_2  and  O_5 
ROOT
HETATM    1  C   UNL     1      62.869   9.352   4.120  1.00  0.00     0.061 A 
HETATM    2  C   UNL     1      62.849   8.583   2.945  1.00  0.00     0.050 A 
HETATM    3 CL   UNL     1      63.525   6.997   2.813  1.00  0.00    -0.083 Cl
HETATM    4  C   UNL     1      62.344  10.657   4.082  1.00  0.00     0.019 A 
HETATM    5  C   UNL     1      62.300   9.118   1.771  1.00  0.00     0.025 A 
HETATM    6  C   UNL     1      61.798  11.182   2.910  1.00  0.00     0.001 A 
HETATM    7  C   UNL     1      61.775  10.412   1.753  1.00  0.00     0.002 A 
ENDROOT
BRANCH   1   8
HETATM    8  C   UNL     1      63.443   8.924   5.423  1.00  0.00     0.294 C 
HETATM    9  O   UNL     1      62.816   8.254   6.232  1.00  0.00    -0.259 OA
BRANCH   8  10
HETATM   10  O   UNL     1      64.740   9.290   5.544  1.00  0.00    -0.322 OA
HETATM   11  C   UNL     1      65.662   8.198   5.556  1.00  0.00     0.213 C 
ENDBRANCH   8  10
ENDBRANCH   1   8
TORSDOF 2
ENDMDL
MODEL 2
REMARK VINA RESULT:      -4.9      1.647      2.207
REMARK  2 active torsions:
REMARK  status: ('A' for Active; 'I' for Inactive)
REMARK    1  A    between atoms: C_1  and  C_2 
REMARK    2  A    between atoms: C_2  and  O_5 
ROOT
HETATM    1  C   UNL     1      62.905   9.137   3.975  1.00  0.00     0.061 A 
HETATM    2  C   UNL     1      62.333  10.351   3.561  1.00  0.00     0.050 A 
HETATM    3 CL   UNL     1      62.138  11.730   4.587  1.00  0.00    -0.083 Cl
HETATM    4  C   UNL     1      62.946   8.065   3.064  1.00  0.00     0.019 A 
HETATM    5  C   UNL     1      61.831  10.477   2.258  1.00  0.00     0.025 A 
HETATM    6  C   UNL     1      62.445   8.199   1.768  1.00  0.00     0.001 A 
HETATM    7  C   UNL     1      61.887   9.406   1.364  1.00  0.00     0.002 A 
ENDROOT
BRANCH   1   8
HETATM    8  C   UNL     1      63.447   8.855   5.329  1.00  0.00     0.294 C 
HETATM    9  O   UNL     1      62.815   8.244   6.180  1.00  0.00    -0.259 OA
BRANCH   8  10
HETATM   10  O   UNL     1      64.727   9.275   5.456  1.00  0.00    -0.322 OA
HETATM   11  C   UNL     1      65.683   8.221   5.593  1.00  0.00     0.213 C 
ENDBRANCH   8  10
ENDBRANCH   1   8
TORSDOF 2
ENDMDL
MODEL 3
REMARK VINA RESULT:      -4.3      3.046      4.523
REMARK  2 active torsions:
REMARK  status: ('A' for Active; 'I' for Inactive)
REMARK    1  A    between atoms: C_1  and  C_2 
REMARK    2  A    between atoms: C_2  and  O_5 
ROOT
HETATM    1  C   UNL     1      62.139   9.375   2.722  1.00  0.00     0.061 A 
HETATM    2  C   UNL     1      62.042  10.734   3.063  1.00  0.00     0.050 A 
HETATM    3 CL   UNL     1      61.568  11.978   1.959  1.00  0.00    -0.083 Cl
HETATM    4  C   UNL     1      62.602   8.467   3.693  1.00  0.00     0.019 A 
HETATM    5  C   UNL     1      62.390  11.156   4.354  1.00  0.00     0.025 A 
HETATM    6  C   UNL     1      62.946   8.895   4.976  1.00  0.00     0.001 A 
HETATM    7  C   UNL     1      62.840  10.241   5.308  1.00  0.00     0.002 A 
ENDROOT
BRANCH   1   8
HETATM    8  C   UNL     1      61.832   8.795   1.389  1.00  0.00     0.294 C 
HETATM    9  O   UNL     1      62.472   9.073   0.384  1.00  0.00    -0.259 OA
BRANCH   8  10
HETATM   10  O   UNL     1      60.838   7.879   1.456  1.00  0.00    -0.322 OA
HETATM   11  C   UNL     1      59.704   8.180   0.641  1.00  0.00     0.213 C 
ENDBRANCH   8  10
ENDBRANCH   1   8
TORSDOF 2
ENDMDL
MODEL 4
REMARK VINA RESULT:      -4.2      2.646      4.033
REMARK  2 active torsions:
REMARK  status: ('A' for Active; 'I' for Inactive)
REMARK    1  A    between atoms: C_1  and  C_2 
REMARK    2  A    between atoms: C_2  and  O_5 
ROOT
HETATM    1  C   UNL     1      62.246   9.488   2.550  1.00  0.00     0.061 A 
HETATM    2  C   UNL     1      62.980   8.680   3.432  1.00  0.00     0.050 A 
HETATM    3 CL   UNL     1      63.486   7.065   3.074  1.00  0.00    -0.083 Cl
HETATM    4  C   UNL     1      61.835  10.763   2.984  1.00  0.00     0.019 A 
HETATM    5  C   UNL     1      63.301   9.156   4.711  1.00  0.00     0.025 A 
HETATM    6  C   UNL     1      62.159  11.230   4.259  1.00  0.00     0.001 A 
HETATM    7  C   UNL     1      62.893  10.427   5.124  1.00  0.00     0.002 A 
ENDROOT
BRANCH   1   8
HETATM    8  C   UNL     1      61.813   9.102   1.181  1.00  0.00     0.294 C 
HETATM    9  O   UNL     1      62.591   9.024   0.240  1.00  0.00    -0.259 OA
BRANCH   8  10
HETATM   10  O   UNL     1      60.501   8.773   1.144  1.00  0.00    -0.322 OA
HETATM   11  C   UNL     1      60.227   7.510   0.534  1.00  0.00     0.213 C 
ENDBRANCH   8  10
ENDBRANCH   1   8
TORSDOF 2
ENDMDL
MODEL 5
REMARK VINA RESULT:      -4.1      2.080      2.723
REMARK  2 active torsions:
REMARK  status: ('A' for Active; 'I' for Inactive)
REMARK    1  A    between atoms: C_1  and  C_2 
REMARK    2  A    between atoms: C_2  and  O_5 
ROOT
HETATM    1  C   UNL     1      62.568   8.902   3.173  1.00  0.00     0.061 A 
HETATM    2  C   UNL     1      62.192   9.526   1.973  1.00  0.00     0.050 A 
HETATM    3 CL   UNL     1      62.191   8.741   0.431  1.00  0.00    -0.083 Cl
HETATM    4  C   UNL     1      62.592   9.667   4.354  1.00  0.00     0.019 A 
HETATM    5  C   UNL     1      61.836  10.882   1.973  1.00  0.00     0.025 A 
HETATM    6  C   UNL     1      62.235  11.017   4.346  1.00  0.00     0.001 A 
HETATM    7  C   UNL     1      61.856  11.625   3.155  1.00  0.00     0.002 A 
ENDROOT
BRANCH   1   8
HETATM    8  C   UNL     1      62.996   7.485   3.313  1.00  0.00     0.294 C 
HETATM    9  O   UNL     1      64.171   7.155   3.392  1.00  0.00    -0.259 OA
BRANCH   8  10
HETATM   10  O   UNL     1      61.937   6.650   3.427  1.00  0.00    -0.322 OA
HETATM   11  C   UNL     1      61.803   6.041   4.713  1.00  0.00     0.213 C 
ENDBRANCH   8  10
ENDBRANCH   1   8
TORSDOF 2
ENDMDL
MODEL 6
REMARK VINA RESULT:      -3.8      1.874      2.828
REMARK  2 active torsions:
REMARK  status: ('A' for Active; 'I' for Inactive)
REMARK    1  A    between atoms: C_1  and  C_2 
REMARK    2  A    between atoms: C_2  and  O_5 
ROOT
HETATM    1  C   UNL     1      63.081   8.173   3.157  1.00  0.00     0.061 A 
HETATM    2  C   UNL     1      62.372   9.366   2.947  1.00  0.00     0.050 A 
HETATM    3 CL   UNL     1      62.211  10.619   4.129  1.00  0.00    -0.083 Cl
HETATM    4  C   UNL     1      63.082   7.200   2.140  1.00  0.00     0.019 A 
HETATM    5  C   UNL     1      61.696   9.572   1.736  1.00  0.00     0.025 A 
HETATM    6  C   UNL     1      62.408   7.413   0.937  1.00  0.00     0.001 A 
HETATM    7  C   UNL     1      61.714   8.600   0.733  1.00  0.00     0.002 A 
ENDROOT
BRANCH   1   8
HETATM    8  C   UNL     1      63.815   7.812   4.398  1.00  0.00     0.294 C 
HETATM    9  O   UNL     1      64.803   8.422   4.782  1.00  0.00    -0.259 OA
BRANCH   8  10
HETATM   10  O   UNL     1      63.206   6.805   5.066  1.00  0.00    -0.322 OA
HETATM   11  C   UNL     1      62.526   7.214   6.255  1.00  0.00     0.213 C 
ENDBRANCH   8  10
ENDBRANCH   1   8
TORSDOF 2
ENDMDL
MODEL 7
REMARK VINA RESULT:      -3.7      1.807      2.292
REMARK  2 active torsions:
REMARK  status: ('A' for Active; 'I' for Inactive)
REMARK    1  A    between atoms: C_1  and  C_2 
REMARK    2  A    between atoms: C_2  and  O_5 
ROOT
HETATM    1  C   UNL     1      63.052   8.595   4.508  1.00  0.00     0.061 A 
HETATM    2  C   UNL     1      62.267   7.525   4.965  1.00  0.00     0.050 A 
HETATM    3 CL   UNL     1      62.673   6.535   6.325  1.00  0.00    -0.083 Cl
HETATM    4  C   UNL     1      62.647   9.283   3.349  1.00  0.00     0.019 A 
HETATM    5  C   UNL     1      61.098   7.172   4.275  1.00  0.00     0.025 A 
HETATM    6  C   UNL     1      61.482   8.927   2.668  1.00  0.00     0.001 A 
HETATM    7  C   UNL     1      60.706   7.871   3.131  1.00  0.00     0.002 A 
ENDROOT
BRANCH   1   8
HETATM    8  C   UNL     1      64.324   9.057   5.122  1.00  0.00     0.294 C 
HETATM    9  O   UNL     1      64.400  10.075   5.797  1.00  0.00    -0.259 OA
BRANCH   8  10
HETATM   10  O   UNL     1      65.331   8.178   4.913  1.00  0.00    -0.322 OA
HETATM   11  C   UNL     1      66.257   8.074   5.997  1.00  0.00     0.213 C 
ENDBRANCH   8  10
ENDBRANCH   1   8
TORSDOF 2
ENDMDL
MODEL 8
REMARK VINA RESULT:      -3.7      1.915      3.634
REMARK  2 active torsions:
REMARK  status: ('A' for Active; 'I' for Inactive)
REMARK    1  A    between atoms: C_1  and  C_2 
REMARK    2  A    between atoms: C_2  and  O_5 
ROOT
HETATM    1  C   UNL     1      63.087   8.633   3.869  1.00  0.00     0.061 A 
HETATM    2  C   UNL     1      63.511   7.501   3.156  1.00  0.00     0.050 A 
HETATM    3 CL   UNL     1      62.622   6.785   1.856  1.00  0.00    -0.083 Cl
HETATM    4  C   UNL     1      63.867   9.080   4.952  1.00  0.00     0.019 A 
HETATM    5  C   UNL     1      64.698   6.851   3.520  1.00  0.00     0.025 A 
HETATM    6  C   UNL     1      65.049   8.428   5.309  1.00  0.00     0.001 A 
HETATM    7  C   UNL     1      65.466   7.312   4.592  1.00  0.00     0.002 A 
ENDROOT
BRANCH   1   8
HETATM    8  C   UNL     1      61.840   9.400   3.612  1.00  0.00     0.294 C 
HETATM    9  O   UNL     1      60.734   8.877   3.597  1.00  0.00    -0.259 OA
BRANCH   8  10
HETATM   10  O   UNL     1      62.082  10.725   3.488  1.00  0.00    -0.322 OA
HETATM   11  C   UNL     1      61.830  11.251   2.183  1.00  0.00     0.213 C 
ENDBRANCH   8  10
ENDBRANCH   1   8
TORSDOF 2
ENDMDL
MODEL 9
REMARK VINA RESULT:      -3.6      2.012      4.758
REMARK  2 active torsions:
REMARK  status: ('A' for Active; 'I' for Inactive)
REMARK    1  A    between atoms: C_1  and  C_2 
REMARK    2  A    between atoms: C_2  and  O_5 
ROOT
HETATM    1  C   UNL     1      64.958   7.858   5.443  1.00  0.00     0.061 A 
HETATM    2  C   UNL     1      64.385   6.687   5.965  1.00  0.00     0.050 A 
HETATM    3 CL   UNL     1      62.709   6.520   6.358  1.00  0.00    -0.083 Cl
HETATM    4  C   UNL     1      66.349   7.891   5.228  1.00  0.00     0.019 A 
HETATM    5  C   UNL     1      65.196   5.578   6.246  1.00  0.00     0.025 A 
HETATM    6  C   UNL     1      67.150   6.783   5.509  1.00  0.00     0.001 A 
HETATM    7  C   UNL     1      66.573   5.625   6.018  1.00  0.00     0.002 A 
ENDROOT
BRANCH   1   8
HETATM    8  C   UNL     1      64.225   9.112   5.127  1.00  0.00     0.294 C 
HETATM    9  O   UNL     1      64.375  10.143   5.769  1.00  0.00    -0.259 OA
BRANCH   8  10
HETATM   10  O   UNL     1      63.464   8.983   4.016  1.00  0.00    -0.322 OA
HETATM   11  C   UNL     1      62.259   9.750   4.035  1.00  0.00     0.213 C 
ENDBRANCH   8  10
ENDBRANCH   1   8
TORSDOF 2
ENDMDL
