MODEL 1
REMARK VINA RESULT:      -4.7      0.000      0.000
REMARK  2 active torsions:
REMARK  status: ('A' for Active; 'I' for Inactive)
REMARK       I    between atoms: C_1  and  N_2 
REMARK    1  A    between atoms: N_2  and  C_7 
REMARK    2  A    between atoms: C_6  and  C_7 
ROOT
HETATM    1  N   UNL     1      61.774  11.370   3.151  1.00  0.00    -0.375 N 
ATOM      2  HN  UNL     1      61.490  12.311   3.422  1.00  0.00     0.164 HD
HETATM    3  C   UNL     1      62.585   9.167   3.756  1.00  0.00    -0.025 A 
HETATM    4  C   UNL     1      62.188  10.464   4.065  1.00  0.00     0.096 A 
HETATM    5  C   UNL     1      61.756  10.969   1.863  1.00  0.00     0.087 A 
HETATM    6  C   UNL     1      62.531   8.783   2.413  1.00  0.00     0.011 A 
HETATM    7  C   UNL     1      62.118   9.698   1.448  1.00  0.00     0.018 A 
ENDROOT
BRANCH   3   8
HETATM    8  C   UNL     1      63.039   8.221   4.825  1.00  0.00     0.162 C 
BRANCH   8   9
HETATM    9  N   UNL     1      64.354   7.691   4.553  1.00  0.00    -0.357 N 
HETATM   10  C   UNL     1      65.457   8.222   5.178  1.00  0.00     0.213 C 
HETATM   11  O   UNL     1      65.397   9.163   5.962  1.00  0.00    -0.274 OA
HETATM   12  C   UNL     1      66.761   7.556   4.830  1.00  0.00     0.117 C 
HETATM   13  H   UNL     1      64.462   6.947   3.918  1.00  0.00     0.162 HD
ENDBRANCH   8   9
ENDBRANCH   3   8
TORSDOF 2
ENDMDL
MODEL 2
REMARK VINA RESULT:      -4.3      1.603      1.723
REMARK  2 active torsions:
REMARK  status: ('A' for Active; 'I' for Inactive)
REMARK       I    between atoms: C_1  and  N_2 
REMARK    1  A    between atoms: N_2  and  C_7 
REMARK    2  A    between atoms: C_6  and  C_7 
ROOT
HETATM    1  N   UNL     1      61.717  11.301   2.869  1.00  0.00    -0.375 N 
ATOM      2  HN  UNL     1      61.373  12.261   2.860  1.00  0.00     0.164 HD
HETATM    3  C   UNL     1      62.588   9.395   4.088  1.00  0.00    -0.025 A 
HETATM    4  C   UNL     1      62.113  10.700   4.014  1.00  0.00     0.096 A 
HETATM    5  C   UNL     1      61.800  10.569   1.739  1.00  0.00     0.087 A 
HETATM    6  C   UNL     1      62.638   8.662   2.899  1.00  0.00     0.011 A 
HETATM    7  C   UNL     1      62.246   9.257   1.703  1.00  0.00     0.018 A 
ENDROOT
BRANCH   3   8
HETATM    8  C   UNL     1      63.015   8.800   5.395  1.00  0.00     0.162 C 
BRANCH   8   9
HETATM    9  N   UNL     1      63.120   7.362   5.324  1.00  0.00    -0.357 N 
HETATM   10  C   UNL     1      63.813   6.670   6.289  1.00  0.00     0.213 C 
HETATM   11  O   UNL     1      64.386   7.215   7.226  1.00  0.00    -0.274 OA
HETATM   12  C   UNL     1      63.816   5.176   6.113  1.00  0.00     0.117 C 
HETATM   13  H   UNL     1      62.694   6.875   4.583  1.00  0.00     0.162 HD
ENDBRANCH   8   9
ENDBRANCH   3   8
TORSDOF 2
ENDMDL
MODEL 3
REMARK VINA RESULT:      -4.2      1.613      1.944
REMARK  2 active torsions:
REMARK  status: ('A' for Active; 'I' for Inactive)
REMARK       I    between atoms: C_1  and  N_2 
REMARK    1  A    between atoms: N_2  and  C_7 
REMARK    2  A    between atoms: C_6  and  C_7 
ROOT
HETATM    1  N   UNL     1      62.534   8.439   1.681  1.00  0.00    -0.375 N 
ATOM      2  HN  UNL     1      62.691   7.644   1.062  1.00  0.00     0.164 HD
HETATM    3  C   UNL     1      62.692   9.450   3.879  1.00  0.00    -0.025 A 
HETATM    4  C   UNL     1      62.879   8.398   2.988  1.00  0.00     0.096 A 
HETATM    5  C   UNL     1      61.970   9.581   1.237  1.00  0.00     0.087 A 
HETATM    6  C   UNL     1      62.125  10.624   3.375  1.00  0.00     0.011 A 
HETATM    7  C   UNL     1      61.750  10.692   2.035  1.00  0.00     0.018 A 
ENDROOT
BRANCH   3   8
HETATM    8  C   UNL     1      63.095   9.328   5.316  1.00  0.00     0.162 C 
BRANCH   8   9
HETATM    9  N   UNL     1      64.430   8.798   5.459  1.00  0.00    -0.357 N 
HETATM   10  C   UNL     1      64.654   7.690   6.243  1.00  0.00     0.213 C 
HETATM   11  O   UNL     1      63.767   7.118   6.868  1.00  0.00    -0.274 OA
HETATM   12  C   UNL     1      66.084   7.223   6.278  1.00  0.00     0.117 C 
HETATM   13  H   UNL     1      65.182   9.229   4.995  1.00  0.00     0.162 HD
ENDBRANCH   8   9
ENDBRANCH   3   8
TORSDOF 2
ENDMDL
MODEL 4
REMARK VINA RESULT:      -4.1      1.997      4.918
REMARK  2 active torsions:
REMARK  status: ('A' for Active; 'I' for Inactive)
REMARK       I    between atoms: C_1  and  N_2 
REMARK    1  A    between atoms: N_2  and  C_7 
REMARK    2  A    between atoms: C_6  and  C_7 
ROOT
HETATM    1  N   UNL     1      64.474   6.112   6.391  1.00  0.00    -0.375 N 
ATOM      2  HN  UNL     1      64.213   5.281   6.921  1.00  0.00     0.164 HD
HETATM    3  C   UNL     1      63.898   8.277   5.466  1.00  0.00    -0.025 A 
HETATM    4  C   UNL     1      63.599   7.120   6.178  1.00  0.00     0.096 A 
HETATM    5  C   UNL     1      65.709   6.259   5.867  1.00  0.00     0.087 A 
HETATM    6  C   UNL     1      65.194   8.401   4.958  1.00  0.00     0.011 A 
HETATM    7  C   UNL     1      66.114   7.375   5.154  1.00  0.00     0.018 A 
ENDROOT
BRANCH   3   8
HETATM    8  C   UNL     1      62.871   9.350   5.265  1.00  0.00     0.162 C 
BRANCH   8   9
HETATM    9  N   UNL     1      62.571   9.554   3.867  1.00  0.00    -0.357 N 
HETATM   10  C   UNL     1      62.087  10.766   3.434  1.00  0.00     0.213 C 
HETATM   11  O   UNL     1      61.864  11.709   4.186  1.00  0.00    -0.274 OA
HETATM   12  C   UNL     1      61.849  10.855   1.951  1.00  0.00     0.117 C 
HETATM   13  H   UNL     1      62.714   8.825   3.223  1.00  0.00     0.162 HD
ENDBRANCH   8   9
ENDBRANCH   3   8
TORSDOF 2
ENDMDL
MODEL 5
REMARK VINA RESULT:      -3.9      2.881      6.480
REMARK  2 active torsions:
REMARK  status: ('A' for Active; 'I' for Inactive)
REMARK       I    between atoms: C_1  and  N_2 
REMARK    1  A    between atoms: N_2  and  C_7 
REMARK    2  A    between atoms: C_6  and  C_7 
ROOT
HETATM    1  N   UNL     1      65.667   4.654   7.850  1.00  0.00    -0.375 N 
ATOM      2  HN  UNL     1      64.809   4.190   8.145  1.00  0.00     0.164 HD
HETATM    3  C   UNL     1      66.779   6.457   6.669  1.00  0.00    -0.025 A 
HETATM    4  C   UNL     1      65.642   5.779   7.099  1.00  0.00     0.096 A 
HETATM    5  C   UNL     1      66.883   4.177   8.189  1.00  0.00     0.087 A 
HETATM    6  C   UNL     1      68.018   5.943   7.060  1.00  0.00     0.011 A 
HETATM    7  C   UNL     1      68.075   4.781   7.825  1.00  0.00     0.018 A 
ENDROOT
BRANCH   3   8
HETATM    8  C   UNL     1      66.671   7.695   5.832  1.00  0.00     0.162 C 
BRANCH   8   9
HETATM    9  N   UNL     1      65.488   7.686   5.006  1.00  0.00    -0.357 N 
HETATM   10  C   UNL     1      64.600   8.734   5.057  1.00  0.00     0.213 C 
HETATM   11  O   UNL     1      64.742   9.699   5.801  1.00  0.00    -0.274 OA
HETATM   12  C   UNL     1      63.428   8.614   4.122  1.00  0.00     0.117 C 
HETATM   13  H   UNL     1      65.315   6.927   4.404  1.00  0.00     0.162 HD
ENDBRANCH   8   9
ENDBRANCH   3   8
TORSDOF 2
ENDMDL
MODEL 6
REMARK VINA RESULT:      -3.9      3.521      6.952
REMARK  2 active torsions:
REMARK  status: ('A' for Active; 'I' for Inactive)
REMARK       I    between atoms: C_1  and  N_2 
REMARK    1  A    between atoms: N_2  and  C_7 
REMARK    2  A    between atoms: C_6  and  C_7 
ROOT
HETATM    1  N   UNL     1      66.758   3.595   8.373  1.00  0.00    -0.375 N 
ATOM      2  HN  UNL     1      66.424   2.994   9.126  1.00  0.00     0.164 HD
HETATM    3  C   UNL     1      66.980   5.799   7.389  1.00  0.00    -0.025 A 
HETATM    4  C   UNL     1      66.547   4.931   8.385  1.00  0.00     0.096 A 
HETATM    5  C   UNL     1      67.431   3.096   7.315  1.00  0.00     0.087 A 
HETATM    6  C   UNL     1      67.693   5.246   6.321  1.00  0.00     0.011 A 
HETATM    7  C   UNL     1      67.917   3.873   6.277  1.00  0.00     0.018 A 
ENDROOT
BRANCH   3   8
HETATM    8  C   UNL     1      66.702   7.269   7.469  1.00  0.00     0.162 C 
BRANCH   8   9
HETATM    9  N   UNL     1      65.511   7.633   6.739  1.00  0.00    -0.357 N 
HETATM   10  C   UNL     1      65.611   8.192   5.487  1.00  0.00     0.213 C 
HETATM   11  O   UNL     1      66.682   8.431   4.940  1.00  0.00    -0.274 OA
HETATM   12  C   UNL     1      64.294   8.493   4.824  1.00  0.00     0.117 C 
HETATM   13  H   UNL     1      64.625   7.481   7.138  1.00  0.00     0.162 HD
ENDBRANCH   8   9
ENDBRANCH   3   8
TORSDOF 2
ENDMDL
MODEL 7
REMARK VINA RESULT:      -3.8      2.046      2.451
REMARK  2 active torsions:
REMARK  status: ('A' for Active; 'I' for Inactive)
REMARK       I    between atoms: C_1  and  N_2 
REMARK    1  A    between atoms: N_2  and  C_7 
REMARK    2  A    between atoms: C_6  and  C_7 
ROOT
HETATM    1  N   UNL     1      62.244  10.233   4.589  1.00  0.00    -0.375 N 
ATOM      2  HN  UNL     1      61.763  11.076   4.901  1.00  0.00     0.164 HD
HETATM    3  C   UNL     1      64.145   8.734   4.714  1.00  0.00    -0.025 A 
HETATM    4  C   UNL     1      63.444   9.872   5.098  1.00  0.00     0.096 A 
HETATM    5  C   UNL     1      61.714   9.423   3.649  1.00  0.00     0.087 A 
HETATM    6  C   UNL     1      63.552   7.909   3.753  1.00  0.00     0.011 A 
HETATM    7  C   UNL     1      62.321   8.260   3.205  1.00  0.00     0.018 A 
ENDROOT
BRANCH   3   8
HETATM    8  C   UNL     1      65.475   8.403   5.318  1.00  0.00     0.162 C 
BRANCH   8   9
HETATM    9  N   UNL     1      65.339   7.681   6.560  1.00  0.00    -0.357 N 
HETATM   10  C   UNL     1      66.414   7.006   7.089  1.00  0.00     0.213 C 
HETATM   11  O   UNL     1      67.511   6.957   6.545  1.00  0.00    -0.274 OA
HETATM   12  C   UNL     1      66.144   6.323   8.402  1.00  0.00     0.117 C 
HETATM   13  H   UNL     1      64.475   7.671   7.030  1.00  0.00     0.162 HD
ENDBRANCH   8   9
ENDBRANCH   3   8
TORSDOF 2
ENDMDL
MODEL 8
REMARK VINA RESULT:      -3.7     12.768     14.351
REMARK  2 active torsions:
REMARK  status: ('A' for Active; 'I' for Inactive)
REMARK       I    between atoms: C_1  and  N_2 
REMARK    1  A    between atoms: N_2  and  C_7 
REMARK    2  A    between atoms: C_6  and  C_7 
ROOT
HETATM    1  N   UNL     1      58.618   2.393  12.153  1.00  0.00    -0.375 N 
ATOM      2  HN  UNL     1      58.985   2.893  11.343  1.00  0.00     0.164 HD
HETATM    3  C   UNL     1      56.748   1.775  13.565  1.00  0.00    -0.025 A 
HETATM    4  C   UNL     1      57.306   2.437  12.477  1.00  0.00     0.096 A 
HETATM    5  C   UNL     1      59.418   1.657  12.952  1.00  0.00     0.087 A 
HETATM    6  C   UNL     1      57.605   1.005  14.357  1.00  0.00     0.011 A 
HETATM    7  C   UNL     1      58.963   0.949  14.053  1.00  0.00     0.018 A 
ENDROOT
BRANCH   3   8
HETATM    8  C   UNL     1      55.283   1.876  13.866  1.00  0.00     0.162 C 
BRANCH   8   9
HETATM    9  N   UNL     1      54.947   3.133  14.491  1.00  0.00    -0.357 N 
HETATM   10  C   UNL     1      54.357   4.135  13.758  1.00  0.00     0.213 C 
HETATM   11  O   UNL     1      54.109   4.035  12.561  1.00  0.00    -0.274 OA
HETATM   12  C   UNL     1      54.030   5.379  14.539  1.00  0.00     0.117 C 
HETATM   13  H   UNL     1      55.142   3.274  15.445  1.00  0.00     0.162 HD
ENDBRANCH   8   9
ENDBRANCH   3   8
TORSDOF 2
ENDMDL
MODEL 9
REMARK VINA RESULT:      -3.7      2.639      4.105
REMARK  2 active torsions:
REMARK  status: ('A' for Active; 'I' for Inactive)
REMARK       I    between atoms: C_1  and  N_2 
REMARK    1  A    between atoms: N_2  and  C_7 
REMARK    2  A    between atoms: C_6  and  C_7 
ROOT
HETATM    1  N   UNL     1      63.859   6.289   2.278  1.00  0.00    -0.375 N 
ATOM      2  HN  UNL     1      64.504   5.762   2.867  1.00  0.00     0.164 HD
HETATM    3  C   UNL     1      62.417   8.208   1.941  1.00  0.00    -0.025 A 
HETATM    4  C   UNL     1      63.299   7.446   2.699  1.00  0.00     0.096 A 
HETATM    5  C   UNL     1      63.522   5.865   1.042  1.00  0.00     0.087 A 
HETATM    6  C   UNL     1      62.110   7.747   0.657  1.00  0.00     0.011 A 
HETATM    7  C   UNL     1      62.664   6.554   0.200  1.00  0.00     0.018 A 
ENDROOT
BRANCH   3   8
HETATM    8  C   UNL     1      61.831   9.478   2.479  1.00  0.00     0.162 C 
BRANCH   8   9
HETATM    9  N   UNL     1      62.304   9.767   3.812  1.00  0.00    -0.357 N 
HETATM   10  C   UNL     1      62.298  11.059   4.282  1.00  0.00     0.213 C 
HETATM   11  O   UNL     1      61.926  12.017   3.613  1.00  0.00    -0.274 OA
HETATM   12  C   UNL     1      62.785  11.216   5.697  1.00  0.00     0.117 C 
HETATM   13  H   UNL     1      62.632   9.038   4.385  1.00  0.00     0.162 HD
ENDBRANCH   8   9
ENDBRANCH   3   8
TORSDOF 2
ENDMDL
