MODEL 1
REMARK VINA RESULT:      -5.3      0.000      0.000
REMARK  2 active torsions:
REMARK  status: ('A' for Active; 'I' for Inactive)
REMARK    1  A    between atoms: C_1  and  C_3 
REMARK    2  A    between atoms: C_2  and  N_7 
ROOT
HETATM    1  C   UNL     1      62.445   9.959   3.544  1.00  0.00     0.067 A 
HETATM    2  C   UNL     1      61.911  10.386   2.310  1.00  0.00     0.043 A 
HETATM    3  C   UNL     1      62.921   8.644   3.682  1.00  0.00     0.021 A 
HETATM    4  C   UNL     1      61.920   9.490   1.231  1.00  0.00     0.037 A 
HETATM    5  C   UNL     1      62.884   7.757   2.604  1.00  0.00     0.008 A 
HETATM    6  C   UNL     1      62.379   8.171   1.371  1.00  0.00    -0.060 A 
HETATM    7  C   UNL     1      62.325   7.235   0.200  1.00  0.00     0.048 C 
ENDROOT
BRANCH   1   8
HETATM    8  C   UNL     1      62.449  10.882   4.714  1.00  0.00     0.211 C 
HETATM    9  O   UNL     1      61.986  12.008   4.749  1.00  0.00    -0.644 OA
HETATM   10  O   UNL     1      62.989  10.332   5.819  1.00  0.00    -0.644 OA
ENDBRANCH   1   8
BRANCH   2  11
HETATM   11  N   UNL     1      61.578  11.729   2.047  1.00  0.00    -0.398 N 
HETATM   12  H   UNL     1      60.654  11.968   1.807  1.00  0.00     0.156 HD
HETATM   13  H   UNL     1      62.269  12.427   2.103  1.00  0.00     0.156 HD
ENDBRANCH   2  11
TORSDOF 2
ENDMDL
MODEL 2
REMARK VINA RESULT:      -5.0      1.690      2.493
REMARK  2 active torsions:
REMARK  status: ('A' for Active; 'I' for Inactive)
REMARK    1  A    between atoms: C_1  and  C_3 
REMARK    2  A    between atoms: C_2  and  N_7 
ROOT
HETATM    1  C   UNL     1      62.196   9.841   2.579  1.00  0.00     0.067 A 
HETATM    2  C   UNL     1      62.845   8.949   3.457  1.00  0.00     0.043 A 
HETATM    3  C   UNL     1      61.888   9.434   1.269  1.00  0.00     0.021 A 
HETATM    4  C   UNL     1      63.120   7.649   3.007  1.00  0.00     0.037 A 
HETATM    5  C   UNL     1      62.207   8.147   0.831  1.00  0.00     0.008 A 
HETATM    6  C   UNL     1      62.829   7.245   1.695  1.00  0.00    -0.060 A 
HETATM    7  C   UNL     1      63.185   5.859   1.245  1.00  0.00     0.048 C 
ENDROOT
BRANCH   1   8
HETATM    8  C   UNL     1      61.891  11.231   3.020  1.00  0.00     0.211 C 
HETATM    9  O   UNL     1      61.712  11.605   4.165  1.00  0.00    -0.644 OA
HETATM   10  O   UNL     1      61.875  12.117   2.004  1.00  0.00    -0.644 OA
ENDBRANCH   1   8
BRANCH   2  11
HETATM   11  N   UNL     1      63.027   9.223   4.826  1.00  0.00    -0.398 N 
HETATM   12  H   UNL     1      63.858   9.651   5.135  1.00  0.00     0.156 HD
HETATM   13  H   UNL     1      62.324   8.986   5.473  1.00  0.00     0.156 HD
ENDBRANCH   2  11
TORSDOF 2
ENDMDL
MODEL 3
REMARK VINA RESULT:      -4.9      2.506      3.102
REMARK  2 active torsions:
REMARK  status: ('A' for Active; 'I' for Inactive)
REMARK    1  A    between atoms: C_1  and  C_3 
REMARK    2  A    between atoms: C_2  and  N_7 
ROOT
HETATM    1  C   UNL     1      63.842   8.387   4.852  1.00  0.00     0.067 A 
HETATM    2  C   UNL     1      63.077   9.570   4.790  1.00  0.00     0.043 A 
HETATM    3  C   UNL     1      63.829   7.488   3.771  1.00  0.00     0.021 A 
HETATM    4  C   UNL     1      62.357   9.841   3.616  1.00  0.00     0.037 A 
HETATM    5  C   UNL     1      63.074   7.760   2.628  1.00  0.00     0.008 A 
HETATM    6  C   UNL     1      62.329   8.937   2.543  1.00  0.00    -0.060 A 
HETATM    7  C   UNL     1      61.507   9.249   1.328  1.00  0.00     0.048 C 
ENDROOT
BRANCH   1   8
HETATM    8  C   UNL     1      64.616   8.064   6.083  1.00  0.00     0.211 C 
HETATM    9  O   UNL     1      64.320   7.238   6.928  1.00  0.00    -0.644 OA
HETATM   10  O   UNL     1      65.768   8.756   6.182  1.00  0.00    -0.644 OA
ENDBRANCH   1   8
BRANCH   2  11
HETATM   11  N   UNL     1      63.175  10.593   5.751  1.00  0.00    -0.398 N 
HETATM   12  H   UNL     1      63.149  10.372   6.710  1.00  0.00     0.156 HD
HETATM   13  H   UNL     1      63.269  11.530   5.465  1.00  0.00     0.156 HD
ENDBRANCH   2  11
TORSDOF 2
ENDMDL
MODEL 4
REMARK VINA RESULT:      -4.8      2.637      3.528
REMARK  2 active torsions:
REMARK  status: ('A' for Active; 'I' for Inactive)
REMARK    1  A    between atoms: C_1  and  C_3 
REMARK    2  A    between atoms: C_2  and  N_7 
ROOT
HETATM    1  C   UNL     1      62.821   8.817   4.830  1.00  0.00     0.067 A 
HETATM    2  C   UNL     1      62.561   8.456   3.492  1.00  0.00     0.043 A 
HETATM    3  C   UNL     1      62.707  10.160   5.227  1.00  0.00     0.021 A 
HETATM    4  C   UNL     1      62.141   9.454   2.599  1.00  0.00     0.037 A 
HETATM    5  C   UNL     1      62.325  11.143   4.310  1.00  0.00     0.008 A 
HETATM    6  C   UNL     1      62.043  10.798   2.988  1.00  0.00    -0.060 A 
HETATM    7  C   UNL     1      61.636  11.836   1.985  1.00  0.00     0.048 C 
ENDROOT
BRANCH   1   8
HETATM    8  C   UNL     1      63.272   7.786   5.806  1.00  0.00     0.211 C 
HETATM    9  O   UNL     1      62.791   7.567   6.903  1.00  0.00    -0.644 OA
HETATM   10  O   UNL     1      64.285   7.027   5.343  1.00  0.00    -0.644 OA
ENDBRANCH   1   8
BRANCH   2  11
HETATM   11  N   UNL     1      62.485   7.117   3.064  1.00  0.00    -0.398 N 
HETATM   12  H   UNL     1      62.721   6.882   2.138  1.00  0.00     0.156 HD
HETATM   13  H   UNL     1      62.195   6.416   3.691  1.00  0.00     0.156 HD
ENDBRANCH   2  11
TORSDOF 2
ENDMDL
MODEL 5
REMARK VINA RESULT:      -4.8      1.800      2.652
REMARK  2 active torsions:
REMARK  status: ('A' for Active; 'I' for Inactive)
REMARK    1  A    between atoms: C_1  and  C_3 
REMARK    2  A    between atoms: C_2  and  N_7 
ROOT
HETATM    1  C   UNL     1      62.389  10.106   3.324  1.00  0.00     0.067 A 
HETATM    2  C   UNL     1      63.202   9.545   4.331  1.00  0.00     0.043 A 
HETATM    3  C   UNL     1      62.032   9.337   2.203  1.00  0.00     0.021 A 
HETATM    4  C   UNL     1      63.592   8.203   4.204  1.00  0.00     0.037 A 
HETATM    5  C   UNL     1      62.465   8.015   2.080  1.00  0.00     0.008 A 
HETATM    6  C   UNL     1      63.251   7.438   3.078  1.00  0.00    -0.060 A 
HETATM    7  C   UNL     1      63.732   6.022   2.966  1.00  0.00     0.048 C 
ENDROOT
BRANCH   1   8
HETATM    8  C   UNL     1      61.958  11.529   3.422  1.00  0.00     0.211 C 
HETATM    9  O   UNL     1      61.789  12.166   4.446  1.00  0.00    -0.644 OA
HETATM   10  O   UNL     1      61.807  12.120   2.220  1.00  0.00    -0.644 OA
ENDBRANCH   1   8
BRANCH   2  11
HETATM   11  N   UNL     1      63.454  10.190   5.556  1.00  0.00    -0.398 N 
HETATM   12  H   UNL     1      64.028  10.989   5.582  1.00  0.00     0.156 HD
HETATM   13  H   UNL     1      63.056   9.842   6.386  1.00  0.00     0.156 HD
ENDBRANCH   2  11
TORSDOF 2
ENDMDL
MODEL 6
REMARK VINA RESULT:      -4.7      2.053      2.825
REMARK  2 active torsions:
REMARK  status: ('A' for Active; 'I' for Inactive)
REMARK    1  A    between atoms: C_1  and  C_3 
REMARK    2  A    between atoms: C_2  and  N_7 
ROOT
HETATM    1  C   UNL     1      62.123   9.935   3.854  1.00  0.00     0.067 A 
HETATM    2  C   UNL     1      61.398   8.907   3.216  1.00  0.00     0.043 A 
HETATM    3  C   UNL     1      62.932   9.636   4.964  1.00  0.00     0.021 A 
HETATM    4  C   UNL     1      61.549   7.593   3.684  1.00  0.00     0.037 A 
HETATM    5  C   UNL     1      63.036   8.325   5.436  1.00  0.00     0.008 A 
HETATM    6  C   UNL     1      62.342   7.294   4.802  1.00  0.00    -0.060 A 
HETATM    7  C   UNL     1      62.434   5.879   5.294  1.00  0.00     0.048 C 
ENDROOT
BRANCH   1   8
HETATM    8  C   UNL     1      61.986  11.343   3.388  1.00  0.00     0.211 C 
HETATM    9  O   UNL     1      61.972  11.726   2.232  1.00  0.00    -0.644 OA
HETATM   10  O   UNL     1      61.816  12.220   4.397  1.00  0.00    -0.644 OA
ENDBRANCH   1   8
BRANCH   2  11
HETATM   11  N   UNL     1      60.710   9.099   2.003  1.00  0.00    -0.398 N 
HETATM   12  H   UNL     1      61.214   9.220   1.166  1.00  0.00     0.156 HD
HETATM   13  H   UNL     1      59.727   9.111   1.992  1.00  0.00     0.156 HD
ENDBRANCH   2  11
TORSDOF 2
ENDMDL
MODEL 7
REMARK VINA RESULT:      -4.5      2.858      3.461
REMARK  2 active torsions:
REMARK  status: ('A' for Active; 'I' for Inactive)
REMARK    1  A    between atoms: C_1  and  C_3 
REMARK    2  A    between atoms: C_2  and  N_7 
ROOT
HETATM    1  C   UNL     1      63.911   8.483   4.657  1.00  0.00     0.067 A 
HETATM    2  C   UNL     1      63.909   7.541   3.608  1.00  0.00     0.043 A 
HETATM    3  C   UNL     1      63.077   9.612   4.586  1.00  0.00     0.021 A 
HETATM    4  C   UNL     1      63.026   7.735   2.536  1.00  0.00     0.037 A 
HETATM    5  C   UNL     1      62.233   9.804   3.489  1.00  0.00     0.008 A 
HETATM    6  C   UNL     1      62.204   8.870   2.454  1.00  0.00    -0.060 A 
HETATM    7  C   UNL     1      61.310   9.057   1.264  1.00  0.00     0.048 C 
ENDROOT
BRANCH   1   8
HETATM    8  C   UNL     1      64.839   8.313   5.811  1.00  0.00     0.211 C 
HETATM    9  O   UNL     1      65.815   8.997   6.062  1.00  0.00    -0.644 OA
HETATM   10  O   UNL     1      64.473   7.317   6.641  1.00  0.00    -0.644 OA
ENDBRANCH   1   8
BRANCH   2  11
HETATM   11  N   UNL     1      64.583   6.308   3.690  1.00  0.00    -0.398 N 
HETATM   12  H   UNL     1      65.453   6.192   3.243  1.00  0.00     0.156 HD
HETATM   13  H   UNL     1      64.184   5.562   4.192  1.00  0.00     0.156 HD
ENDBRANCH   2  11
TORSDOF 2
ENDMDL
MODEL 8
REMARK VINA RESULT:      -4.1      2.701      3.728
REMARK  2 active torsions:
REMARK  status: ('A' for Active; 'I' for Inactive)
REMARK    1  A    between atoms: C_1  and  C_3 
REMARK    2  A    between atoms: C_2  and  N_7 
ROOT
HETATM    1  C   UNL     1      62.646   8.043   3.287  1.00  0.00     0.067 A 
HETATM    2  C   UNL     1      62.474   8.302   1.911  1.00  0.00     0.043 A 
HETATM    3  C   UNL     1      62.491   9.083   4.219  1.00  0.00     0.021 A 
HETATM    4  C   UNL     1      62.101   9.595   1.515  1.00  0.00     0.037 A 
HETATM    5  C   UNL     1      62.157  10.372   3.798  1.00  0.00     0.008 A 
HETATM    6  C   UNL     1      61.963  10.639   2.442  1.00  0.00    -0.060 A 
HETATM    7  C   UNL     1      61.608  12.017   1.965  1.00  0.00     0.048 C 
ENDROOT
BRANCH   1   8
HETATM    8  C   UNL     1      63.046   6.683   3.745  1.00  0.00     0.211 C 
HETATM    9  O   UNL     1      63.934   5.993   3.276  1.00  0.00    -0.644 OA
HETATM   10  O   UNL     1      62.349   6.259   4.817  1.00  0.00    -0.644 OA
ENDBRANCH   1   8
BRANCH   2  11
HETATM   11  N   UNL     1      62.441   7.282   0.942  1.00  0.00    -0.398 N 
HETATM   12  H   UNL     1      61.888   7.389   0.134  1.00  0.00     0.156 HD
HETATM   13  H   UNL     1      62.970   6.463   1.071  1.00  0.00     0.156 HD
ENDBRANCH   2  11
TORSDOF 2
ENDMDL
MODEL 9
REMARK VINA RESULT:      -4.0      5.617      6.787
REMARK  2 active torsions:
REMARK  status: ('A' for Active; 'I' for Inactive)
REMARK    1  A    between atoms: C_1  and  C_3 
REMARK    2  A    between atoms: C_2  and  N_7 
ROOT
HETATM    1  C   UNL     1      65.816   7.117   6.191  1.00  0.00     0.067 A 
HETATM    2  C   UNL     1      67.220   6.988   6.167  1.00  0.00     0.043 A 
HETATM    3  C   UNL     1      65.036   6.153   6.853  1.00  0.00     0.021 A 
HETATM    4  C   UNL     1      67.805   5.915   6.857  1.00  0.00     0.037 A 
HETATM    5  C   UNL     1      65.639   5.072   7.500  1.00  0.00     0.008 A 
HETATM    6  C   UNL     1      67.028   4.943   7.504  1.00  0.00    -0.060 A 
HETATM    7  C   UNL     1      67.699   3.788   8.188  1.00  0.00     0.048 C 
ENDROOT
BRANCH   1   8
HETATM    8  C   UNL     1      65.158   8.240   5.467  1.00  0.00     0.211 C 
HETATM    9  O   UNL     1      65.197   9.420   5.771  1.00  0.00    -0.644 OA
HETATM   10  O   UNL     1      64.515   7.846   4.350  1.00  0.00    -0.644 OA
ENDBRANCH   1   8
BRANCH   2  11
HETATM   11  N   UNL     1      68.070   7.998   5.678  1.00  0.00    -0.398 N 
HETATM   12  H   UNL     1      68.909   7.757   5.223  1.00  0.00     0.156 HD
HETATM   13  H   UNL     1      67.827   8.944   5.793  1.00  0.00     0.156 HD
ENDBRANCH   2  11
TORSDOF 2
ENDMDL
