MODEL 1
REMARK VINA RESULT:      -5.0      0.000      0.000
REMARK  4 active torsions:
REMARK  status: ('A' for Active; 'I' for Inactive)
REMARK    1  A    between atoms: C_1  and  O_2 
REMARK    2  A    between atoms: O_2  and  C_6 
REMARK    3  A    between atoms: C_7  and  C_13 
REMARK    4  A    between atoms: O_12  and  C_13 
ROOT
HETATM    1  C   UNL     1      62.218   9.447   2.465  1.00  0.00     0.078 A 
HETATM    2  C   UNL     1      62.739  10.722   4.926  1.00  0.00    -0.035 A 
HETATM    3  C   UNL     1      61.764  10.744   2.690  1.00  0.00     0.037 A 
HETATM    4  C   UNL     1      62.881   8.772   3.496  1.00  0.00     0.037 A 
HETATM    5  C   UNL     1      62.038  11.384   3.906  1.00  0.00     0.012 A 
HETATM    6  C   UNL     1      63.146   9.402   4.715  1.00  0.00     0.012 A 
ENDROOT
BRANCH   1   7
HETATM    7  O   UNL     1      62.071   8.714   1.329  1.00  0.00    -0.255 OA
BRANCH   7   8
HETATM    8  C   UNL     1      60.897   7.939   1.134  1.00  0.00     0.530 C 
HETATM    9  F   UNL     1      60.236   7.652   2.275  1.00  0.00    -0.144 F 
HETATM   10  F   UNL     1      61.211   6.790   0.501  1.00  0.00    -0.144 F 
HETATM   11  F   UNL     1      60.056   8.641   0.340  1.00  0.00    -0.144 F 
ENDBRANCH   7   8
ENDBRANCH   1   7
BRANCH   2  12
HETATM   12  C   UNL     1      63.045  11.424   6.221  1.00  0.00     0.202 C 
BRANCH  12  13
HETATM   13  O   UNL     1      64.449  11.498   6.429  1.00  0.00    -0.396 OA
HETATM   14  H   UNL     1      64.830  10.606   6.390  1.00  0.00     0.209 HD
ENDBRANCH  12  13
ENDBRANCH   2  12
TORSDOF 4
ENDMDL
MODEL 2
REMARK VINA RESULT:      -4.8      3.745      5.037
REMARK  4 active torsions:
REMARK  status: ('A' for Active; 'I' for Inactive)
REMARK    1  A    between atoms: C_1  and  O_2 
REMARK    2  A    between atoms: O_2  and  C_6 
REMARK    3  A    between atoms: C_7  and  C_13 
REMARK    4  A    between atoms: O_12  and  C_13 
ROOT
HETATM    1  C   UNL     1      63.379   8.429   5.046  1.00  0.00     0.078 A 
HETATM    2  C   UNL     1      62.260   9.937   2.942  1.00  0.00    -0.035 A 
HETATM    3  C   UNL     1      63.170   7.843   3.800  1.00  0.00     0.037 A 
HETATM    4  C   UNL     1      62.972   9.753   5.250  1.00  0.00     0.037 A 
HETATM    5  C   UNL     1      62.630   8.597   2.750  1.00  0.00     0.012 A 
HETATM    6  C   UNL     1      62.422  10.505   4.208  1.00  0.00     0.012 A 
ENDROOT
BRANCH   1   7
HETATM    7  O   UNL     1      63.931   7.845   6.143  1.00  0.00    -0.255 OA
BRANCH   7   8
HETATM    8  C   UNL     1      65.279   7.403   6.106  1.00  0.00     0.530 C 
HETATM    9  F   UNL     1      65.456   6.240   5.443  1.00  0.00    -0.144 F 
HETATM   10  F   UNL     1      65.751   7.274   7.363  1.00  0.00    -0.144 F 
HETATM   11  F   UNL     1      66.016   8.347   5.476  1.00  0.00    -0.144 F 
ENDBRANCH   7   8
ENDBRANCH   1   7
BRANCH   2  12
HETATM   12  C   UNL     1      61.698  10.744   1.803  1.00  0.00     0.202 C 
BRANCH  12  13
HETATM   13  O   UNL     1      62.082  12.108   1.921  1.00  0.00    -0.396 OA
HETATM   14  H   UNL     1      61.906  12.567   1.084  1.00  0.00     0.209 HD
ENDBRANCH  12  13
ENDBRANCH   2  12
TORSDOF 4
ENDMDL
MODEL 3
REMARK VINA RESULT:      -4.8      3.726      4.937
REMARK  4 active torsions:
REMARK  status: ('A' for Active; 'I' for Inactive)
REMARK    1  A    between atoms: C_1  and  O_2 
REMARK    2  A    between atoms: O_2  and  C_6 
REMARK    3  A    between atoms: C_7  and  C_13 
REMARK    4  A    between atoms: O_12  and  C_13 
ROOT
HETATM    1  C   UNL     1      63.342   8.622   5.211  1.00  0.00     0.078 A 
HETATM    2  C   UNL     1      62.250  10.045   3.036  1.00  0.00    -0.035 A 
HETATM    3  C   UNL     1      62.965   9.953   5.366  1.00  0.00     0.037 A 
HETATM    4  C   UNL     1      63.223   8.025   3.951  1.00  0.00     0.037 A 
HETATM    5  C   UNL     1      62.407  10.656   4.289  1.00  0.00     0.012 A 
HETATM    6  C   UNL     1      62.678   8.725   2.872  1.00  0.00     0.012 A 
ENDROOT
BRANCH   1   7
HETATM    7  O   UNL     1      63.853   7.800   6.167  1.00  0.00    -0.255 OA
BRANCH   7   8
HETATM    8  C   UNL     1      65.228   7.448   6.135  1.00  0.00     0.530 C 
HETATM    9  F   UNL     1      65.501   6.383   5.352  1.00  0.00    -0.144 F 
HETATM   10  F   UNL     1      65.664   7.203   7.387  1.00  0.00    -0.144 F 
HETATM   11  F   UNL     1      65.922   8.502   5.646  1.00  0.00    -0.144 F 
ENDBRANCH   7   8
ENDBRANCH   1   7
BRANCH   2  12
HETATM   12  C   UNL     1      61.631  10.801   1.890  1.00  0.00     0.202 C 
BRANCH  12  13
HETATM   13  O   UNL     1      62.101  12.142   1.866  1.00  0.00    -0.396 OA
HETATM   14  H   UNL     1      61.464  12.699   1.392  1.00  0.00     0.209 HD
ENDBRANCH  12  13
ENDBRANCH   2  12
TORSDOF 4
ENDMDL
MODEL 4
REMARK VINA RESULT:      -4.6      2.105      2.869
REMARK  4 active torsions:
REMARK  status: ('A' for Active; 'I' for Inactive)
REMARK    1  A    between atoms: C_1  and  O_2 
REMARK    2  A    between atoms: O_2  and  C_6 
REMARK    3  A    between atoms: C_7  and  C_13 
REMARK    4  A    between atoms: O_12  and  C_13 
ROOT
HETATM    1  C   UNL     1      62.650   8.278   3.261  1.00  0.00     0.078 A 
HETATM    2  C   UNL     1      64.999   7.996   4.796  1.00  0.00    -0.035 A 
HETATM    3  C   UNL     1      62.930   9.182   4.282  1.00  0.00     0.037 A 
HETATM    4  C   UNL     1      63.519   7.202   3.051  1.00  0.00     0.037 A 
HETATM    5  C   UNL     1      64.106   9.052   5.035  1.00  0.00     0.012 A 
HETATM    6  C   UNL     1      64.686   7.061   3.806  1.00  0.00     0.012 A 
ENDROOT
BRANCH   1   7
HETATM    7  O   UNL     1      61.580   8.298   2.422  1.00  0.00    -0.255 OA
BRANCH   7   8
HETATM    8  C   UNL     1      61.591   9.143   1.282  1.00  0.00     0.530 C 
HETATM    9  F   UNL     1      62.681   8.994   0.500  1.00  0.00    -0.144 F 
HETATM   10  F   UNL     1      61.496  10.432   1.670  1.00  0.00    -0.144 F 
HETATM   11  F   UNL     1      60.506   8.849   0.528  1.00  0.00    -0.144 F 
ENDBRANCH   7   8
ENDBRANCH   1   7
BRANCH   2  12
HETATM   12  C   UNL     1      66.268   7.875   5.595  1.00  0.00     0.202 C 
BRANCH  12  13
HETATM   13  O   UNL     1      66.337   8.897   6.581  1.00  0.00    -0.396 OA
HETATM   14  H   UNL     1      65.772   9.640   6.316  1.00  0.00     0.209 HD
ENDBRANCH  12  13
ENDBRANCH   2  12
TORSDOF 4
ENDMDL
MODEL 5
REMARK VINA RESULT:      -4.4      4.530      5.545
REMARK  4 active torsions:
REMARK  status: ('A' for Active; 'I' for Inactive)
REMARK    1  A    between atoms: C_1  and  O_2 
REMARK    2  A    between atoms: O_2  and  C_6 
REMARK    3  A    between atoms: C_7  and  C_13 
REMARK    4  A    between atoms: O_12  and  C_13 
ROOT
HETATM    1  C   UNL     1      64.896   7.532   4.725  1.00  0.00     0.078 A 
HETATM    2  C   UNL     1      62.765   8.901   3.484  1.00  0.00    -0.035 A 
HETATM    3  C   UNL     1      64.454   8.748   5.238  1.00  0.00     0.037 A 
HETATM    4  C   UNL     1      64.307   7.034   3.557  1.00  0.00     0.037 A 
HETATM    5  C   UNL     1      63.383   9.421   4.632  1.00  0.00     0.012 A 
HETATM    6  C   UNL     1      63.248   7.707   2.942  1.00  0.00     0.012 A 
ENDROOT
BRANCH   1   7
HETATM    7  O   UNL     1      65.886   6.745   5.224  1.00  0.00    -0.255 OA
BRANCH   7   8
HETATM    8  C   UNL     1      67.231   7.198   5.197  1.00  0.00     0.530 C 
HETATM    9  F   UNL     1      67.548   7.906   4.092  1.00  0.00    -0.144 F 
HETATM   10  F   UNL     1      68.068   6.146   5.305  1.00  0.00    -0.144 F 
HETATM   11  F   UNL     1      67.427   8.003   6.267  1.00  0.00    -0.144 F 
ENDBRANCH   7   8
ENDBRANCH   1   7
BRANCH   2  12
HETATM   12  C   UNL     1      61.604   9.619   2.851  1.00  0.00     0.202 C 
BRANCH  12  13
HETATM   13  O   UNL     1      61.276  10.787   3.592  1.00  0.00    -0.396 OA
HETATM   14  H   UNL     1      60.764  11.392   3.032  1.00  0.00     0.209 HD
ENDBRANCH  12  13
ENDBRANCH   2  12
TORSDOF 4
ENDMDL
MODEL 6
REMARK VINA RESULT:      -4.0     13.016     13.843
REMARK  4 active torsions:
REMARK  status: ('A' for Active; 'I' for Inactive)
REMARK    1  A    between atoms: C_1  and  O_2 
REMARK    2  A    between atoms: O_2  and  C_6 
REMARK    3  A    between atoms: C_7  and  C_13 
REMARK    4  A    between atoms: O_12  and  C_13 
ROOT
HETATM    1  C   UNL     1      59.355   1.311  13.034  1.00  0.00     0.078 A 
HETATM    2  C   UNL     1      56.672   2.068  13.454  1.00  0.00    -0.035 A 
HETATM    3  C   UNL     1      58.714   2.146  12.123  1.00  0.00     0.037 A 
HETATM    4  C   UNL     1      58.632   0.811  14.123  1.00  0.00     0.037 A 
HETATM    5  C   UNL     1      57.385   2.535  12.340  1.00  0.00     0.012 A 
HETATM    6  C   UNL     1      57.303   1.188  14.337  1.00  0.00     0.012 A 
ENDROOT
BRANCH   1   7
HETATM    7  O   UNL     1      60.646   0.884  12.985  1.00  0.00    -0.255 OA
BRANCH   7   8
HETATM    8  C   UNL     1      60.977  -0.278  12.240  1.00  0.00     0.530 C 
HETATM    9  F   UNL     1      59.906  -0.982  11.818  1.00  0.00    -0.144 F 
HETATM   10  F   UNL     1      61.772  -1.080  12.979  1.00  0.00    -0.144 F 
HETATM   11  F   UNL     1      61.671   0.107  11.144  1.00  0.00    -0.144 F 
ENDBRANCH   7   8
ENDBRANCH   1   7
BRANCH   2  12
HETATM   12  C   UNL     1      55.251   2.507  13.690  1.00  0.00     0.202 C 
BRANCH  12  13
HETATM   13  O   UNL     1      55.149   3.233  14.907  1.00  0.00    -0.396 OA
HETATM   14  H   UNL     1      55.675   4.047  14.844  1.00  0.00     0.209 HD
ENDBRANCH  12  13
ENDBRANCH   2  12
TORSDOF 4
ENDMDL
MODEL 7
REMARK VINA RESULT:      -4.0      3.328      5.115
REMARK  4 active torsions:
REMARK  status: ('A' for Active; 'I' for Inactive)
REMARK    1  A    between atoms: C_1  and  O_2 
REMARK    2  A    between atoms: O_2  and  C_6 
REMARK    3  A    between atoms: C_7  and  C_13 
REMARK    4  A    between atoms: O_12  and  C_13 
ROOT
HETATM    1  C   UNL     1      63.094   8.128   3.024  1.00  0.00     0.078 A 
HETATM    2  C   UNL     1      60.875   8.024   1.287  1.00  0.00    -0.035 A 
HETATM    3  C   UNL     1      62.483   9.305   2.600  1.00  0.00     0.037 A 
HETATM    4  C   UNL     1      62.627   6.904   2.530  1.00  0.00     0.037 A 
HETATM    5  C   UNL     1      61.370   9.253   1.750  1.00  0.00     0.012 A 
HETATM    6  C   UNL     1      61.525   6.849   1.673  1.00  0.00     0.012 A 
ENDROOT
BRANCH   1   7
HETATM    7  O   UNL     1      64.147   8.014   3.877  1.00  0.00    -0.255 OA
BRANCH   7   8
HETATM    8  C   UNL     1      64.003   8.401   5.235  1.00  0.00     0.530 C 
HETATM    9  F   UNL     1      64.867   7.790   6.073  1.00  0.00    -0.144 F 
HETATM   10  F   UNL     1      62.741   8.158   5.646  1.00  0.00    -0.144 F 
HETATM   11  F   UNL     1      64.224   9.733   5.320  1.00  0.00    -0.144 F 
ENDBRANCH   7   8
ENDBRANCH   1   7
BRANCH   2  12
HETATM   12  C   UNL     1      59.668   7.977   0.389  1.00  0.00     0.202 C 
BRANCH  12  13
HETATM   13  O   UNL     1      58.526   8.491   1.062  1.00  0.00    -0.396 OA
HETATM   14  H   UNL     1      57.777   7.887   0.936  1.00  0.00     0.209 HD
ENDBRANCH  12  13
ENDBRANCH   2  12
TORSDOF 4
ENDMDL
MODEL 8
REMARK VINA RESULT:      -3.9      4.240      5.821
REMARK  4 active torsions:
REMARK  status: ('A' for Active; 'I' for Inactive)
REMARK    1  A    between atoms: C_1  and  O_2 
REMARK    2  A    between atoms: O_2  and  C_6 
REMARK    3  A    between atoms: C_7  and  C_13 
REMARK    4  A    between atoms: O_12  and  C_13 
ROOT
HETATM    1  C   UNL     1      63.413   7.640   5.860  1.00  0.00     0.078 A 
HETATM    2  C   UNL     1      61.848   8.020   3.545  1.00  0.00    -0.035 A 
HETATM    3  C   UNL     1      63.736   8.649   4.956  1.00  0.00     0.037 A 
HETATM    4  C   UNL     1      62.342   6.788   5.571  1.00  0.00     0.037 A 
HETATM    5  C   UNL     1      62.948   8.849   3.814  1.00  0.00     0.012 A 
HETATM    6  C   UNL     1      61.561   6.976   4.427  1.00  0.00     0.012 A 
ENDROOT
BRANCH   1   7
HETATM    7  O   UNL     1      64.050   7.352   7.026  1.00  0.00    -0.255 OA
BRANCH   7   8
HETATM    8  C   UNL     1      65.368   6.827   7.001  1.00  0.00     0.530 C 
HETATM    9  F   UNL     1      65.618   6.027   5.943  1.00  0.00    -0.144 F 
HETATM   10  F   UNL     1      65.608   6.145   8.140  1.00  0.00    -0.144 F 
HETATM   11  F   UNL     1      66.235   7.865   6.942  1.00  0.00    -0.144 F 
ENDBRANCH   7   8
ENDBRANCH   1   7
BRANCH   2  12
HETATM   12  C   UNL     1      60.996   8.254   2.326  1.00  0.00     0.202 C 
BRANCH  12  13
HETATM   13  O   UNL     1      59.620   8.283   2.678  1.00  0.00    -0.396 OA
HETATM   14  H   UNL     1      59.354   9.196   2.869  1.00  0.00     0.209 HD
ENDBRANCH  12  13
ENDBRANCH   2  12
TORSDOF 4
ENDMDL
MODEL 9
REMARK VINA RESULT:      -3.9      3.416      4.278
REMARK  4 active torsions:
REMARK  status: ('A' for Active; 'I' for Inactive)
REMARK    1  A    between atoms: C_1  and  O_2 
REMARK    2  A    between atoms: O_2  and  C_6 
REMARK    3  A    between atoms: C_7  and  C_13 
REMARK    4  A    between atoms: O_12  and  C_13 
ROOT
HETATM    1  C   UNL     1      62.183   7.163   4.897  1.00  0.00     0.078 A 
HETATM    2  C   UNL     1      62.035   9.807   3.928  1.00  0.00    -0.035 A 
HETATM    3  C   UNL     1      63.114   8.112   5.311  1.00  0.00     0.037 A 
HETATM    4  C   UNL     1      61.216   7.528   3.954  1.00  0.00     0.037 A 
HETATM    5  C   UNL     1      63.031   9.430   4.843  1.00  0.00     0.012 A 
HETATM    6  C   UNL     1      61.136   8.838   3.475  1.00  0.00     0.012 A 
ENDROOT
BRANCH   1   7
HETATM    7  O   UNL     1      62.107   5.864   5.294  1.00  0.00    -0.255 OA
BRANCH   7   8
HETATM    8  C   UNL     1      61.221   5.495   6.340  1.00  0.00     0.530 C 
HETATM    9  F   UNL     1      60.889   6.514   7.160  1.00  0.00    -0.144 F 
HETATM   10  F   UNL     1      61.767   4.499   7.068  1.00  0.00    -0.144 F 
HETATM   11  F   UNL     1      60.079   5.032   5.782  1.00  0.00    -0.144 F 
ENDBRANCH   7   8
ENDBRANCH   1   7
BRANCH   2  12
HETATM   12  C   UNL     1      61.941  11.230   3.446  1.00  0.00     0.202 C 
BRANCH  12  13
HETATM   13  O   UNL     1      62.029  12.134   4.538  1.00  0.00    -0.396 OA
HETATM   14  H   UNL     1      62.897  12.045   4.963  1.00  0.00     0.209 HD
ENDBRANCH  12  13
ENDBRANCH   2  12
TORSDOF 4
ENDMDL
