MODEL 1
REMARK VINA RESULT:      -5.1      0.000      0.000
REMARK  2 active torsions:
REMARK  status: ('A' for Active; 'I' for Inactive)
REMARK    1  A    between atoms: C_1  and  O_3 
REMARK    2  A    between atoms: O_3  and  C_6 
ROOT
HETATM    1  N   UNL     1      61.895  11.763   4.042  1.00  0.00    -0.191 NA
HETATM    2  C   UNL     1      62.071  10.792   3.435  1.00  0.00     0.102 C 
HETATM    3  C   UNL     1      62.294   9.592   2.679  1.00  0.00     0.078 A 
HETATM    4  C   UNL     1      62.668   8.380   3.278  1.00  0.00     0.099 A 
HETATM    5  C   UNL     1      62.045   9.637   1.298  1.00  0.00     0.025 A 
HETATM    6  C   UNL     1      62.709   7.217   2.496  1.00  0.00     0.039 A 
HETATM    7  C   UNL     1      62.119   8.480   0.523  1.00  0.00     0.002 A 
HETATM    8  C   UNL     1      62.430   7.266   1.128  1.00  0.00     0.003 A 
ENDROOT
BRANCH   4   9
HETATM    9  O   UNL     1      62.875   8.183   4.613  1.00  0.00    -0.254 OA
BRANCH   9  10
HETATM   10  C   UNL     1      64.212   8.311   5.099  1.00  0.00     0.530 C 
HETATM   11  F   UNL     1      65.147   7.880   4.227  1.00  0.00    -0.144 F 
HETATM   12  F   UNL     1      64.338   7.591   6.235  1.00  0.00    -0.144 F 
HETATM   13  F   UNL     1      64.442   9.607   5.392  1.00  0.00    -0.144 F 
ENDBRANCH   9  10
ENDBRANCH   4   9
TORSDOF 2
ENDMDL
MODEL 2
REMARK VINA RESULT:      -4.9      1.329      2.074
REMARK  2 active torsions:
REMARK  status: ('A' for Active; 'I' for Inactive)
REMARK    1  A    between atoms: C_1  and  O_3 
REMARK    2  A    between atoms: O_3  and  C_6 
ROOT
HETATM    1  N   UNL     1      63.091  11.300   6.492  1.00  0.00    -0.191 NA
HETATM    2  C   UNL     1      62.855  10.886   5.435  1.00  0.00     0.102 C 
HETATM    3  C   UNL     1      62.567  10.379   4.124  1.00  0.00     0.078 A 
HETATM    4  C   UNL     1      62.697   9.021   3.793  1.00  0.00     0.099 A 
HETATM    5  C   UNL     1      62.062  11.281   3.173  1.00  0.00     0.025 A 
HETATM    6  C   UNL     1      62.244   8.578   2.542  1.00  0.00     0.039 A 
HETATM    7  C   UNL     1      61.643  10.833   1.920  1.00  0.00     0.002 A 
HETATM    8  C   UNL     1      61.715   9.478   1.615  1.00  0.00     0.003 A 
ENDROOT
BRANCH   4   9
HETATM    9  O   UNL     1      63.110   8.032   4.639  1.00  0.00    -0.254 OA
BRANCH   9  10
HETATM   10  C   UNL     1      64.493   7.680   4.615  1.00  0.00     0.530 C 
HETATM   11  F   UNL     1      64.852   6.833   5.602  1.00  0.00    -0.144 F 
HETATM   12  F   UNL     1      65.235   8.802   4.738  1.00  0.00    -0.144 F 
HETATM   13  F   UNL     1      64.774   7.116   3.422  1.00  0.00    -0.144 F 
ENDBRANCH   9  10
ENDBRANCH   4   9
TORSDOF 2
ENDMDL
MODEL 3
REMARK VINA RESULT:      -4.8      1.810      2.893
REMARK  2 active torsions:
REMARK  status: ('A' for Active; 'I' for Inactive)
REMARK    1  A    between atoms: C_1  and  O_3 
REMARK    2  A    between atoms: O_3  and  C_6 
ROOT
HETATM    1  N   UNL     1      62.783   6.689   1.173  1.00  0.00    -0.191 NA
HETATM    2  C   UNL     1      62.551   7.693   1.703  1.00  0.00     0.102 C 
HETATM    3  C   UNL     1      62.256   8.937   2.355  1.00  0.00     0.078 A 
HETATM    4  C   UNL     1      62.331   9.097   3.747  1.00  0.00     0.099 A 
HETATM    5  C   UNL     1      61.963  10.044   1.543  1.00  0.00     0.025 A 
HETATM    6  C   UNL     1      62.187  10.380   4.295  1.00  0.00     0.039 A 
HETATM    7  C   UNL     1      61.790  11.311   2.101  1.00  0.00     0.002 A 
HETATM    8  C   UNL     1      61.924  11.480   3.476  1.00  0.00     0.003 A 
ENDROOT
BRANCH   4   9
HETATM    9  O   UNL     1      62.671   8.124   4.642  1.00  0.00    -0.254 OA
BRANCH   9  10
HETATM   10  C   UNL     1      64.057   7.961   4.943  1.00  0.00     0.530 C 
HETATM   11  F   UNL     1      64.782   9.086   4.777  1.00  0.00    -0.144 F 
HETATM   12  F   UNL     1      64.574   7.009   4.136  1.00  0.00    -0.144 F 
HETATM   13  F   UNL     1      64.175   7.542   6.220  1.00  0.00    -0.144 F 
ENDBRANCH   9  10
ENDBRANCH   4   9
TORSDOF 2
ENDMDL
MODEL 4
REMARK VINA RESULT:      -4.6      2.690      3.785
REMARK  2 active torsions:
REMARK  status: ('A' for Active; 'I' for Inactive)
REMARK    1  A    between atoms: C_1  and  O_3 
REMARK    2  A    between atoms: O_3  and  C_6 
ROOT
HETATM    1  N   UNL     1      61.728  11.324   4.197  1.00  0.00    -0.191 NA
HETATM    2  C   UNL     1      62.325  10.332   4.137  1.00  0.00     0.102 C 
HETATM    3  C   UNL     1      63.062   9.102   4.070  1.00  0.00     0.078 A 
HETATM    4  C   UNL     1      62.716   8.060   3.196  1.00  0.00     0.099 A 
HETATM    5  C   UNL     1      64.218   8.993   4.860  1.00  0.00     0.025 A 
HETATM    6  C   UNL     1      63.578   6.960   3.073  1.00  0.00     0.039 A 
HETATM    7  C   UNL     1      65.051   7.879   4.752  1.00  0.00     0.002 A 
HETATM    8  C   UNL     1      64.740   6.874   3.842  1.00  0.00     0.003 A 
ENDROOT
BRANCH   4   9
HETATM    9  O   UNL     1      61.662   8.066   2.329  1.00  0.00    -0.254 OA
BRANCH   9  10
HETATM   10  C   UNL     1      61.925   8.436   0.975  1.00  0.00     0.530 C 
HETATM   11  F   UNL     1      60.816   8.522   0.213  1.00  0.00    -0.144 F 
HETATM   12  F   UNL     1      62.743   7.516   0.419  1.00  0.00    -0.144 F 
HETATM   13  F   UNL     1      62.561   9.625   0.969  1.00  0.00    -0.144 F 
ENDBRANCH   9  10
ENDBRANCH   4   9
TORSDOF 2
ENDMDL
MODEL 5
REMARK VINA RESULT:      -4.5      2.643      3.720
REMARK  2 active torsions:
REMARK  status: ('A' for Active; 'I' for Inactive)
REMARK    1  A    between atoms: C_1  and  O_3 
REMARK    2  A    between atoms: O_3  and  C_6 
ROOT
HETATM    1  N   UNL     1      62.995  11.042   5.725  1.00  0.00    -0.191 NA
HETATM    2  C   UNL     1      63.272  10.045   5.203  1.00  0.00     0.102 C 
HETATM    3  C   UNL     1      63.615   8.806   4.566  1.00  0.00     0.078 A 
HETATM    4  C   UNL     1      62.822   8.227   3.563  1.00  0.00     0.099 A 
HETATM    5  C   UNL     1      64.836   8.209   4.918  1.00  0.00     0.025 A 
HETATM    6  C   UNL     1      63.305   7.104   2.876  1.00  0.00     0.039 A 
HETATM    7  C   UNL     1      65.292   7.073   4.248  1.00  0.00     0.002 A 
HETATM    8  C   UNL     1      64.535   6.535   3.213  1.00  0.00     0.003 A 
ENDROOT
BRANCH   4   9
HETATM    9  O   UNL     1      61.651   8.738   3.080  1.00  0.00    -0.254 OA
BRANCH   9  10
HETATM   10  C   UNL     1      61.713   9.503   1.876  1.00  0.00     0.530 C 
HETATM   11  F   UNL     1      62.792   9.225   1.115  1.00  0.00    -0.144 F 
HETATM   12  F   UNL     1      61.750  10.816   2.190  1.00  0.00    -0.144 F 
HETATM   13  F   UNL     1      60.594   9.271   1.160  1.00  0.00    -0.144 F 
ENDBRANCH   9  10
ENDBRANCH   4   9
TORSDOF 2
ENDMDL
MODEL 6
REMARK VINA RESULT:      -4.5      2.759      3.683
REMARK  2 active torsions:
REMARK  status: ('A' for Active; 'I' for Inactive)
REMARK    1  A    between atoms: C_1  and  O_3 
REMARK    2  A    between atoms: O_3  and  C_6 
ROOT
HETATM    1  N   UNL     1      63.040   7.871   6.456  1.00  0.00    -0.191 NA
HETATM    2  C   UNL     1      62.844   8.467   5.482  1.00  0.00     0.102 C 
HETATM    3  C   UNL     1      62.607   9.211   4.277  1.00  0.00     0.078 A 
HETATM    4  C   UNL     1      62.614   8.615   3.007  1.00  0.00     0.099 A 
HETATM    5  C   UNL     1      62.278  10.570   4.405  1.00  0.00     0.025 A 
HETATM    6  C   UNL     1      62.216   9.372   1.896  1.00  0.00     0.039 A 
HETATM    7  C   UNL     1      61.913  11.322   3.289  1.00  0.00     0.002 A 
HETATM    8  C   UNL     1      61.861  10.716   2.038  1.00  0.00     0.003 A 
ENDROOT
BRANCH   4   9
HETATM    9  O   UNL     1      62.850   7.295   2.749  1.00  0.00    -0.254 OA
BRANCH   9  10
HETATM   10  C   UNL     1      61.731   6.409   2.773  1.00  0.00     0.530 C 
HETATM   11  F   UNL     1      60.597   6.983   3.225  1.00  0.00    -0.144 F 
HETATM   12  F   UNL     1      62.016   5.360   3.575  1.00  0.00    -0.144 F 
HETATM   13  F   UNL     1      61.525   5.942   1.524  1.00  0.00    -0.144 F 
ENDBRANCH   9  10
ENDBRANCH   4   9
TORSDOF 2
ENDMDL
MODEL 7
REMARK VINA RESULT:      -4.4      3.174      4.578
REMARK  2 active torsions:
REMARK  status: ('A' for Active; 'I' for Inactive)
REMARK    1  A    between atoms: C_1  and  O_3 
REMARK    2  A    between atoms: O_3  and  C_6 
ROOT
HETATM    1  N   UNL     1      63.642   5.995   4.170  1.00  0.00    -0.191 NA
HETATM    2  C   UNL     1      63.377   7.122   4.198  1.00  0.00     0.102 C 
HETATM    3  C   UNL     1      63.057   8.521   4.231  1.00  0.00     0.078 A 
HETATM    4  C   UNL     1      62.118   9.103   3.366  1.00  0.00     0.099 A 
HETATM    5  C   UNL     1      63.659   9.303   5.230  1.00  0.00     0.025 A 
HETATM    6  C   UNL     1      61.741  10.439   3.567  1.00  0.00     0.039 A 
HETATM    7  C   UNL     1      63.299  10.640   5.401  1.00  0.00     0.002 A 
HETATM    8  C   UNL     1      62.324  11.200   4.582  1.00  0.00     0.003 A 
ENDROOT
BRANCH   4   9
HETATM    9  O   UNL     1      61.413   8.445   2.399  1.00  0.00    -0.254 OA
BRANCH   9  10
HETATM   10  C   UNL     1      61.903   8.519   1.060  1.00  0.00     0.530 C 
HETATM   11  F   UNL     1      62.444   9.715   0.749  1.00  0.00    -0.144 F 
HETATM   12  F   UNL     1      60.884   8.286   0.205  1.00  0.00    -0.144 F 
HETATM   13  F   UNL     1      62.830   7.554   0.887  1.00  0.00    -0.144 F 
ENDBRANCH   9  10
ENDBRANCH   4   9
TORSDOF 2
ENDMDL
MODEL 8
REMARK VINA RESULT:      -4.4      2.414      3.402
REMARK  2 active torsions:
REMARK  status: ('A' for Active; 'I' for Inactive)
REMARK    1  A    between atoms: C_1  and  O_3 
REMARK    2  A    between atoms: O_3  and  C_6 
ROOT
HETATM    1  N   UNL     1      63.853   6.218   2.235  1.00  0.00    -0.191 NA
HETATM    2  C   UNL     1      63.531   7.180   2.795  1.00  0.00     0.102 C 
HETATM    3  C   UNL     1      63.123   8.369   3.488  1.00  0.00     0.078 A 
HETATM    4  C   UNL     1      63.638   8.726   4.744  1.00  0.00     0.099 A 
HETATM    5  C   UNL     1      62.235   9.235   2.829  1.00  0.00     0.025 A 
HETATM    6  C   UNL     1      63.314   9.980   5.282  1.00  0.00     0.039 A 
HETATM    7  C   UNL     1      61.895  10.467   3.388  1.00  0.00     0.002 A 
HETATM    8  C   UNL     1      62.453  10.847   4.605  1.00  0.00     0.003 A 
ENDROOT
BRANCH   4   9
HETATM    9  O   UNL     1      64.555   8.012   5.459  1.00  0.00    -0.254 OA
BRANCH   9  10
HETATM   10  C   UNL     1      64.067   6.963   6.296  1.00  0.00     0.530 C 
HETATM   11  F   UNL     1      62.758   7.080   6.600  1.00  0.00    -0.144 F 
HETATM   12  F   UNL     1      64.765   6.961   7.452  1.00  0.00    -0.144 F 
HETATM   13  F   UNL     1      64.275   5.784   5.675  1.00  0.00    -0.144 F 
ENDBRANCH   9  10
ENDBRANCH   4   9
TORSDOF 2
ENDMDL
MODEL 9
REMARK VINA RESULT:      -4.2      2.721      3.543
REMARK  2 active torsions:
REMARK  status: ('A' for Active; 'I' for Inactive)
REMARK    1  A    between atoms: C_1  and  O_3 
REMARK    2  A    between atoms: O_3  and  C_6 
ROOT
HETATM    1  N   UNL     1      62.735   7.447   6.962  1.00  0.00    -0.191 NA
HETATM    2  C   UNL     1      62.653   7.307   5.815  1.00  0.00     0.102 C 
HETATM    3  C   UNL     1      62.543   7.131   4.395  1.00  0.00     0.078 A 
HETATM    4  C   UNL     1      62.767   8.175   3.484  1.00  0.00     0.099 A 
HETATM    5  C   UNL     1      62.279   5.838   3.918  1.00  0.00     0.025 A 
HETATM    6  C   UNL     1      62.800   7.887   2.112  1.00  0.00     0.039 A 
HETATM    7  C   UNL     1      62.284   5.569   2.549  1.00  0.00     0.002 A 
HETATM    8  C   UNL     1      62.566   6.591   1.648  1.00  0.00     0.003 A 
ENDROOT
BRANCH   4   9
HETATM    9  O   UNL     1      63.098   9.459   3.811  1.00  0.00    -0.254 OA
BRANCH   9  10
HETATM   10  C   UNL     1      62.092  10.459   3.652  1.00  0.00     0.530 C 
HETATM   11  F   UNL     1      62.105  11.050   2.440  1.00  0.00    -0.144 F 
HETATM   12  F   UNL     1      62.274  11.419   4.586  1.00  0.00    -0.144 F 
HETATM   13  F   UNL     1      60.885   9.893   3.857  1.00  0.00    -0.144 F 
ENDBRANCH   9  10
ENDBRANCH   4   9
TORSDOF 2
ENDMDL
