MODEL 1
REMARK VINA RESULT:      -4.7      0.000      0.000
REMARK  4 active torsions:
REMARK  status: ('A' for Active; 'I' for Inactive)
REMARK    1  A    between atoms: C_1  and  C_8 
REMARK    2  A    between atoms: C_2  and  O_9 
REMARK    3  A    between atoms: C_5  and  O_10 
REMARK    4  A    between atoms: N_7  and  C_8 
ROOT
HETATM    1  C   UNL     1      63.333   9.602   4.775  1.00  0.00     0.003 A 
HETATM    2  C   UNL     1      64.459   8.843   5.128  1.00  0.00     0.076 A 
HETATM    3  C   UNL     1      62.544   9.150   3.684  1.00  0.00     0.048 A 
HETATM    4  C   UNL     1      64.734   7.666   4.403  1.00  0.00     0.040 A 
HETATM    5  C   UNL     1      62.823   7.975   2.981  1.00  0.00     0.069 A 
HETATM    6  C   UNL     1      63.932   7.231   3.346  1.00  0.00     0.039 A 
ENDROOT
BRANCH   1   7
HETATM    7  C   UNL     1      62.865  10.886   5.412  1.00  0.00     0.271 C 
BRANCH   7   8
HETATM    8  N   UNL     1      63.858  11.433   6.328  1.00  0.00    -0.075 N 
HETATM    9  H   UNL     1      63.743  12.445   6.389  1.00  0.00     0.274 HD
HETATM   10  H   UNL     1      64.793  11.217   5.986  1.00  0.00     0.274 HD
HETATM   11  H   UNL     1      63.730  11.022   7.253  1.00  0.00     0.274 HD
ENDBRANCH   7   8
ENDBRANCH   1   7
BRANCH   2  12
HETATM   12  O   UNL     1      65.409   9.032   6.089  1.00  0.00    -0.355 OA
HETATM   13  C   UNL     1      66.450   8.106   6.313  1.00  0.00     0.210 C 
ENDBRANCH   2  12
BRANCH   5  14
HETATM   14  O   UNL     1      61.942   7.678   1.980  1.00  0.00    -0.356 OA
HETATM   15  C   UNL     1      61.595   8.736   1.095  1.00  0.00     0.210 C 
ENDBRANCH   5  14
TORSDOF 4
ENDMDL
MODEL 2
REMARK VINA RESULT:      -4.3      1.547      4.217
REMARK  4 active torsions:
REMARK  status: ('A' for Active; 'I' for Inactive)
REMARK    1  A    between atoms: C_1  and  C_8 
REMARK    2  A    between atoms: C_2  and  O_9 
REMARK    3  A    between atoms: C_5  and  O_10 
REMARK    4  A    between atoms: N_7  and  C_8 
ROOT
HETATM    1  C   UNL     1      62.837   9.427   3.996  1.00  0.00     0.003 A 
HETATM    2  C   UNL     1      62.852   8.263   3.213  1.00  0.00     0.076 A 
HETATM    3  C   UNL     1      63.828   9.561   5.004  1.00  0.00     0.048 A 
HETATM    4  C   UNL     1      63.858   7.304   3.448  1.00  0.00     0.040 A 
HETATM    5  C   UNL     1      64.826   8.607   5.219  1.00  0.00     0.069 A 
HETATM    6  C   UNL     1      64.835   7.467   4.433  1.00  0.00     0.039 A 
ENDROOT
BRANCH   1   7
HETATM    7  C   UNL     1      61.853  10.567   3.913  1.00  0.00     0.271 C 
BRANCH   7   8
HETATM    8  N   UNL     1      61.569  10.943   2.534  1.00  0.00    -0.075 N 
HETATM    9  H   UNL     1      60.657  11.398   2.488  1.00  0.00     0.274 HD
HETATM   10  H   UNL     1      61.562  10.108   1.949  1.00  0.00     0.274 HD
HETATM   11  H   UNL     1      62.287  11.586   2.202  1.00  0.00     0.274 HD
ENDBRANCH   7   8
ENDBRANCH   1   7
BRANCH   2  12
HETATM   12  O   UNL     1      62.030   7.840   2.210  1.00  0.00    -0.355 OA
HETATM   13  C   UNL     1      60.753   7.294   2.460  1.00  0.00     0.210 C 
ENDBRANCH   2  12
BRANCH   5  14
HETATM   14  O   UNL     1      65.714   8.912   6.212  1.00  0.00    -0.356 OA
HETATM   15  C   UNL     1      66.614   7.884   6.607  1.00  0.00     0.210 C 
ENDBRANCH   5  14
TORSDOF 4
ENDMDL
MODEL 3
REMARK VINA RESULT:      -3.9      2.609      4.560
REMARK  4 active torsions:
REMARK  status: ('A' for Active; 'I' for Inactive)
REMARK    1  A    between atoms: C_1  and  C_8 
REMARK    2  A    between atoms: C_2  and  O_9 
REMARK    3  A    between atoms: C_5  and  O_10 
REMARK    4  A    between atoms: N_7  and  C_8 
ROOT
HETATM    1  C   UNL     1      62.359   8.849   3.010  1.00  0.00     0.003 A 
HETATM    2  C   UNL     1      62.160  10.120   3.570  1.00  0.00     0.076 A 
HETATM    3  C   UNL     1      63.258   7.968   3.668  1.00  0.00     0.048 A 
HETATM    4  C   UNL     1      62.837  10.447   4.762  1.00  0.00     0.040 A 
HETATM    5  C   UNL     1      63.914   8.302   4.856  1.00  0.00     0.069 A 
HETATM    6  C   UNL     1      63.701   9.555   5.403  1.00  0.00     0.039 A 
ENDROOT
BRANCH   1   7
HETATM    7  C   UNL     1      61.742   8.304   1.746  1.00  0.00     0.271 C 
BRANCH   7   8
HETATM    8  N   UNL     1      60.344   8.693   1.611  1.00  0.00    -0.075 N 
HETATM    9  H   UNL     1      59.854   8.003   1.040  1.00  0.00     0.274 HD
HETATM   10  H   UNL     1      60.287   9.607   1.164  1.00  0.00     0.274 HD
HETATM   11  H   UNL     1      59.912   8.737   2.534  1.00  0.00     0.274 HD
ENDBRANCH   7   8
ENDBRANCH   1   7
BRANCH   2  12
HETATM   12  O   UNL     1      61.399  11.176   3.161  1.00  0.00    -0.355 OA
HETATM   13  C   UNL     1      61.734  11.957   2.034  1.00  0.00     0.210 C 
ENDBRANCH   2  12
BRANCH   5  14
HETATM   14  O   UNL     1      64.719   7.322   5.366  1.00  0.00    -0.356 OA
HETATM   15  C   UNL     1      64.204   6.573   6.460  1.00  0.00     0.210 C 
ENDBRANCH   5  14
TORSDOF 4
ENDMDL
MODEL 4
REMARK VINA RESULT:      -3.8      3.113      4.867
REMARK  4 active torsions:
REMARK  status: ('A' for Active; 'I' for Inactive)
REMARK    1  A    between atoms: C_1  and  C_8 
REMARK    2  A    between atoms: C_2  and  O_9 
REMARK    3  A    between atoms: C_5  and  O_10 
REMARK    4  A    between atoms: N_7  and  C_8 
ROOT
HETATM    1  C   UNL     1      62.091   7.971   3.082  1.00  0.00     0.003 A 
HETATM    2  C   UNL     1      61.921   8.116   1.697  1.00  0.00     0.076 A 
HETATM    3  C   UNL     1      62.165   9.151   3.869  1.00  0.00     0.048 A 
HETATM    4  C   UNL     1      61.807   9.416   1.163  1.00  0.00     0.040 A 
HETATM    5  C   UNL     1      62.040  10.433   3.327  1.00  0.00     0.069 A 
HETATM    6  C   UNL     1      61.863  10.562   1.960  1.00  0.00     0.039 A 
ENDROOT
BRANCH   1   7
HETATM    7  C   UNL     1      62.239   6.682   3.850  1.00  0.00     0.271 C 
BRANCH   7   8
HETATM    8  N   UNL     1      61.362   5.637   3.336  1.00  0.00    -0.075 N 
HETATM    9  H   UNL     1      61.884   5.043   2.691  1.00  0.00     0.274 HD
HETATM   10  H   UNL     1      60.576   6.063   2.846  1.00  0.00     0.274 HD
HETATM   11  H   UNL     1      61.014   5.072   4.111  1.00  0.00     0.274 HD
ENDBRANCH   7   8
ENDBRANCH   1   7
BRANCH   2  12
HETATM   12  O   UNL     1      61.848   7.193   0.695  1.00  0.00    -0.355 OA
HETATM   13  C   UNL     1      62.986   6.523   0.201  1.00  0.00     0.210 C 
ENDBRANCH   2  12
BRANCH   5  14
HETATM   14  O   UNL     1      62.106  11.453   4.235  1.00  0.00    -0.356 OA
HETATM   15  C   UNL     1      62.740  11.166   5.476  1.00  0.00     0.210 C 
ENDBRANCH   5  14
TORSDOF 4
ENDMDL
MODEL 5
REMARK VINA RESULT:      -3.8      1.758      2.868
REMARK  4 active torsions:
REMARK  status: ('A' for Active; 'I' for Inactive)
REMARK    1  A    between atoms: C_1  and  C_8 
REMARK    2  A    between atoms: C_2  and  O_9 
REMARK    3  A    between atoms: C_5  and  O_10 
REMARK    4  A    between atoms: N_7  and  C_8 
ROOT
HETATM    1  C   UNL     1      63.557   8.080   4.110  1.00  0.00     0.003 A 
HETATM    2  C   UNL     1      63.010   9.299   4.537  1.00  0.00     0.076 A 
HETATM    3  C   UNL     1      63.231   7.629   2.804  1.00  0.00     0.048 A 
HETATM    4  C   UNL     1      62.190  10.022   3.646  1.00  0.00     0.040 A 
HETATM    5  C   UNL     1      62.426   8.361   1.927  1.00  0.00     0.069 A 
HETATM    6  C   UNL     1      61.900   9.567   2.358  1.00  0.00     0.039 A 
ENDROOT
BRANCH   1   7
HETATM    7  C   UNL     1      64.446   7.155   4.901  1.00  0.00     0.271 C 
BRANCH   7   8
HETATM    8  N   UNL     1      64.767   7.698   6.215  1.00  0.00    -0.075 N 
HETATM    9  H   UNL     1      65.016   8.683   6.124  1.00  0.00     0.274 HD
HETATM   10  H   UNL     1      65.552   7.184   6.613  1.00  0.00     0.274 HD
HETATM   11  H   UNL     1      63.956   7.608   6.827  1.00  0.00     0.274 HD
ENDBRANCH   7   8
ENDBRANCH   1   7
BRANCH   2  12
HETATM   12  O   UNL     1      63.109   9.966   5.724  1.00  0.00    -0.355 OA
HETATM   13  C   UNL     1      62.943  11.364   5.820  1.00  0.00     0.210 C 
ENDBRANCH   2  12
BRANCH   5  14
HETATM   14  O   UNL     1      62.241   7.790   0.699  1.00  0.00    -0.356 OA
HETATM   15  C   UNL     1      60.896   7.595   0.278  1.00  0.00     0.210 C 
ENDBRANCH   5  14
TORSDOF 4
ENDMDL
MODEL 6
REMARK VINA RESULT:      -3.8      2.198      4.993
REMARK  4 active torsions:
REMARK  status: ('A' for Active; 'I' for Inactive)
REMARK    1  A    between atoms: C_1  and  C_8 
REMARK    2  A    between atoms: C_2  and  O_9 
REMARK    3  A    between atoms: C_5  and  O_10 
REMARK    4  A    between atoms: N_7  and  C_8 
ROOT
HETATM    1  C   UNL     1      63.800   7.286   3.364  1.00  0.00     0.003 A 
HETATM    2  C   UNL     1      62.702   8.136   3.160  1.00  0.00     0.076 A 
HETATM    3  C   UNL     1      64.743   7.650   4.360  1.00  0.00     0.048 A 
HETATM    4  C   UNL     1      62.579   9.286   3.966  1.00  0.00     0.040 A 
HETATM    5  C   UNL     1      64.603   8.787   5.160  1.00  0.00     0.069 A 
HETATM    6  C   UNL     1      63.511   9.612   4.955  1.00  0.00     0.039 A 
ENDROOT
BRANCH   1   7
HETATM    7  C   UNL     1      64.121   6.019   2.613  1.00  0.00     0.271 C 
BRANCH   7   8
HETATM    8  N   UNL     1      63.567   6.029   1.265  1.00  0.00    -0.075 N 
HETATM    9  H   UNL     1      62.564   5.842   1.308  1.00  0.00     0.274 HD
HETATM   10  H   UNL     1      64.023   5.310   0.704  1.00  0.00     0.274 HD
HETATM   11  H   UNL     1      63.723   6.942   0.839  1.00  0.00     0.274 HD
ENDBRANCH   7   8
ENDBRANCH   1   7
BRANCH   2  12
HETATM   12  O   UNL     1      61.666   8.076   2.274  1.00  0.00    -0.355 OA
HETATM   13  C   UNL     1      61.492   9.031   1.250  1.00  0.00     0.210 C 
ENDBRANCH   2  12
BRANCH   5  14
HETATM   14  O   UNL     1      65.590   8.966   6.089  1.00  0.00    -0.356 OA
HETATM   15  C   UNL     1      66.495   7.885   6.279  1.00  0.00     0.210 C 
ENDBRANCH   5  14
TORSDOF 4
ENDMDL
MODEL 7
REMARK VINA RESULT:      -3.8      2.246      3.042
REMARK  4 active torsions:
REMARK  status: ('A' for Active; 'I' for Inactive)
REMARK    1  A    between atoms: C_1  and  C_8 
REMARK    2  A    between atoms: C_2  and  O_9 
REMARK    3  A    between atoms: C_5  and  O_10 
REMARK    4  A    between atoms: N_7  and  C_8 
ROOT
HETATM    1  C   UNL     1      63.746   7.710   3.771  1.00  0.00     0.003 A 
HETATM    2  C   UNL     1      64.027   8.280   5.022  1.00  0.00     0.076 A 
HETATM    3  C   UNL     1      62.891   8.427   2.893  1.00  0.00     0.048 A 
HETATM    4  C   UNL     1      63.470   9.537   5.333  1.00  0.00     0.040 A 
HETATM    5  C   UNL     1      62.355   9.678   3.210  1.00  0.00     0.069 A 
HETATM    6  C   UNL     1      62.647  10.233   4.444  1.00  0.00     0.039 A 
ENDROOT
BRANCH   1   7
HETATM    7  C   UNL     1      64.232   6.383   3.246  1.00  0.00     0.271 C 
BRANCH   7   8
HETATM    8  N   UNL     1      65.657   6.192   3.482  1.00  0.00    -0.075 N 
HETATM    9  H   UNL     1      66.112   5.915   2.611  1.00  0.00     0.274 HD
HETATM   10  H   UNL     1      65.791   5.462   4.182  1.00  0.00     0.274 HD
HETATM   11  H   UNL     1      66.067   7.064   3.817  1.00  0.00     0.274 HD
ENDBRANCH   7   8
ENDBRANCH   1   7
BRANCH   2  12
HETATM   12  O   UNL     1      64.771   7.828   6.073  1.00  0.00    -0.355 OA
HETATM   13  C   UNL     1      66.125   8.182   6.247  1.00  0.00     0.210 C 
ENDBRANCH   2  12
BRANCH   5  14
HETATM   14  O   UNL     1      61.577  10.237   2.234  1.00  0.00    -0.356 OA
HETATM   15  C   UNL     1      61.761  11.625   1.983  1.00  0.00     0.210 C 
ENDBRANCH   5  14
TORSDOF 4
ENDMDL
MODEL 8
REMARK VINA RESULT:      -3.7      3.799      5.469
REMARK  4 active torsions:
REMARK  status: ('A' for Active; 'I' for Inactive)
REMARK    1  A    between atoms: C_1  and  C_8 
REMARK    2  A    between atoms: C_2  and  O_9 
REMARK    3  A    between atoms: C_5  and  O_10 
REMARK    4  A    between atoms: N_7  and  C_8 
ROOT
HETATM    1  C   UNL     1      66.764   5.846   7.205  1.00  0.00     0.003 A 
HETATM    2  C   UNL     1      67.340   5.227   6.085  1.00  0.00     0.076 A 
HETATM    3  C   UNL     1      66.163   7.119   7.023  1.00  0.00     0.048 A 
HETATM    4  C   UNL     1      67.272   5.885   4.840  1.00  0.00     0.040 A 
HETATM    5  C   UNL     1      66.093   7.755   5.781  1.00  0.00     0.069 A 
HETATM    6  C   UNL     1      66.657   7.130   4.682  1.00  0.00     0.039 A 
ENDROOT
BRANCH   1   7
HETATM    7  C   UNL     1      66.731   5.320   8.618  1.00  0.00     0.271 C 
BRANCH   7   8
HETATM    8  N   UNL     1      66.735   3.864   8.659  1.00  0.00    -0.075 N 
HETATM    9  H   UNL     1      66.239   3.500   7.844  1.00  0.00     0.274 HD
HETATM   10  H   UNL     1      66.271   3.546   9.509  1.00  0.00     0.274 HD
HETATM   11  H   UNL     1      67.697   3.525   8.649  1.00  0.00     0.274 HD
ENDBRANCH   7   8
ENDBRANCH   1   7
BRANCH   2  12
HETATM   12  O   UNL     1      68.005   4.044   5.950  1.00  0.00    -0.355 OA
HETATM   13  C   UNL     1      67.596   3.046   5.040  1.00  0.00     0.210 C 
ENDBRANCH   2  12
BRANCH   5  14
HETATM   14  O   UNL     1      65.453   8.963   5.785  1.00  0.00    -0.356 OA
HETATM   15  C   UNL     1      64.206   9.031   5.104  1.00  0.00     0.210 C 
ENDBRANCH   5  14
TORSDOF 4
ENDMDL
MODEL 9
REMARK VINA RESULT:      -3.7      1.476      1.508
REMARK  4 active torsions:
REMARK  status: ('A' for Active; 'I' for Inactive)
REMARK    1  A    between atoms: C_1  and  C_8 
REMARK    2  A    between atoms: C_2  and  O_9 
REMARK    3  A    between atoms: C_5  and  O_10 
REMARK    4  A    between atoms: N_7  and  C_8 
ROOT
HETATM    1  C   UNL     1      62.825   9.297   3.826  1.00  0.00     0.003 A 
HETATM    2  C   UNL     1      63.949   8.681   4.397  1.00  0.00     0.076 A 
HETATM    3  C   UNL     1      62.178   8.630   2.752  1.00  0.00     0.048 A 
HETATM    4  C   UNL     1      64.361   7.430   3.897  1.00  0.00     0.040 A 
HETATM    5  C   UNL     1      62.591   7.384   2.273  1.00  0.00     0.069 A 
HETATM    6  C   UNL     1      63.696   6.784   2.852  1.00  0.00     0.039 A 
ENDROOT
BRANCH   1   7
HETATM    7  C   UNL     1      62.225  10.627   4.206  1.00  0.00     0.271 C 
BRANCH   7   8
HETATM    8  N   UNL     1      61.703  11.340   3.047  1.00  0.00    -0.075 N 
HETATM    9  H   UNL     1      60.742  11.631   3.231  1.00  0.00     0.274 HD
HETATM   10  H   UNL     1      61.722  10.727   2.233  1.00  0.00     0.274 HD
HETATM   11  H   UNL     1      62.278  12.164   2.867  1.00  0.00     0.274 HD
ENDBRANCH   7   8
ENDBRANCH   1   7
BRANCH   2  12
HETATM   12  O   UNL     1      64.784   9.080   5.399  1.00  0.00    -0.355 OA
HETATM   13  C   UNL     1      65.722   8.209   5.992  1.00  0.00     0.210 C 
ENDBRANCH   2  12
BRANCH   5  14
HETATM   14  O   UNL     1      61.834   6.877   1.254  1.00  0.00    -0.356 OA
HETATM   15  C   UNL     1      60.704   7.641   0.852  1.00  0.00     0.210 C 
ENDBRANCH   5  14
TORSDOF 4
ENDMDL
