MODEL 1
REMARK VINA RESULT:      -4.8      0.000      0.000
REMARK  3 active torsions:
REMARK  status: ('A' for Active; 'I' for Inactive)
REMARK    1  A    between atoms: C_1  and  C_2 
REMARK    2  A    between atoms: C_1  and  O_6 
REMARK    3  A    between atoms: C_5  and  N_7 
ROOT
HETATM    1  C   UNL     1      62.850   9.485   4.206  1.00  0.00     0.041 A 
HETATM    2  C   UNL     1      62.773   8.775   2.998  1.00  0.00     0.046 A 
HETATM    3  C   UNL     1      62.184   9.354   1.867  1.00  0.00     0.026 A 
HETATM    4  C   UNL     1      62.370  10.799   4.265  1.00  0.00     0.018 A 
HETATM    5  C   UNL     1      61.832  11.400   3.129  1.00  0.00     0.003 A 
HETATM    6  C   UNL     1      61.761  10.685   1.933  1.00  0.00     0.029 A 
ENDROOT
BRANCH   1   7
HETATM    7  C   UNL     1      63.449   8.910   5.441  1.00  0.00     0.293 C 
HETATM    8  O   UNL     1      62.821   8.216   6.225  1.00  0.00    -0.259 OA
BRANCH   7   9
HETATM    9  O   UNL     1      64.756   9.254   5.557  1.00  0.00    -0.323 OA
HETATM   10  C   UNL     1      65.681   8.164   5.478  1.00  0.00     0.213 C 
ENDBRANCH   7   9
ENDBRANCH   1   7
BRANCH   3  11
HETATM   11  N   UNL     1      62.233   8.699   0.631  1.00  0.00    -0.399 N 
HETATM   12  H   UNL     1      62.939   8.924  -0.017  1.00  0.00     0.156 HD
HETATM   13  H   UNL     1      61.564   8.012   0.410  1.00  0.00     0.156 HD
ENDBRANCH   3  11
TORSDOF 3
ENDMDL
MODEL 2
REMARK VINA RESULT:      -4.7      1.193      1.914
REMARK  3 active torsions:
REMARK  status: ('A' for Active; 'I' for Inactive)
REMARK    1  A    between atoms: C_1  and  C_2 
REMARK    2  A    between atoms: C_1  and  O_6 
REMARK    3  A    between atoms: C_5  and  N_7 
ROOT
HETATM    1  C   UNL     1      62.941   9.107   4.026  1.00  0.00     0.041 A 
HETATM    2  C   UNL     1      62.436  10.368   3.674  1.00  0.00     0.046 A 
HETATM    3  C   UNL     1      61.970  10.612   2.377  1.00  0.00     0.026 A 
HETATM    4  C   UNL     1      62.939   8.074   3.080  1.00  0.00     0.018 A 
HETATM    5  C   UNL     1      62.426   8.295   1.804  1.00  0.00     0.003 A 
HETATM    6  C   UNL     1      61.925   9.553   1.465  1.00  0.00     0.029 A 
ENDROOT
BRANCH   1   7
HETATM    7  C   UNL     1      63.465   8.800   5.385  1.00  0.00     0.293 C 
HETATM    8  O   UNL     1      62.809   8.223   6.237  1.00  0.00    -0.259 OA
BRANCH   7   9
HETATM    9  O   UNL     1      64.742   9.236   5.527  1.00  0.00    -0.323 OA
HETATM   10  C   UNL     1      65.723   8.205   5.678  1.00  0.00     0.213 C 
ENDBRANCH   7   9
ENDBRANCH   1   7
BRANCH   3  11
HETATM   11  N   UNL     1      61.340  11.824   2.069  1.00  0.00    -0.399 N 
HETATM   12  H   UNL     1      61.402  12.583   2.692  1.00  0.00     0.156 HD
HETATM   13  H   UNL     1      60.835  11.917   1.229  1.00  0.00     0.156 HD
ENDBRANCH   3  11
TORSDOF 3
ENDMDL
MODEL 3
REMARK VINA RESULT:      -4.5      0.692      1.307
REMARK  3 active torsions:
REMARK  status: ('A' for Active; 'I' for Inactive)
REMARK    1  A    between atoms: C_1  and  C_2 
REMARK    2  A    between atoms: C_1  and  O_6 
REMARK    3  A    between atoms: C_5  and  N_7 
ROOT
HETATM    1  C   UNL     1      62.960   9.464   4.119  1.00  0.00     0.041 A 
HETATM    2  C   UNL     1      62.868   8.697   2.949  1.00  0.00     0.046 A 
HETATM    3  C   UNL     1      62.198   9.191   1.823  1.00  0.00     0.026 A 
HETATM    4  C   UNL     1      62.412  10.753   4.144  1.00  0.00     0.018 A 
HETATM    5  C   UNL     1      61.792  11.272   3.010  1.00  0.00     0.003 A 
HETATM    6  C   UNL     1      61.707  10.500   1.850  1.00  0.00     0.029 A 
ENDROOT
BRANCH   1   7
HETATM    7  C   UNL     1      63.644   8.980   5.349  1.00  0.00     0.293 C 
HETATM    8  O   UNL     1      64.796   9.272   5.629  1.00  0.00    -0.259 OA
BRANCH   7   9
HETATM    9  O   UNL     1      62.822   8.197   6.091  1.00  0.00    -0.323 OA
HETATM   10  C   UNL     1      63.316   6.882   6.365  1.00  0.00     0.213 C 
ENDBRANCH   7   9
ENDBRANCH   1   7
BRANCH   3  11
HETATM   11  N   UNL     1      62.228   8.483   0.615  1.00  0.00    -0.399 N 
HETATM   12  H   UNL     1      62.881   7.757   0.487  1.00  0.00     0.156 HD
HETATM   13  H   UNL     1      61.597   8.710  -0.105  1.00  0.00     0.156 HD
ENDBRANCH   3  11
TORSDOF 3
ENDMDL
MODEL 4
REMARK VINA RESULT:      -4.3      2.861      4.356
REMARK  3 active torsions:
REMARK  status: ('A' for Active; 'I' for Inactive)
REMARK    1  A    between atoms: C_1  and  C_2 
REMARK    2  A    between atoms: C_1  and  O_6 
REMARK    3  A    between atoms: C_5  and  N_7 
ROOT
HETATM    1  C   UNL     1      62.896   9.214   4.044  1.00  0.00     0.041 A 
HETATM    2  C   UNL     1      63.488   8.892   5.274  1.00  0.00     0.046 A 
HETATM    3  C   UNL     1      64.139   7.665   5.452  1.00  0.00     0.026 A 
HETATM    4  C   UNL     1      62.995   8.315   2.974  1.00  0.00     0.018 A 
HETATM    5  C   UNL     1      63.688   7.117   3.129  1.00  0.00     0.003 A 
HETATM    6  C   UNL     1      64.274   6.807   4.357  1.00  0.00     0.029 A 
ENDROOT
BRANCH   1   7
HETATM    7  C   UNL     1      62.177  10.495   3.806  1.00  0.00     0.293 C 
HETATM    8  O   UNL     1      62.049  11.356   4.663  1.00  0.00    -0.259 OA
BRANCH   7   9
HETATM    9  O   UNL     1      61.707  10.565   2.536  1.00  0.00    -0.323 OA
HETATM   10  C   UNL     1      61.733  11.870   1.949  1.00  0.00     0.213 C 
ENDBRANCH   7   9
ENDBRANCH   1   7
BRANCH   3  11
HETATM   11  N   UNL     1      64.847   7.406   6.632  1.00  0.00    -0.399 N 
HETATM   12  H   UNL     1      65.750   7.779   6.756  1.00  0.00     0.156 HD
HETATM   13  H   UNL     1      64.443   6.853   7.338  1.00  0.00     0.156 HD
ENDBRANCH   3  11
TORSDOF 3
ENDMDL
MODEL 5
REMARK VINA RESULT:      -4.2      3.065      4.230
REMARK  3 active torsions:
REMARK  status: ('A' for Active; 'I' for Inactive)
REMARK    1  A    between atoms: C_1  and  C_2 
REMARK    2  A    between atoms: C_1  and  O_6 
REMARK    3  A    between atoms: C_5  and  N_7 
ROOT
HETATM    1  C   UNL     1      62.187   9.569   2.660  1.00  0.00     0.041 A 
HETATM    2  C   UNL     1      62.875   8.762   3.579  1.00  0.00     0.046 A 
HETATM    3  C   UNL     1      63.252   9.267   4.829  1.00  0.00     0.026 A 
HETATM    4  C   UNL     1      61.839  10.878   3.017  1.00  0.00     0.018 A 
HETATM    5  C   UNL     1      62.163  11.369   4.280  1.00  0.00     0.003 A 
HETATM    6  C   UNL     1      62.847  10.557   5.186  1.00  0.00     0.029 A 
ENDROOT
BRANCH   1   7
HETATM    7  C   UNL     1      61.779   9.088   1.313  1.00  0.00     0.293 C 
HETATM    8  O   UNL     1      62.542   9.050   0.360  1.00  0.00    -0.259 OA
BRANCH   7   9
HETATM    9  O   UNL     1      60.479   8.703   1.303  1.00  0.00    -0.323 OA
HETATM   10  C   UNL     1      60.263   7.288   1.289  1.00  0.00     0.213 C 
ENDBRANCH   7   9
ENDBRANCH   1   7
BRANCH   3  11
HETATM   11  N   UNL     1      63.813   8.421   5.793  1.00  0.00    -0.399 N 
HETATM   12  H   UNL     1      63.532   8.492   6.734  1.00  0.00     0.156 HD
HETATM   13  H   UNL     1      64.487   7.753   5.531  1.00  0.00     0.156 HD
ENDBRANCH   3  11
TORSDOF 3
ENDMDL
MODEL 6
REMARK VINA RESULT:      -4.2      2.657      3.142
REMARK  3 active torsions:
REMARK  status: ('A' for Active; 'I' for Inactive)
REMARK    1  A    between atoms: C_1  and  C_2 
REMARK    2  A    between atoms: C_1  and  O_6 
REMARK    3  A    between atoms: C_5  and  N_7 
ROOT
HETATM    1  C   UNL     1      63.397   8.581   4.007  1.00  0.00     0.041 A 
HETATM    2  C   UNL     1      63.736   9.382   5.108  1.00  0.00     0.046 A 
HETATM    3  C   UNL     1      63.190  10.663   5.253  1.00  0.00     0.026 A 
HETATM    4  C   UNL     1      62.473   9.056   3.068  1.00  0.00     0.018 A 
HETATM    5  C   UNL     1      61.885  10.308   3.235  1.00  0.00     0.003 A 
HETATM    6  C   UNL     1      62.229  11.095   4.334  1.00  0.00     0.029 A 
ENDROOT
BRANCH   1   7
HETATM    7  C   UNL     1      63.961   7.220   3.796  1.00  0.00     0.293 C 
HETATM    8  O   UNL     1      63.999   6.677   2.703  1.00  0.00    -0.259 OA
BRANCH   7   9
HETATM    9  O   UNL     1      64.418   6.694   4.960  1.00  0.00    -0.323 OA
HETATM   10  C   UNL     1      65.739   6.144   4.901  1.00  0.00     0.213 C 
ENDBRANCH   7   9
ENDBRANCH   1   7
BRANCH   3  11
HETATM   11  N   UNL     1      63.421  11.402   6.420  1.00  0.00    -0.399 N 
HETATM   12  H   UNL     1      62.702  11.510   7.084  1.00  0.00     0.156 HD
HETATM   13  H   UNL     1      64.302  11.812   6.577  1.00  0.00     0.156 HD
ENDBRANCH   3  11
TORSDOF 3
ENDMDL
MODEL 7
REMARK VINA RESULT:      -4.0      1.772      2.708
REMARK  3 active torsions:
REMARK  status: ('A' for Active; 'I' for Inactive)
REMARK    1  A    between atoms: C_1  and  C_2 
REMARK    2  A    between atoms: C_1  and  O_6 
REMARK    3  A    between atoms: C_5  and  N_7 
ROOT
HETATM    1  C   UNL     1      62.876   8.356   3.909  1.00  0.00     0.041 A 
HETATM    2  C   UNL     1      62.455   9.691   3.818  1.00  0.00     0.046 A 
HETATM    3  C   UNL     1      62.075  10.236   2.585  1.00  0.00     0.026 A 
HETATM    4  C   UNL     1      62.875   7.552   2.762  1.00  0.00     0.018 A 
HETATM    5  C   UNL     1      62.447   8.073   1.543  1.00  0.00     0.003 A 
HETATM    6  C   UNL     1      62.029   9.402   1.464  1.00  0.00     0.029 A 
ENDROOT
BRANCH   1   7
HETATM    7  C   UNL     1      63.307   7.733   5.190  1.00  0.00     0.293 C 
HETATM    8  O   UNL     1      64.052   8.288   5.983  1.00  0.00    -0.259 OA
BRANCH   7   9
HETATM    9  O   UNL     1      62.761   6.502   5.344  1.00  0.00    -0.323 OA
HETATM   10  C   UNL     1      61.482   6.479   5.986  1.00  0.00     0.213 C 
ENDBRANCH   7   9
ENDBRANCH   1   7
BRANCH   3  11
HETATM   11  N   UNL     1      61.524  11.522   2.521  1.00  0.00    -0.399 N 
HETATM   12  H   UNL     1      62.113  12.304   2.417  1.00  0.00     0.156 HD
HETATM   13  H   UNL     1      60.549  11.644   2.578  1.00  0.00     0.156 HD
ENDBRANCH   3  11
TORSDOF 3
ENDMDL
MODEL 8
REMARK VINA RESULT:      -4.0      1.577      2.084
REMARK  3 active torsions:
REMARK  status: ('A' for Active; 'I' for Inactive)
REMARK    1  A    between atoms: C_1  and  C_2 
REMARK    2  A    between atoms: C_1  and  O_6 
REMARK    3  A    between atoms: C_5  and  N_7 
ROOT
HETATM    1  C   UNL     1      64.307   8.307   4.725  1.00  0.00     0.041 A 
HETATM    2  C   UNL     1      64.067   7.481   3.617  1.00  0.00     0.046 A 
HETATM    3  C   UNL     1      62.997   7.740   2.753  1.00  0.00     0.026 A 
HETATM    4  C   UNL     1      63.491   9.424   4.942  1.00  0.00     0.018 A 
HETATM    5  C   UNL     1      62.458   9.719   4.055  1.00  0.00     0.003 A 
HETATM    6  C   UNL     1      62.229   8.891   2.956  1.00  0.00     0.029 A 
ENDROOT
BRANCH   1   7
HETATM    7  C   UNL     1      65.419   8.065   5.684  1.00  0.00     0.293 C 
HETATM    8  O   UNL     1      65.254   7.552   6.780  1.00  0.00    -0.259 OA
BRANCH   7   9
HETATM    9  O   UNL     1      66.605   8.479   5.173  1.00  0.00    -0.323 OA
HETATM   10  C   UNL     1      67.667   7.522   5.248  1.00  0.00     0.213 C 
ENDBRANCH   7   9
ENDBRANCH   1   7
BRANCH   3  11
HETATM   11  N   UNL     1      62.844   6.999   1.574  1.00  0.00    -0.399 N 
HETATM   12  H   UNL     1      62.586   6.051   1.619  1.00  0.00     0.156 HD
HETATM   13  H   UNL     1      62.995   7.427   0.701  1.00  0.00     0.156 HD
ENDBRANCH   3  11
TORSDOF 3
ENDMDL
MODEL 9
REMARK VINA RESULT:      -4.0      3.347      5.856
REMARK  3 active torsions:
REMARK  status: ('A' for Active; 'I' for Inactive)
REMARK    1  A    between atoms: C_1  and  C_2 
REMARK    2  A    between atoms: C_1  and  O_6 
REMARK    3  A    between atoms: C_5  and  N_7 
ROOT
HETATM    1  C   UNL     1      65.634   7.715   5.712  1.00  0.00     0.041 A 
HETATM    2  C   UNL     1      65.337   6.832   6.762  1.00  0.00     0.046 A 
HETATM    3  C   UNL     1      66.281   5.893   7.193  1.00  0.00     0.026 A 
HETATM    4  C   UNL     1      66.903   7.680   5.121  1.00  0.00     0.018 A 
HETATM    5  C   UNL     1      67.866   6.785   5.581  1.00  0.00     0.003 A 
HETATM    6  C   UNL     1      67.560   5.912   6.626  1.00  0.00     0.029 A 
ENDROOT
BRANCH   1   7
HETATM    7  C   UNL     1      64.661   8.719   5.204  1.00  0.00     0.293 C 
HETATM    8  O   UNL     1      64.519   9.823   5.707  1.00  0.00    -0.259 OA
BRANCH   7   9
HETATM    9  O   UNL     1      63.983   8.245   4.129  1.00  0.00    -0.323 OA
HETATM   10  C   UNL     1      62.871   9.042   3.711  1.00  0.00     0.213 C 
ENDBRANCH   7   9
ENDBRANCH   1   7
BRANCH   3  11
HETATM   11  N   UNL     1      66.034   5.111   8.328  1.00  0.00    -0.399 N 
HETATM   12  H   UNL     1      66.443   5.352   9.190  1.00  0.00     0.156 HD
HETATM   13  H   UNL     1      65.449   4.322   8.264  1.00  0.00     0.156 HD
ENDBRANCH   3  11
TORSDOF 3
ENDMDL
