MODEL 1
REMARK VINA RESULT:      -5.1      0.000      0.000
REMARK  2 active torsions:
REMARK  status: ('A' for Active; 'I' for Inactive)
REMARK    1  A    between atoms: C_1  and  C_2 
REMARK    2  A    between atoms: C_1  and  O_5 
ROOT
HETATM    1  C   UNL     1      62.847   9.445   4.189  1.00  0.00     0.045 A 
HETATM    2  C   UNL     1      62.762   8.719   2.982  1.00  0.00    -0.046 A 
HETATM    3  C   UNL     1      62.384  10.776   4.227  1.00  0.00     0.018 A 
HETATM    4  C   UNL     1      63.243   7.312   2.760  1.00  0.00     0.049 C 
HETATM    5  C   UNL     1      62.201   9.357   1.854  1.00  0.00     0.008 A 
HETATM    6  C   UNL     1      61.833  11.383   3.099  1.00  0.00     0.001 A 
HETATM    7  C   UNL     1      61.740  10.672   1.910  1.00  0.00     0.001 A 
ENDROOT
BRANCH   1   8
HETATM    8  C   UNL     1      63.432   8.949   5.471  1.00  0.00     0.293 C 
HETATM    9  O   UNL     1      62.817   8.242   6.253  1.00  0.00    -0.259 OA
BRANCH   8  10
HETATM   10  O   UNL     1      64.733   9.305   5.587  1.00  0.00    -0.323 OA
HETATM   11  C   UNL     1      65.644   8.203   5.564  1.00  0.00     0.213 C 
ENDBRANCH   8  10
ENDBRANCH   1   8
TORSDOF 2
ENDMDL
MODEL 2
REMARK VINA RESULT:      -4.9      0.639      2.151
REMARK  2 active torsions:
REMARK  status: ('A' for Active; 'I' for Inactive)
REMARK    1  A    between atoms: C_1  and  C_2 
REMARK    2  A    between atoms: C_1  and  O_5 
ROOT
HETATM    1  C   UNL     1      62.927   9.098   3.944  1.00  0.00     0.045 A 
HETATM    2  C   UNL     1      62.307  10.293   3.518  1.00  0.00    -0.046 A 
HETATM    3  C   UNL     1      63.029   8.016   3.046  1.00  0.00     0.018 A 
HETATM    4  C   UNL     1      62.083  11.519   4.356  1.00  0.00     0.049 C 
HETATM    5  C   UNL     1      61.821  10.360   2.194  1.00  0.00     0.008 A 
HETATM    6  C   UNL     1      62.541   8.109   1.742  1.00  0.00     0.001 A 
HETATM    7  C   UNL     1      61.937   9.284   1.315  1.00  0.00     0.001 A 
ENDROOT
BRANCH   1   8
HETATM    8  C   UNL     1      63.473   8.832   5.309  1.00  0.00     0.293 C 
HETATM    9  O   UNL     1      62.847   8.238   6.171  1.00  0.00    -0.259 OA
BRANCH   8  10
HETATM   10  O   UNL     1      64.757   9.248   5.413  1.00  0.00    -0.323 OA
HETATM   11  C   UNL     1      65.691   8.198   5.677  1.00  0.00     0.213 C 
ENDBRANCH   8  10
ENDBRANCH   1   8
TORSDOF 2
ENDMDL
MODEL 3
REMARK VINA RESULT:      -4.4      1.537      1.998
REMARK  2 active torsions:
REMARK  status: ('A' for Active; 'I' for Inactive)
REMARK    1  A    between atoms: C_1  and  C_2 
REMARK    2  A    between atoms: C_1  and  O_5 
ROOT
HETATM    1  C   UNL     1      62.452   8.952   3.218  1.00  0.00     0.045 A 
HETATM    2  C   UNL     1      62.181   9.446   1.924  1.00  0.00    -0.046 A 
HETATM    3  C   UNL     1      62.416   9.835   4.316  1.00  0.00     0.018 A 
HETATM    4  C   UNL     1      62.215   8.652   0.649  1.00  0.00     0.049 C 
HETATM    5  C   UNL     1      61.869  10.816   1.783  1.00  0.00     0.008 A 
HETATM    6  C   UNL     1      62.105  11.184   4.148  1.00  0.00     0.001 A 
HETATM    7  C   UNL     1      61.830  11.676   2.879  1.00  0.00     0.001 A 
ENDROOT
BRANCH   1   8
HETATM    8  C   UNL     1      62.826   7.546   3.558  1.00  0.00     0.293 C 
HETATM    9  O   UNL     1      62.002   6.664   3.742  1.00  0.00    -0.259 OA
BRANCH   8  10
HETATM   10  O   UNL     1      64.169   7.376   3.537  1.00  0.00    -0.323 OA
HETATM   11  C   UNL     1      64.714   6.883   4.763  1.00  0.00     0.213 C 
ENDBRANCH   8  10
ENDBRANCH   1   8
TORSDOF 2
ENDMDL
MODEL 4
REMARK VINA RESULT:      -4.4      2.619      4.026
REMARK  2 active torsions:
REMARK  status: ('A' for Active; 'I' for Inactive)
REMARK    1  A    between atoms: C_1  and  C_2 
REMARK    2  A    between atoms: C_1  and  O_5 
ROOT
HETATM    1  C   UNL     1      62.265   9.492   2.698  1.00  0.00     0.045 A 
HETATM    2  C   UNL     1      63.033   8.683   3.562  1.00  0.00    -0.046 A 
HETATM    3  C   UNL     1      61.857  10.770   3.132  1.00  0.00     0.018 A 
HETATM    4  C   UNL     1      63.514   7.289   3.273  1.00  0.00     0.049 C 
HETATM    5  C   UNL     1      63.375   9.195   4.833  1.00  0.00     0.008 A 
HETATM    6  C   UNL     1      62.209  11.253   4.392  1.00  0.00     0.001 A 
HETATM    7  C   UNL     1      62.970  10.464   5.244  1.00  0.00     0.001 A 
ENDROOT
BRANCH   1   8
HETATM    8  C   UNL     1      61.787   9.111   1.335  1.00  0.00     0.293 C 
HETATM    9  O   UNL     1      62.514   9.095   0.355  1.00  0.00    -0.259 OA
BRANCH   8  10
HETATM   10  O   UNL     1      60.494   8.707   1.363  1.00  0.00    -0.323 OA
HETATM   11  C   UNL     1      60.168   7.726   0.376  1.00  0.00     0.213 C 
ENDBRANCH   8  10
ENDBRANCH   1   8
TORSDOF 2
ENDMDL
MODEL 5
REMARK VINA RESULT:      -4.0      2.246      3.103
REMARK  2 active torsions:
REMARK  status: ('A' for Active; 'I' for Inactive)
REMARK    1  A    between atoms: C_1  and  C_2 
REMARK    2  A    between atoms: C_1  and  O_5 
ROOT
HETATM    1  C   UNL     1      62.163   8.820   2.641  1.00  0.00     0.045 A 
HETATM    2  C   UNL     1      62.333   9.257   3.972  1.00  0.00    -0.046 A 
HETATM    3  C   UNL     1      61.872   9.766   1.637  1.00  0.00     0.018 A 
HETATM    4  C   UNL     1      62.606   8.381   5.162  1.00  0.00     0.049 C 
HETATM    5  C   UNL     1      62.215  10.637   4.245  1.00  0.00     0.008 A 
HETATM    6  C   UNL     1      61.762  11.125   1.933  1.00  0.00     0.001 A 
HETATM    7  C   UNL     1      61.935  11.561   3.239  1.00  0.00     0.001 A 
ENDROOT
BRANCH   1   8
HETATM    8  C   UNL     1      62.223   7.404   2.169  1.00  0.00     0.293 C 
HETATM    9  O   UNL     1      61.231   6.707   2.030  1.00  0.00    -0.259 OA
BRANCH   8  10
HETATM   10  O   UNL     1      63.486   7.050   1.837  1.00  0.00    -0.323 OA
HETATM   11  C   UNL     1      64.013   5.971   2.613  1.00  0.00     0.213 C 
ENDBRANCH   8  10
ENDBRANCH   1   8
TORSDOF 2
ENDMDL
MODEL 6
REMARK VINA RESULT:      -3.9      2.299      3.906
REMARK  2 active torsions:
REMARK  status: ('A' for Active; 'I' for Inactive)
REMARK    1  A    between atoms: C_1  and  C_2 
REMARK    2  A    between atoms: C_1  and  O_5 
ROOT
HETATM    1  C   UNL     1      62.484   9.059   4.149  1.00  0.00     0.045 A 
HETATM    2  C   UNL     1      61.661   7.916   4.073  1.00  0.00    -0.046 A 
HETATM    3  C   UNL     1      63.782   8.941   4.686  1.00  0.00     0.018 A 
HETATM    4  C   UNL     1      60.247   7.876   3.567  1.00  0.00     0.049 C 
HETATM    5  C   UNL     1      62.181   6.685   4.531  1.00  0.00     0.008 A 
HETATM    6  C   UNL     1      64.272   7.713   5.131  1.00  0.00     0.001 A 
HETATM    7  C   UNL     1      63.470   6.583   5.052  1.00  0.00     0.001 A 
ENDROOT
BRANCH   1   8
HETATM    8  C   UNL     1      62.099  10.445   3.742  1.00  0.00     0.293 C 
HETATM    9  O   UNL     1      61.943  11.353   4.541  1.00  0.00    -0.259 OA
BRANCH   8  10
HETATM   10  O   UNL     1      62.046  10.564   2.394  1.00  0.00    -0.323 OA
HETATM   11  C   UNL     1      61.696  11.872   1.937  1.00  0.00     0.213 C 
ENDBRANCH   8  10
ENDBRANCH   1   8
TORSDOF 2
ENDMDL
MODEL 7
REMARK VINA RESULT:      -3.9      2.555      4.645
REMARK  2 active torsions:
REMARK  status: ('A' for Active; 'I' for Inactive)
REMARK    1  A    between atoms: C_1  and  C_2 
REMARK    2  A    between atoms: C_1  and  O_5 
ROOT
HETATM    1  C   UNL     1      62.661   8.509   2.823  1.00  0.00     0.045 A 
HETATM    2  C   UNL     1      62.742   9.458   3.863  1.00  0.00    -0.046 A 
HETATM    3  C   UNL     1      63.456   7.346   2.885  1.00  0.00     0.018 A 
HETATM    4  C   UNL     1      61.998  10.761   3.931  1.00  0.00     0.049 C 
HETATM    5  C   UNL     1      63.617   9.197   4.940  1.00  0.00     0.008 A 
HETATM    6  C   UNL     1      64.311   7.112   3.962  1.00  0.00     0.001 A 
HETATM    7  C   UNL     1      64.391   8.039   4.992  1.00  0.00     0.001 A 
ENDROOT
BRANCH   1   8
HETATM    8  C   UNL     1      61.818   8.625   1.594  1.00  0.00     0.293 C 
HETATM    9  O   UNL     1      62.243   9.056   0.535  1.00  0.00    -0.259 OA
BRANCH   8  10
HETATM   10  O   UNL     1      60.583   8.107   1.795  1.00  0.00    -0.323 OA
HETATM   11  C   UNL     1      59.736   8.156   0.644  1.00  0.00     0.213 C 
ENDBRANCH   8  10
ENDBRANCH   1   8
TORSDOF 2
ENDMDL
MODEL 8
REMARK VINA RESULT:      -3.8      1.668      3.152
REMARK  2 active torsions:
REMARK  status: ('A' for Active; 'I' for Inactive)
REMARK    1  A    between atoms: C_1  and  C_2 
REMARK    2  A    between atoms: C_1  and  O_5 
ROOT
HETATM    1  C   UNL     1      62.837   8.884   3.599  1.00  0.00     0.045 A 
HETATM    2  C   UNL     1      62.435   8.592   2.279  1.00  0.00    -0.046 A 
HETATM    3  C   UNL     1      63.655   7.966   4.290  1.00  0.00     0.018 A 
HETATM    4  C   UNL     1      61.538   9.439   1.420  1.00  0.00     0.049 C 
HETATM    5  C   UNL     1      62.881   7.387   1.693  1.00  0.00     0.008 A 
HETATM    6  C   UNL     1      64.082   6.783   3.688  1.00  0.00     0.001 A 
HETATM    7  C   UNL     1      63.695   6.493   2.387  1.00  0.00     0.001 A 
ENDROOT
BRANCH   1   8
HETATM    8  C   UNL     1      62.444  10.090   4.389  1.00  0.00     0.293 C 
HETATM    9  O   UNL     1      61.621  10.901   3.999  1.00  0.00    -0.259 OA
BRANCH   8  10
HETATM   10  O   UNL     1      63.044  10.099   5.603  1.00  0.00    -0.323 OA
HETATM   11  C   UNL     1      63.260  11.407   6.138  1.00  0.00     0.213 C 
ENDBRANCH   8  10
ENDBRANCH   1   8
TORSDOF 2
ENDMDL
MODEL 9
REMARK VINA RESULT:      -3.8      1.665      2.402
REMARK  2 active torsions:
REMARK  status: ('A' for Active; 'I' for Inactive)
REMARK    1  A    between atoms: C_1  and  C_2 
REMARK    2  A    between atoms: C_1  and  O_5 
ROOT
HETATM    1  C   UNL     1      63.081   8.485   4.511  1.00  0.00     0.045 A 
HETATM    2  C   UNL     1      62.249   7.464   5.019  1.00  0.00    -0.046 A 
HETATM    3  C   UNL     1      62.701   9.163   3.335  1.00  0.00     0.018 A 
HETATM    4  C   UNL     1      62.524   6.621   6.232  1.00  0.00     0.049 C 
HETATM    5  C   UNL     1      61.053   7.169   4.329  1.00  0.00     0.008 A 
HETATM    6  C   UNL     1      61.513   8.853   2.672  1.00  0.00     0.001 A 
HETATM    7  C   UNL     1      60.687   7.854   3.171  1.00  0.00     0.001 A 
ENDROOT
BRANCH   1   8
HETATM    8  C   UNL     1      64.391   8.915   5.086  1.00  0.00     0.293 C 
HETATM    9  O   UNL     1      64.516   9.908   5.785  1.00  0.00    -0.259 OA
BRANCH   8  10
HETATM   10  O   UNL     1      65.367   8.019   4.809  1.00  0.00    -0.323 OA
HETATM   11  C   UNL     1      66.371   7.919   5.821  1.00  0.00     0.213 C 
ENDBRANCH   8  10
ENDBRANCH   1   8
TORSDOF 2
ENDMDL
