MODEL 1
REMARK VINA RESULT:      -3.9      0.000      0.000
REMARK  2 active torsions:
REMARK  status: ('A' for Active; 'I' for Inactive)
REMARK    1  A    between atoms: C_3  and  C_6 
REMARK    2  A    between atoms: N_4  and  C_6 
ROOT
HETATM    1  N   UNL     1      61.771  11.405   3.031  1.00  0.00    -0.375 N 
ATOM      2  HN  UNL     1      61.489  12.375   3.169  1.00  0.00     0.164 HD
HETATM    3  C   UNL     1      62.551   9.292   3.940  1.00  0.00    -0.017 A 
HETATM    4  C   UNL     1      62.168  10.625   4.063  1.00  0.00     0.096 A 
HETATM    5  C   UNL     1      61.766  10.833   1.808  1.00  0.00     0.087 A 
HETATM    6  C   UNL     1      62.518   8.737   2.655  1.00  0.00     0.011 A 
HETATM    7  C   UNL     1      62.128   9.517   1.572  1.00  0.00     0.018 A 
ENDROOT
BRANCH   3   8
HETATM    8  C   UNL     1      62.952   8.486   5.146  1.00  0.00     0.271 C 
BRANCH   8   9
HETATM    9  N   UNL     1      64.228   8.937   5.700  1.00  0.00    -0.075 N 
HETATM   10  C   UNL     1      65.343   8.201   5.120  1.00  0.00     0.267 C 
HETATM   11  H   UNL     1      64.223   8.793   6.709  1.00  0.00     0.277 HD
HETATM   12  H   UNL     1      64.345   9.927   5.480  1.00  0.00     0.277 HD
ENDBRANCH   8   9
ENDBRANCH   3   8
TORSDOF 2
ENDMDL
MODEL 2
REMARK VINA RESULT:      -3.8      1.184      1.344
REMARK  2 active torsions:
REMARK  status: ('A' for Active; 'I' for Inactive)
REMARK    1  A    between atoms: C_3  and  C_6 
REMARK    2  A    between atoms: N_4  and  C_6 
ROOT
HETATM    1  N   UNL     1      62.413  11.539   4.795  1.00  0.00    -0.375 N 
ATOM      2  HN  UNL     1      62.327  12.420   5.302  1.00  0.00     0.164 HD
HETATM    3  C   UNL     1      63.181   9.237   4.697  1.00  0.00    -0.017 A 
HETATM    4  C   UNL     1      63.043  10.468   5.332  1.00  0.00     0.096 A 
HETATM    5  C   UNL     1      61.903  11.382   3.555  1.00  0.00     0.087 A 
HETATM    6  C   UNL     1      62.625   9.115   3.418  1.00  0.00     0.011 A 
HETATM    7  C   UNL     1      61.984  10.202   2.834  1.00  0.00     0.018 A 
ENDROOT
BRANCH   3   8
HETATM    8  C   UNL     1      63.872   8.086   5.378  1.00  0.00     0.271 C 
BRANCH   8   9
HETATM    9  N   UNL     1      65.168   8.482   5.928  1.00  0.00    -0.075 N 
HETATM   10  C   UNL     1      66.263   7.883   5.179  1.00  0.00     0.267 C 
HETATM   11  H   UNL     1      65.224   8.178   6.900  1.00  0.00     0.277 HD
HETATM   12  H   UNL     1      65.249   9.498   5.865  1.00  0.00     0.277 HD
ENDBRANCH   8   9
ENDBRANCH   3   8
TORSDOF 2
ENDMDL
MODEL 3
REMARK VINA RESULT:      -3.8      1.731      3.793
REMARK  2 active torsions:
REMARK  status: ('A' for Active; 'I' for Inactive)
REMARK    1  A    between atoms: C_3  and  C_6 
REMARK    2  A    between atoms: N_4  and  C_6 
ROOT
HETATM    1  N   UNL     1      62.357  11.604   4.707  1.00  0.00    -0.375 N 
ATOM      2  HN  UNL     1      62.186  12.549   5.052  1.00  0.00     0.164 HD
HETATM    3  C   UNL     1      62.139   9.934   2.957  1.00  0.00    -0.017 A 
HETATM    4  C   UNL     1      61.926  11.204   3.488  1.00  0.00     0.096 A 
HETATM    5  C   UNL     1      63.025  10.691   5.442  1.00  0.00     0.087 A 
HETATM    6  C   UNL     1      62.848   9.024   3.749  1.00  0.00     0.011 A 
HETATM    7  C   UNL     1      63.291   9.402   5.012  1.00  0.00     0.018 A 
ENDROOT
BRANCH   3   8
HETATM    8  C   UNL     1      61.650   9.579   1.578  1.00  0.00     0.271 C 
BRANCH   8   9
HETATM    9  N   UNL     1      60.360   8.892   1.621  1.00  0.00    -0.075 N 
HETATM   10  C   UNL     1      60.227   7.952   0.518  1.00  0.00     0.267 C 
HETATM   11  H   UNL     1      59.612   9.583   1.561  1.00  0.00     0.277 HD
HETATM   12  H   UNL     1      60.299   8.373   2.498  1.00  0.00     0.277 HD
ENDBRANCH   8   9
ENDBRANCH   3   8
TORSDOF 2
ENDMDL
MODEL 4
REMARK VINA RESULT:      -3.7      0.881      1.650
REMARK  2 active torsions:
REMARK  status: ('A' for Active; 'I' for Inactive)
REMARK    1  A    between atoms: C_3  and  C_6 
REMARK    2  A    between atoms: N_4  and  C_6 
ROOT
HETATM    1  N   UNL     1      61.868  10.186   1.572  1.00  0.00    -0.375 N 
ATOM      2  HN  UNL     1      61.748   9.992   0.578  1.00  0.00     0.164 HD
HETATM    3  C   UNL     1      62.378   9.414   3.817  1.00  0.00    -0.017 A 
HETATM    4  C   UNL     1      62.190   9.210   2.453  1.00  0.00     0.096 A 
HETATM    5  C   UNL     1      61.712  11.429   2.075  1.00  0.00     0.087 A 
HETATM    6  C   UNL     1      62.220  10.721   4.293  1.00  0.00     0.011 A 
HETATM    7  C   UNL     1      61.876  11.742   3.414  1.00  0.00     0.018 A 
ENDROOT
BRANCH   3   8
HETATM    8  C   UNL     1      62.765   8.277   4.724  1.00  0.00     0.271 C 
BRANCH   8   9
HETATM    9  N   UNL     1      63.758   8.688   5.716  1.00  0.00    -0.075 N 
HETATM   10  C   UNL     1      65.112   8.471   5.226  1.00  0.00     0.267 C 
HETATM   11  H   UNL     1      63.622   8.145   6.569  1.00  0.00     0.277 HD
HETATM   12  H   UNL     1      63.636   9.684   5.902  1.00  0.00     0.277 HD
ENDBRANCH   8   9
ENDBRANCH   3   8
TORSDOF 2
ENDMDL
MODEL 5
REMARK VINA RESULT:      -3.3      1.786      2.155
REMARK  2 active torsions:
REMARK  status: ('A' for Active; 'I' for Inactive)
REMARK    1  A    between atoms: C_3  and  C_6 
REMARK    2  A    between atoms: N_4  and  C_6 
ROOT
HETATM    1  N   UNL     1      60.549   7.595   2.731  1.00  0.00    -0.375 N 
ATOM      2  HN  UNL     1      59.995   6.771   2.965  1.00  0.00     0.164 HD
HETATM    3  C   UNL     1      61.887   9.497   3.432  1.00  0.00    -0.017 A 
HETATM    4  C   UNL     1      61.111   8.370   3.688  1.00  0.00     0.096 A 
HETATM    5  C   UNL     1      60.759   7.968   1.451  1.00  0.00     0.087 A 
HETATM    6  C   UNL     1      62.089   9.838   2.090  1.00  0.00     0.011 A 
HETATM    7  C   UNL     1      61.513   9.070   1.084  1.00  0.00     0.018 A 
ENDROOT
BRANCH   3   8
HETATM    8  C   UNL     1      62.500  10.287   4.557  1.00  0.00     0.271 C 
BRANCH   8   9
HETATM    9  N   UNL     1      63.097   9.416   5.568  1.00  0.00    -0.075 N 
HETATM   10  C   UNL     1      64.391   8.912   5.130  1.00  0.00     0.267 C 
HETATM   11  H   UNL     1      62.474   8.628   5.738  1.00  0.00     0.277 HD
HETATM   12  H   UNL     1      63.232   9.958   6.423  1.00  0.00     0.277 HD
ENDBRANCH   8   9
ENDBRANCH   3   8
TORSDOF 2
ENDMDL
MODEL 6
REMARK VINA RESULT:      -3.3      1.873      3.002
REMARK  2 active torsions:
REMARK  status: ('A' for Active; 'I' for Inactive)
REMARK    1  A    between atoms: C_3  and  C_6 
REMARK    2  A    between atoms: N_4  and  C_6 
ROOT
HETATM    1  N   UNL     1      63.419   9.781   5.727  1.00  0.00    -0.375 N 
ATOM      2  HN  UNL     1      63.860   9.680   6.641  1.00  0.00     0.164 HD
HETATM    3  C   UNL     1      62.842   8.853   3.558  1.00  0.00    -0.017 A 
HETATM    4  C   UNL     1      63.436   8.781   4.815  1.00  0.00     0.096 A 
HETATM    5  C   UNL     1      62.788  10.918   5.366  1.00  0.00     0.087 A 
HETATM    6  C   UNL     1      62.187  10.046   3.231  1.00  0.00     0.011 A 
HETATM    7  C   UNL     1      62.165  11.097   4.142  1.00  0.00     0.018 A 
ENDROOT
BRANCH   3   8
HETATM    8  C   UNL     1      62.882   7.681   2.613  1.00  0.00     0.271 C 
BRANCH   8   9
HETATM    9  N   UNL     1      63.982   6.770   2.928  1.00  0.00    -0.075 N 
HETATM   10  C   UNL     1      64.009   5.641   2.009  1.00  0.00     0.267 C 
HETATM   11  H   UNL     1      63.863   6.422   3.880  1.00  0.00     0.277 HD
HETATM   12  H   UNL     1      64.861   7.281   2.840  1.00  0.00     0.277 HD
ENDBRANCH   8   9
ENDBRANCH   3   8
TORSDOF 2
ENDMDL
MODEL 7
REMARK VINA RESULT:      -3.3      1.168      3.775
REMARK  2 active torsions:
REMARK  status: ('A' for Active; 'I' for Inactive)
REMARK    1  A    between atoms: C_3  and  C_6 
REMARK    2  A    between atoms: N_4  and  C_6 
ROOT
HETATM    1  N   UNL     1      64.322   9.376   5.625  1.00  0.00    -0.375 N 
ATOM      2  HN  UNL     1      64.587  10.072   6.321  1.00  0.00     0.164 HD
HETATM    3  C   UNL     1      62.717   8.517   4.017  1.00  0.00    -0.017 A 
HETATM    4  C   UNL     1      63.130   9.428   4.985  1.00  0.00     0.096 A 
HETATM    5  C   UNL     1      65.142   8.356   5.294  1.00  0.00     0.087 A 
HETATM    6  C   UNL     1      63.605   7.484   3.696  1.00  0.00     0.011 A 
HETATM    7  C   UNL     1      64.830   7.395   4.347  1.00  0.00     0.018 A 
ENDROOT
BRANCH   3   8
HETATM    8  C   UNL     1      61.385   8.665   3.332  1.00  0.00     0.271 C 
BRANCH   8   9
HETATM    9  N   UNL     1      61.362   9.820   2.436  1.00  0.00    -0.075 N 
HETATM   10  C   UNL     1      61.996   9.511   1.162  1.00  0.00     0.267 C 
HETATM   11  H   UNL     1      61.860  10.593   2.877  1.00  0.00     0.277 HD
HETATM   12  H   UNL     1      60.389  10.075   2.261  1.00  0.00     0.277 HD
ENDBRANCH   8   9
ENDBRANCH   3   8
TORSDOF 2
ENDMDL
MODEL 8
REMARK VINA RESULT:      -3.2      2.602      5.545
REMARK  2 active torsions:
REMARK  status: ('A' for Active; 'I' for Inactive)
REMARK    1  A    between atoms: C_3  and  C_6 
REMARK    2  A    between atoms: N_4  and  C_6 
ROOT
HETATM    1  N   UNL     1      67.332   7.790   6.948  1.00  0.00    -0.375 N 
ATOM      2  HN  UNL     1      68.267   8.185   7.046  1.00  0.00     0.164 HD
HETATM    3  C   UNL     1      65.121   7.847   5.943  1.00  0.00    -0.017 A 
HETATM    4  C   UNL     1      66.408   8.346   6.129  1.00  0.00     0.096 A 
HETATM    5  C   UNL     1      66.954   6.687   7.627  1.00  0.00     0.087 A 
HETATM    6  C   UNL     1      64.777   6.694   6.658  1.00  0.00     0.011 A 
HETATM    7  C   UNL     1      65.700   6.108   7.517  1.00  0.00     0.018 A 
ENDROOT
BRANCH   3   8
HETATM    8  C   UNL     1      64.164   8.510   4.990  1.00  0.00     0.271 C 
BRANCH   8   9
HETATM    9  N   UNL     1      63.073   9.180   5.697  1.00  0.00    -0.075 N 
HETATM   10  C   UNL     1      62.966  10.576   5.298  1.00  0.00     0.267 C 
HETATM   11  H   UNL     1      63.248   9.133   6.700  1.00  0.00     0.277 HD
HETATM   12  H   UNL     1      62.198   8.708   5.463  1.00  0.00     0.277 HD
ENDBRANCH   8   9
ENDBRANCH   3   8
TORSDOF 2
ENDMDL
MODEL 9
REMARK VINA RESULT:      -3.2      1.996      2.868
REMARK  2 active torsions:
REMARK  status: ('A' for Active; 'I' for Inactive)
REMARK    1  A    between atoms: C_3  and  C_6 
REMARK    2  A    between atoms: N_4  and  C_6 
ROOT
HETATM    1  N   UNL     1      61.683  10.984   3.016  1.00  0.00    -0.375 N 
ATOM      2  HN  UNL     1      61.136  11.597   2.412  1.00  0.00     0.164 HD
HETATM    3  C   UNL     1      62.808   8.865   3.395  1.00  0.00    -0.017 A 
HETATM    4  C   UNL     1      62.052   9.743   2.622  1.00  0.00     0.096 A 
HETATM    5  C   UNL     1      62.074  11.369   4.249  1.00  0.00     0.087 A 
HETATM    6  C   UNL     1      63.203   9.311   4.661  1.00  0.00     0.011 A 
HETATM    7  C   UNL     1      62.827  10.576   5.099  1.00  0.00     0.018 A 
ENDROOT
BRANCH   3   8
HETATM    8  C   UNL     1      63.202   7.511   2.868  1.00  0.00     0.271 C 
BRANCH   8   9
HETATM    9  N   UNL     1      62.039   6.645   2.678  1.00  0.00    -0.075 N 
HETATM   10  C   UNL     1      61.728   5.907   3.894  1.00  0.00     0.267 C 
HETATM   11  H   UNL     1      62.236   5.983   1.928  1.00  0.00     0.277 HD
HETATM   12  H   UNL     1      61.236   7.228   2.439  1.00  0.00     0.277 HD
ENDBRANCH   8   9
ENDBRANCH   3   8
TORSDOF 2
ENDMDL
