MODEL 1
REMARK VINA RESULT:      -5.5      0.000      0.000
REMARK  1 active torsions:
REMARK  status: ('A' for Active; 'I' for Inactive)
REMARK       I    between atoms: C_5  and  N_6 
REMARK    1  A    between atoms: N_6  and  C_8 
ROOT
HETATM    1  C   UNL     1      62.712   8.871   2.889  1.00  0.00     0.016 A 
HETATM    2  C   UNL     1      62.851   9.696   3.996  1.00  0.00    -0.042 A 
HETATM    3  C   UNL     1      61.925   9.567   1.882  1.00  0.00     0.160 A 
HETATM    4  C   UNL     1      63.256   7.607   2.828  1.00  0.00     0.018 A 
HETATM    5  C   UNL     1      63.566   9.248   5.105  1.00  0.00     0.037 A 
HETATM    6  C   UNL     1      64.135   7.959   5.083  1.00  0.00     0.035 A 
HETATM    7  C   UNL     1      62.171  11.016   3.803  1.00  0.00     0.047 A 
HETATM    8  C   UNL     1      61.531  10.924   2.405  1.00  0.00     0.088 A 
HETATM    9  O   UNL     1      61.637   9.103   0.793  1.00  0.00    -0.292 OA
HETATM   10  C   UNL     1      63.971   7.155   3.939  1.00  0.00     0.030 A 
ENDROOT
BRANCH   6  11
HETATM   11  N   UNL     1      64.845   7.534   6.231  1.00  0.00    -0.328 N 
HETATM   12  C   UNL     1      66.190   7.743   6.500  1.00  0.00     0.218 C 
HETATM   13  O   UNL     1      66.998   8.339   5.797  1.00  0.00    -0.274 OA
HETATM   14  C   UNL     1      66.627   7.143   7.812  1.00  0.00     0.117 C 
HETATM   15  H   UNL     1      64.332   7.037   6.909  1.00  0.00     0.169 HD
ENDBRANCH   6  11
TORSDOF 1
ENDMDL
MODEL 2
REMARK VINA RESULT:      -5.5      1.033      1.978
REMARK  1 active torsions:
REMARK  status: ('A' for Active; 'I' for Inactive)
REMARK       I    between atoms: C_5  and  N_6 
REMARK    1  A    between atoms: N_6  and  C_8 
ROOT
HETATM    1  C   UNL     1      62.463   9.837   3.218  1.00  0.00     0.016 A 
HETATM    2  C   UNL     1      62.856   8.527   2.984  1.00  0.00    -0.042 A 
HETATM    3  C   UNL     1      61.822  10.356   2.020  1.00  0.00     0.160 A 
HETATM    4  C   UNL     1      62.682  10.477   4.418  1.00  0.00     0.018 A 
HETATM    5  C   UNL     1      63.502   7.810   3.988  1.00  0.00     0.037 A 
HETATM    6  C   UNL     1      63.749   8.431   5.229  1.00  0.00     0.035 A 
HETATM    7  C   UNL     1      62.494   8.070   1.605  1.00  0.00     0.047 A 
HETATM    8  C   UNL     1      61.828   9.294   0.950  1.00  0.00     0.088 A 
HETATM    9  O   UNL     1      61.363  11.480   1.917  1.00  0.00    -0.292 OA
HETATM   10  C   UNL     1      63.331   9.761   5.426  1.00  0.00     0.030 A 
ENDROOT
BRANCH   6  11
HETATM   11  N   UNL     1      64.417   7.676   6.222  1.00  0.00    -0.328 N 
HETATM   12  C   UNL     1      65.773   7.705   6.515  1.00  0.00     0.218 C 
HETATM   13  O   UNL     1      66.629   8.393   5.972  1.00  0.00    -0.274 OA
HETATM   14  C   UNL     1      66.154   6.761   7.626  1.00  0.00     0.117 C 
HETATM   15  H   UNL     1      63.862   7.067   6.761  1.00  0.00     0.169 HD
ENDBRANCH   6  11
TORSDOF 1
ENDMDL
MODEL 3
REMARK VINA RESULT:      -5.3      2.297      2.968
REMARK  1 active torsions:
REMARK  status: ('A' for Active; 'I' for Inactive)
REMARK       I    between atoms: C_5  and  N_6 
REMARK    1  A    between atoms: N_6  and  C_8 
ROOT
HETATM    1  C   UNL     1      62.506   9.887   3.878  1.00  0.00     0.016 A 
HETATM    2  C   UNL     1      62.496   9.190   2.678  1.00  0.00    -0.042 A 
HETATM    3  C   UNL     1      62.004  11.232   3.643  1.00  0.00     0.160 A 
HETATM    4  C   UNL     1      62.939   9.329   5.061  1.00  0.00     0.018 A 
HETATM    5  C   UNL     1      62.939   7.869   2.643  1.00  0.00     0.037 A 
HETATM    6  C   UNL     1      63.394   7.263   3.832  1.00  0.00     0.035 A 
HETATM    7  C   UNL     1      61.973  10.023   1.549  1.00  0.00     0.047 A 
HETATM    8  C   UNL     1      61.669  11.392   2.183  1.00  0.00     0.088 A 
HETATM    9  O   UNL     1      61.887  12.083   4.507  1.00  0.00    -0.292 OA
HETATM   10  C   UNL     1      63.386   8.006   5.028  1.00  0.00     0.030 A 
ENDROOT
BRANCH   6  11
HETATM   11  N   UNL     1      63.847   5.925   3.756  1.00  0.00    -0.328 N 
HETATM   12  C   UNL     1      65.164   5.497   3.685  1.00  0.00     0.218 C 
HETATM   13  O   UNL     1      66.168   6.200   3.682  1.00  0.00    -0.274 OA
HETATM   14  C   UNL     1      65.292   3.997   3.602  1.00  0.00     0.117 C 
HETATM   15  H   UNL     1      63.155   5.224   3.754  1.00  0.00     0.169 HD
ENDBRANCH   6  11
TORSDOF 1
ENDMDL
MODEL 4
REMARK VINA RESULT:      -5.1      1.902      5.681
REMARK  1 active torsions:
REMARK  status: ('A' for Active; 'I' for Inactive)
REMARK       I    between atoms: C_5  and  N_6 
REMARK    1  A    between atoms: N_6  and  C_8 
ROOT
HETATM    1  C   UNL     1      64.903   8.211   4.953  1.00  0.00     0.016 A 
HETATM    2  C   UNL     1      64.838   7.213   3.991  1.00  0.00    -0.042 A 
HETATM    3  C   UNL     1      66.153   8.076   5.686  1.00  0.00     0.160 A 
HETATM    4  C   UNL     1      63.904   9.143   5.129  1.00  0.00     0.018 A 
HETATM    5  C   UNL     1      63.725   7.129   3.158  1.00  0.00     0.037 A 
HETATM    6  C   UNL     1      62.679   8.062   3.309  1.00  0.00     0.035 A 
HETATM    7  C   UNL     1      66.053   6.338   4.006  1.00  0.00     0.047 A 
HETATM    8  C   UNL     1      66.920   6.894   5.151  1.00  0.00     0.088 A 
HETATM    9  O   UNL     1      66.503   8.812   6.592  1.00  0.00    -0.292 OA
HETATM   10  C   UNL     1      62.786   9.060   4.296  1.00  0.00     0.030 A 
ENDROOT
BRANCH   6  11
HETATM   11  N   UNL     1      61.559   7.940   2.453  1.00  0.00    -0.328 N 
HETATM   12  C   UNL     1      61.437   8.450   1.168  1.00  0.00     0.218 C 
HETATM   13  O   UNL     1      62.278   9.088   0.546  1.00  0.00    -0.274 OA
HETATM   14  C   UNL     1      60.101   8.147   0.540  1.00  0.00     0.117 C 
HETATM   15  H   UNL     1      60.787   7.441   2.804  1.00  0.00     0.169 HD
ENDBRANCH   6  11
TORSDOF 1
ENDMDL
MODEL 5
REMARK VINA RESULT:      -4.9      2.750      5.741
REMARK  1 active torsions:
REMARK  status: ('A' for Active; 'I' for Inactive)
REMARK       I    between atoms: C_5  and  N_6 
REMARK    1  A    between atoms: N_6  and  C_8 
ROOT
HETATM    1  C   UNL     1      63.607   8.841   4.521  1.00  0.00     0.016 A 
HETATM    2  C   UNL     1      63.534   7.725   3.700  1.00  0.00    -0.042 A 
HETATM    3  C   UNL     1      64.866   8.807   5.250  1.00  0.00     0.160 A 
HETATM    4  C   UNL     1      62.605   9.785   4.587  1.00  0.00     0.018 A 
HETATM    5  C   UNL     1      62.411   7.529   2.900  1.00  0.00     0.037 A 
HETATM    6  C   UNL     1      61.362   8.470   2.941  1.00  0.00     0.035 A 
HETATM    7  C   UNL     1      64.753   6.863   3.814  1.00  0.00     0.047 A 
HETATM    8  C   UNL     1      65.632   7.567   4.864  1.00  0.00     0.088 A 
HETATM    9  O   UNL     1      65.223   9.656   6.047  1.00  0.00    -0.292 OA
HETATM   10  C   UNL     1      61.477   9.590   3.787  1.00  0.00     0.030 A 
ENDROOT
BRANCH   6  11
HETATM   11  N   UNL     1      60.233   8.233   2.122  1.00  0.00    -0.328 N 
HETATM   12  C   UNL     1      59.149   7.420   2.419  1.00  0.00     0.218 C 
HETATM   13  O   UNL     1      58.974   6.770   3.444  1.00  0.00    -0.274 OA
HETATM   14  C   UNL     1      58.123   7.382   1.316  1.00  0.00     0.117 C 
HETATM   15  H   UNL     1      60.214   8.692   1.252  1.00  0.00     0.169 HD
ENDBRANCH   6  11
TORSDOF 1
ENDMDL
MODEL 6
REMARK VINA RESULT:      -4.8      1.561      1.721
REMARK  1 active torsions:
REMARK  status: ('A' for Active; 'I' for Inactive)
REMARK       I    between atoms: C_5  and  N_6 
REMARK    1  A    between atoms: N_6  and  C_8 
ROOT
HETATM    1  C   UNL     1      63.195   8.378   3.580  1.00  0.00     0.016 A 
HETATM    2  C   UNL     1      63.720   9.067   4.664  1.00  0.00    -0.042 A 
HETATM    3  C   UNL     1      62.044   9.109   3.073  1.00  0.00     0.160 A 
HETATM    4  C   UNL     1      63.729   7.195   3.118  1.00  0.00     0.018 A 
HETATM    5  C   UNL     1      64.834   8.560   5.329  1.00  0.00     0.037 A 
HETATM    6  C   UNL     1      65.408   7.350   4.890  1.00  0.00     0.035 A 
HETATM    7  C   UNL     1      62.958  10.322   4.954  1.00  0.00     0.047 A 
HETATM    8  C   UNL     1      61.825  10.341   3.912  1.00  0.00     0.088 A 
HETATM    9  O   UNL     1      61.372   8.758   2.119  1.00  0.00    -0.292 OA
HETATM   10  C   UNL     1      64.845   6.684   3.785  1.00  0.00     0.030 A 
ENDROOT
BRANCH   6  11
HETATM   11  N   UNL     1      66.532   6.860   5.597  1.00  0.00    -0.328 N 
HETATM   12  C   UNL     1      66.530   5.893   6.592  1.00  0.00     0.218 C 
HETATM   13  O   UNL     1      65.558   5.287   7.029  1.00  0.00    -0.274 OA
HETATM   14  C   UNL     1      67.904   5.616   7.145  1.00  0.00     0.117 C 
HETATM   15  H   UNL     1      67.406   7.246   5.358  1.00  0.00     0.169 HD
ENDBRANCH   6  11
TORSDOF 1
ENDMDL
MODEL 7
REMARK VINA RESULT:      -4.8      2.669      4.047
REMARK  1 active torsions:
REMARK  status: ('A' for Active; 'I' for Inactive)
REMARK       I    between atoms: C_5  and  N_6 
REMARK    1  A    between atoms: N_6  and  C_8 
ROOT
HETATM    1  C   UNL     1      63.383   9.420   4.695  1.00  0.00     0.016 A 
HETATM    2  C   UNL     1      62.742   9.258   3.475  1.00  0.00    -0.042 A 
HETATM    3  C   UNL     1      63.002  10.707   5.258  1.00  0.00     0.160 A 
HETATM    4  C   UNL     1      64.233   8.473   5.222  1.00  0.00     0.018 A 
HETATM    5  C   UNL     1      62.951   8.098   2.734  1.00  0.00     0.037 A 
HETATM    6  C   UNL     1      63.817   7.106   3.237  1.00  0.00     0.035 A 
HETATM    7  C   UNL     1      61.872  10.429   3.138  1.00  0.00     0.047 A 
HETATM    8  C   UNL     1      62.062  11.408   4.312  1.00  0.00     0.088 A 
HETATM    9  O   UNL     1      63.398  11.133   6.329  1.00  0.00    -0.292 OA
HETATM   10  C   UNL     1      64.447   7.309   4.480  1.00  0.00     0.030 A 
ENDROOT
BRANCH   6  11
HETATM   11  N   UNL     1      64.015   5.945   2.452  1.00  0.00    -0.328 N 
HETATM   12  C   UNL     1      63.386   4.719   2.610  1.00  0.00     0.218 C 
HETATM   13  O   UNL     1      62.545   4.425   3.452  1.00  0.00    -0.274 OA
HETATM   14  C   UNL     1      63.841   3.691   1.606  1.00  0.00     0.117 C 
HETATM   15  H   UNL     1      64.666   6.015   1.716  1.00  0.00     0.169 HD
ENDBRANCH   6  11
TORSDOF 1
ENDMDL
MODEL 8
REMARK VINA RESULT:      -4.7      1.883      5.703
REMARK  1 active torsions:
REMARK  status: ('A' for Active; 'I' for Inactive)
REMARK       I    between atoms: C_5  and  N_6 
REMARK    1  A    between atoms: N_6  and  C_8 
ROOT
HETATM    1  C   UNL     1      65.027   6.787   6.511  1.00  0.00     0.016 A 
HETATM    2  C   UNL     1      65.702   7.759   5.787  1.00  0.00    -0.042 A 
HETATM    3  C   UNL     1      66.000   5.949   7.195  1.00  0.00     0.160 A 
HETATM    4  C   UNL     1      63.652   6.690   6.526  1.00  0.00     0.018 A 
HETATM    5  C   UNL     1      64.983   8.686   5.037  1.00  0.00     0.037 A 
HETATM    6  C   UNL     1      63.575   8.618   5.024  1.00  0.00     0.035 A 
HETATM    7  C   UNL     1      67.187   7.647   5.946  1.00  0.00     0.047 A 
HETATM    8  C   UNL     1      67.391   6.426   6.863  1.00  0.00     0.088 A 
HETATM    9  O   UNL     1      65.714   5.010   7.916  1.00  0.00    -0.292 OA
HETATM   10  C   UNL     1      62.929   7.617   5.774  1.00  0.00     0.030 A 
ENDROOT
BRANCH   6  11
HETATM   11  N   UNL     1      62.877   9.570   4.243  1.00  0.00    -0.328 N 
HETATM   12  C   UNL     1      62.538   9.455   2.902  1.00  0.00     0.218 C 
HETATM   13  O   UNL     1      62.775   8.508   2.161  1.00  0.00    -0.274 OA
HETATM   14  C   UNL     1      61.806  10.662   2.376  1.00  0.00     0.117 C 
HETATM   15  H   UNL     1      62.604  10.399   4.697  1.00  0.00     0.169 HD
ENDBRANCH   6  11
TORSDOF 1
ENDMDL
MODEL 9
REMARK VINA RESULT:      -4.4      1.793      2.058
REMARK  1 active torsions:
REMARK  status: ('A' for Active; 'I' for Inactive)
REMARK       I    between atoms: C_5  and  N_6 
REMARK    1  A    between atoms: N_6  and  C_8 
ROOT
HETATM    1  C   UNL     1      61.380   7.700   3.460  1.00  0.00     0.016 A 
HETATM    2  C   UNL     1      62.496   8.470   3.165  1.00  0.00    -0.042 A 
HETATM    3  C   UNL     1      60.427   7.817   2.368  1.00  0.00     0.160 A 
HETATM    4  C   UNL     1      61.264   6.971   4.624  1.00  0.00     0.018 A 
HETATM    5  C   UNL     1      63.555   8.525   4.068  1.00  0.00     0.037 A 
HETATM    6  C   UNL     1      63.473   7.797   5.272  1.00  0.00     0.035 A 
HETATM    7  C   UNL     1      62.371   9.155   1.840  1.00  0.00     0.047 A 
HETATM    8  C   UNL     1      60.983   8.742   1.316  1.00  0.00     0.088 A 
HETATM    9  O   UNL     1      59.349   7.250   2.331  1.00  0.00    -0.292 OA
HETATM   10  C   UNL     1      62.324   7.026   5.532  1.00  0.00     0.030 A 
ENDROOT
BRANCH   6  11
HETATM   11  N   UNL     1      64.563   7.885   6.170  1.00  0.00    -0.328 N 
HETATM   12  C   UNL     1      65.625   6.999   6.277  1.00  0.00     0.218 C 
HETATM   13  O   UNL     1      65.811   5.988   5.609  1.00  0.00    -0.274 OA
HETATM   14  C   UNL     1      66.608   7.386   7.351  1.00  0.00     0.117 C 
HETATM   15  H   UNL     1      64.568   8.656   6.783  1.00  0.00     0.169 HD
ENDBRANCH   6  11
TORSDOF 1
ENDMDL
