MODEL 1
REMARK VINA RESULT:      -4.6      0.000      0.000
REMARK  3 active torsions:
REMARK  status: ('A' for Active; 'I' for Inactive)
REMARK    1  A    between atoms: C_1  and  C_7 
REMARK    2  A    between atoms: C_7  and  C_8 
REMARK    3  A    between atoms: C_8  and  O_10 
ROOT
HETATM    1  C   UNL     1      63.712   8.486   5.189  1.00  0.00     0.032 A 
HETATM    2  N   UNL     1      65.082   8.717   5.118  1.00  0.00    -0.356 N 
ATOM      3  HN  UNL     1      65.517   9.493   4.619  1.00  0.00     0.166 HD
HETATM    4  S   UNL     1      64.759   6.616   6.563  1.00  0.00    -0.080 SA
HETATM    5  C   UNL     1      63.353   7.393   5.965  1.00  0.00     0.004 A 
HETATM    6  C   UNL     1      65.735   7.792   5.787  1.00  0.00     0.047 A 
HETATM    7  C   UNL     1      62.008   6.842   6.283  1.00  0.00     0.058 C 
HETATM    8  C   UNL     1      67.217   7.718   5.903  1.00  0.00     0.076 C 
ENDROOT
BRANCH   1   9
HETATM    9  C   UNL     1      62.800   9.431   4.472  1.00  0.00     0.169 C 
BRANCH   9  10
HETATM   10  C   UNL     1      62.740  10.793   5.126  1.00  0.00     0.264 C 
HETATM   11  O   UNL     1      63.263  11.116   6.186  1.00  0.00    -0.265 OA
BRANCH  10  12
HETATM   12  O   UNL     1      62.034  11.654   4.333  1.00  0.00    -0.326 OA
HETATM   13  C   UNL     1      61.826  11.161   3.007  1.00  0.00     0.213 C 
ENDBRANCH  10  12
ENDBRANCH   9  10
ENDBRANCH   1   9
TORSDOF 3
ENDMDL
MODEL 2
REMARK VINA RESULT:      -4.4      2.924      4.542
REMARK  3 active torsions:
REMARK  status: ('A' for Active; 'I' for Inactive)
REMARK    1  A    between atoms: C_1  and  C_7 
REMARK    2  A    between atoms: C_7  and  C_8 
REMARK    3  A    between atoms: C_8  and  O_10 
ROOT
HETATM    1  C   UNL     1      62.502   9.501   3.349  1.00  0.00     0.032 A 
HETATM    2  N   UNL     1      62.752   8.145   3.170  1.00  0.00    -0.356 N 
ATOM      3  HN  UNL     1      63.031   7.501   3.911  1.00  0.00     0.166 HD
HETATM    4  S   UNL     1      62.074   9.082   0.875  1.00  0.00    -0.080 SA
HETATM    5  C   UNL     1      62.091  10.166   2.203  1.00  0.00     0.004 A 
HETATM    6  C   UNL     1      62.576   7.812   1.910  1.00  0.00     0.047 A 
HETATM    7  C   UNL     1      61.727  11.595   2.000  1.00  0.00     0.058 C 
HETATM    8  C   UNL     1      62.779   6.445   1.360  1.00  0.00     0.076 C 
ENDROOT
BRANCH   1   9
HETATM    9  C   UNL     1      62.666  10.074   4.722  1.00  0.00     0.169 C 
BRANCH   9  10
HETATM   10  C   UNL     1      63.411   9.146   5.655  1.00  0.00     0.264 C 
HETATM   11  O   UNL     1      62.918   8.278   6.366  1.00  0.00    -0.265 OA
BRANCH  10  12
HETATM   12  O   UNL     1      64.754   9.387   5.570  1.00  0.00    -0.326 OA
HETATM   13  C   UNL     1      65.540   8.195   5.505  1.00  0.00     0.213 C 
ENDBRANCH  10  12
ENDBRANCH   9  10
ENDBRANCH   1   9
TORSDOF 3
ENDMDL
MODEL 3
REMARK VINA RESULT:      -4.3      2.092      2.907
REMARK  3 active torsions:
REMARK  status: ('A' for Active; 'I' for Inactive)
REMARK    1  A    between atoms: C_1  and  C_7 
REMARK    2  A    between atoms: C_7  and  C_8 
REMARK    3  A    between atoms: C_8  and  O_10 
ROOT
HETATM    1  C   UNL     1      65.292   7.093   5.865  1.00  0.00     0.032 A 
HETATM    2  N   UNL     1      65.220   7.090   7.254  1.00  0.00    -0.356 N 
ATOM      3  HN  UNL     1      64.404   7.373   7.797  1.00  0.00     0.166 HD
HETATM    4  S   UNL     1      67.559   6.223   6.631  1.00  0.00    -0.080 SA
HETATM    5  C   UNL     1      66.491   6.621   5.351  1.00  0.00     0.004 A 
HETATM    6  C   UNL     1      66.356   6.668   7.767  1.00  0.00     0.047 A 
HETATM    7  C   UNL     1      66.934   6.465   3.939  1.00  0.00     0.058 C 
HETATM    8  C   UNL     1      66.637   6.560   9.225  1.00  0.00     0.076 C 
ENDROOT
BRANCH   1   9
HETATM    9  C   UNL     1      64.094   7.559   5.099  1.00  0.00     0.169 C 
BRANCH   9  10
HETATM   10  C   UNL     1      63.912   9.059   5.157  1.00  0.00     0.264 C 
HETATM   11  O   UNL     1      64.629   9.857   5.747  1.00  0.00    -0.265 OA
BRANCH  10  12
HETATM   12  O   UNL     1      62.826   9.420   4.408  1.00  0.00    -0.326 OA
HETATM   13  C   UNL     1      62.428  10.778   4.607  1.00  0.00     0.213 C 
ENDBRANCH  10  12
ENDBRANCH   9  10
ENDBRANCH   1   9
TORSDOF 3
ENDMDL
MODEL 4
REMARK VINA RESULT:      -4.2      2.900      4.771
REMARK  3 active torsions:
REMARK  status: ('A' for Active; 'I' for Inactive)
REMARK    1  A    between atoms: C_1  and  C_7 
REMARK    2  A    between atoms: C_7  and  C_8 
REMARK    3  A    between atoms: C_8  and  O_10 
ROOT
HETATM    1  C   UNL     1      62.465   8.654   3.669  1.00  0.00     0.032 A 
HETATM    2  N   UNL     1      62.194  10.017   3.650  1.00  0.00    -0.356 N 
ATOM      3  HN  UNL     1      62.142  10.613   4.477  1.00  0.00     0.166 HD
HETATM    4  S   UNL     1      62.190   9.229   1.204  1.00  0.00    -0.080 SA
HETATM    5  C   UNL     1      62.529   8.064   2.414  1.00  0.00     0.004 A 
HETATM    6  C   UNL     1      62.015  10.430   2.414  1.00  0.00     0.047 A 
HETATM    7  C   UNL     1      62.802   6.652   2.030  1.00  0.00     0.058 C 
HETATM    8  C   UNL     1      61.685  11.829   2.028  1.00  0.00     0.076 C 
ENDROOT
BRANCH   1   9
HETATM    9  C   UNL     1      62.683   7.996   4.995  1.00  0.00     0.169 C 
BRANCH   9  10
HETATM   10  C   UNL     1      64.001   8.381   5.627  1.00  0.00     0.264 C 
HETATM   11  O   UNL     1      64.655   9.390   5.389  1.00  0.00    -0.265 OA
BRANCH  10  12
HETATM   12  O   UNL     1      64.358   7.444   6.556  1.00  0.00    -0.326 OA
HETATM   13  C   UNL     1      65.757   7.148   6.553  1.00  0.00     0.213 C 
ENDBRANCH  10  12
ENDBRANCH   9  10
ENDBRANCH   1   9
TORSDOF 3
ENDMDL
MODEL 5
REMARK VINA RESULT:      -4.2      2.977      4.754
REMARK  3 active torsions:
REMARK  status: ('A' for Active; 'I' for Inactive)
REMARK    1  A    between atoms: C_1  and  C_7 
REMARK    2  A    between atoms: C_7  and  C_8 
REMARK    3  A    between atoms: C_8  and  O_10 
ROOT
HETATM    1  C   UNL     1      62.932   8.999   4.090  1.00  0.00     0.032 A 
HETATM    2  N   UNL     1      62.785   8.292   2.902  1.00  0.00    -0.356 N 
ATOM      3  HN  UNL     1      63.044   7.314   2.769  1.00  0.00     0.166 HD
HETATM    4  S   UNL     1      61.892  10.663   2.467  1.00  0.00    -0.080 SA
HETATM    5  C   UNL     1      62.467  10.305   4.042  1.00  0.00     0.004 A 
HETATM    6  C   UNL     1      62.266   9.065   1.973  1.00  0.00     0.047 A 
HETATM    7  C   UNL     1      62.442  11.354   5.097  1.00  0.00     0.058 C 
HETATM    8  C   UNL     1      61.993   8.640   0.573  1.00  0.00     0.076 C 
ENDROOT
BRANCH   1   9
HETATM    9  C   UNL     1      63.525   8.287   5.265  1.00  0.00     0.169 C 
BRANCH   9  10
HETATM   10  C   UNL     1      65.034   8.374   5.299  1.00  0.00     0.264 C 
HETATM   11  O   UNL     1      65.707   9.077   6.043  1.00  0.00    -0.265 OA
BRANCH  10  12
HETATM   12  O   UNL     1      65.565   7.508   4.384  1.00  0.00    -0.326 OA
HETATM   13  C   UNL     1      66.946   7.218   4.614  1.00  0.00     0.213 C 
ENDBRANCH  10  12
ENDBRANCH   9  10
ENDBRANCH   1   9
TORSDOF 3
ENDMDL
MODEL 6
REMARK VINA RESULT:      -4.1      2.979      4.587
REMARK  3 active torsions:
REMARK  status: ('A' for Active; 'I' for Inactive)
REMARK    1  A    between atoms: C_1  and  C_7 
REMARK    2  A    between atoms: C_7  and  C_8 
REMARK    3  A    between atoms: C_8  and  O_10 
ROOT
HETATM    1  C   UNL     1      63.505   8.847   4.156  1.00  0.00     0.032 A 
HETATM    2  N   UNL     1      63.141   8.271   2.944  1.00  0.00    -0.356 N 
ATOM      3  HN  UNL     1      63.499   7.384   2.588  1.00  0.00     0.166 HD
HETATM    4  S   UNL     1      61.806  10.458   3.155  1.00  0.00    -0.080 SA
HETATM    5  C   UNL     1      62.849  10.035   4.447  1.00  0.00     0.004 A 
HETATM    6  C   UNL     1      62.267   9.033   2.322  1.00  0.00     0.047 A 
HETATM    7  C   UNL     1      62.961  10.927   5.633  1.00  0.00     0.058 C 
HETATM    8  C   UNL     1      61.680   8.732   0.988  1.00  0.00     0.076 C 
ENDROOT
BRANCH   1   9
HETATM    9  C   UNL     1      64.508   8.131   5.004  1.00  0.00     0.169 C 
BRANCH   9  10
HETATM   10  C   UNL     1      63.864   7.224   6.028  1.00  0.00     0.264 C 
HETATM   11  O   UNL     1      64.203   7.090   7.198  1.00  0.00    -0.265 OA
BRANCH  10  12
HETATM   12  O   UNL     1      62.795   6.581   5.467  1.00  0.00    -0.326 OA
HETATM   13  C   UNL     1      61.672   6.478   6.345  1.00  0.00     0.213 C 
ENDBRANCH  10  12
ENDBRANCH   9  10
ENDBRANCH   1   9
TORSDOF 3
ENDMDL
MODEL 7
REMARK VINA RESULT:      -4.1      2.757      4.667
REMARK  3 active torsions:
REMARK  status: ('A' for Active; 'I' for Inactive)
REMARK    1  A    between atoms: C_1  and  C_7 
REMARK    2  A    between atoms: C_7  and  C_8 
REMARK    3  A    between atoms: C_8  and  O_10 
ROOT
HETATM    1  C   UNL     1      64.190   7.805   5.275  1.00  0.00     0.032 A 
HETATM    2  N   UNL     1      63.730   9.073   5.612  1.00  0.00    -0.356 N 
ATOM      3  HN  UNL     1      63.915   9.544   6.498  1.00  0.00     0.166 HD
HETATM    4  S   UNL     1      62.891   8.591   3.231  1.00  0.00    -0.080 SA
HETATM    5  C   UNL     1      63.849   7.392   3.995  1.00  0.00     0.004 A 
HETATM    6  C   UNL     1      63.023   9.579   4.625  1.00  0.00     0.047 A 
HETATM    7  C   UNL     1      64.161   6.125   3.280  1.00  0.00     0.058 C 
HETATM    8  C   UNL     1      62.360  10.911   4.654  1.00  0.00     0.076 C 
ENDROOT
BRANCH   1   9
HETATM    9  C   UNL     1      65.006   7.059   6.283  1.00  0.00     0.169 C 
BRANCH   9  10
HETATM   10  C   UNL     1      66.354   7.697   6.529  1.00  0.00     0.264 C 
HETATM   11  O   UNL     1      66.571   8.886   6.733  1.00  0.00    -0.265 OA
BRANCH  10  12
HETATM   12  O   UNL     1      67.325   6.735   6.532  1.00  0.00    -0.326 OA
HETATM   13  C   UNL     1      67.559   6.163   5.244  1.00  0.00     0.213 C 
ENDBRANCH  10  12
ENDBRANCH   9  10
ENDBRANCH   1   9
TORSDOF 3
ENDMDL
MODEL 8
REMARK VINA RESULT:      -3.7      3.864      5.089
REMARK  3 active torsions:
REMARK  status: ('A' for Active; 'I' for Inactive)
REMARK    1  A    between atoms: C_1  and  C_7 
REMARK    2  A    between atoms: C_7  and  C_8 
REMARK    3  A    between atoms: C_8  and  O_10 
ROOT
HETATM    1  C   UNL     1      62.240   9.275   2.167  1.00  0.00     0.032 A 
HETATM    2  N   UNL     1      62.601   8.325   3.116  1.00  0.00    -0.356 N 
ATOM      3  HN  UNL     1      62.805   7.346   2.914  1.00  0.00     0.166 HD
HETATM    4  S   UNL     1      62.286  10.545   4.373  1.00  0.00    -0.080 SA
HETATM    5  C   UNL     1      62.057  10.553   2.674  1.00  0.00     0.004 A 
HETATM    6  C   UNL     1      62.642   8.870   4.313  1.00  0.00     0.047 A 
HETATM    7  C   UNL     1      61.682  11.816   1.982  1.00  0.00     0.058 C 
HETATM    8  C   UNL     1      62.971   8.137   5.566  1.00  0.00     0.076 C 
ENDROOT
BRANCH   1   9
HETATM    9  C   UNL     1      62.125   8.838   0.741  1.00  0.00     0.169 C 
BRANCH   9  10
HETATM   10  C   UNL     1      61.928   7.345   0.602  1.00  0.00     0.264 C 
HETATM   11  O   UNL     1      62.756   6.536   0.200  1.00  0.00    -0.265 OA
BRANCH  10  12
HETATM   12  O   UNL     1      60.677   7.003   1.035  1.00  0.00    -0.326 OA
HETATM   13  C   UNL     1      59.632   7.506   0.200  1.00  0.00     0.213 C 
ENDBRANCH  10  12
ENDBRANCH   9  10
ENDBRANCH   1   9
TORSDOF 3
ENDMDL
MODEL 9
REMARK VINA RESULT:      -3.6      1.927      2.398
REMARK  3 active torsions:
REMARK  status: ('A' for Active; 'I' for Inactive)
REMARK    1  A    between atoms: C_1  and  C_7 
REMARK    2  A    between atoms: C_7  and  C_8 
REMARK    3  A    between atoms: C_8  and  O_10 
ROOT
HETATM    1  C   UNL     1      62.628   8.857   4.341  1.00  0.00     0.032 A 
HETATM    2  N   UNL     1      63.980   9.100   4.557  1.00  0.00    -0.356 N 
ATOM      3  HN  UNL     1      64.434  10.008   4.450  1.00  0.00     0.166 HD
HETATM    4  S   UNL     1      63.587   6.609   5.055  1.00  0.00    -0.080 SA
HETATM    5  C   UNL     1      62.232   7.551   4.594  1.00  0.00     0.004 A 
HETATM    6  C   UNL     1      64.590   7.992   4.919  1.00  0.00     0.047 A 
HETATM    7  C   UNL     1      60.889   6.919   4.489  1.00  0.00     0.058 C 
HETATM    8  C   UNL     1      66.046   7.883   5.209  1.00  0.00     0.076 C 
ENDROOT
BRANCH   1   9
HETATM    9  C   UNL     1      61.767  10.000   3.904  1.00  0.00     0.169 C 
BRANCH   9  10
HETATM   10  C   UNL     1      62.066  10.448   2.491  1.00  0.00     0.264 C 
HETATM   11  O   UNL     1      62.000  11.594   2.062  1.00  0.00    -0.265 OA
BRANCH  10  12
HETATM   12  O   UNL     1      62.469   9.377   1.743  1.00  0.00    -0.326 OA
HETATM   13  C   UNL     1      61.449   8.875   0.878  1.00  0.00     0.213 C 
ENDBRANCH  10  12
ENDBRANCH   9  10
ENDBRANCH   1   9
TORSDOF 3
ENDMDL
