MODEL 1
REMARK VINA RESULT:      -5.4      0.000      0.000
REMARK  2 active torsions:
REMARK  status: ('A' for Active; 'I' for Inactive)
REMARK    1  A    between atoms: S_1  and  C_2 
REMARK    2  A    between atoms: S_1  and  N_10 
ROOT
HETATM    1  C   UNL     1      62.902   9.448   3.901  1.00  0.00     0.084 A 
HETATM    2  C   UNL     1      62.968   8.362   2.998  1.00  0.00    -0.017 A 
HETATM    3  C   UNL     1      62.402   8.546   1.717  1.00  0.00     0.044 A 
HETATM    4  C   UNL     1      62.320  10.666   3.515  1.00  0.00     0.067 A 
HETATM    5  C   UNL     1      61.815   9.755   1.343  1.00  0.00     0.066 A 
HETATM    6  C   UNL     1      61.785  10.804   2.243  1.00  0.00     0.119 A 
HETATM    7 CL   UNL     1      62.389   7.277   0.537  1.00  0.00    -0.084 Cl
HETATM    8  F   UNL     1      61.223  11.965   1.887  1.00  0.00    -0.206 F 
HETATM    9  C   UNL     1      63.586   7.028   3.331  1.00  0.00     0.052 C 
ENDROOT
BRANCH   1  10
HETATM   10  S   UNL     1      63.463   9.345   5.583  1.00  0.00     0.240 S 
HETATM   11  O   UNL     1      64.906   9.320   5.587  1.00  0.00    -0.206 OA
HETATM   12  O   UNL     1      62.676   8.361   6.289  1.00  0.00    -0.206 OA
BRANCH  10  13
HETATM   13  N   UNL     1      62.997  10.815   6.250  1.00  0.00    -0.225 NA
HETATM   14  H   UNL     1      62.549  11.387   5.533  1.00  0.00     0.136 HD
HETATM   15  H   UNL     1      63.818  11.302   6.610  1.00  0.00     0.136 HD
ENDBRANCH  10  13
ENDBRANCH   1  10
TORSDOF 2
ENDMDL
MODEL 2
REMARK VINA RESULT:      -5.2      1.885      2.080
REMARK  2 active torsions:
REMARK  status: ('A' for Active; 'I' for Inactive)
REMARK    1  A    between atoms: S_1  and  C_2 
REMARK    2  A    between atoms: S_1  and  N_10 
ROOT
HETATM    1  C   UNL     1      63.551   8.852   4.606  1.00  0.00     0.084 A 
HETATM    2  C   UNL     1      63.036   8.462   3.348  1.00  0.00    -0.017 A 
HETATM    3  C   UNL     1      62.186   9.375   2.683  1.00  0.00     0.044 A 
HETATM    4  C   UNL     1      63.246  10.111   5.146  1.00  0.00     0.067 A 
HETATM    5  C   UNL     1      61.876  10.620   3.230  1.00  0.00     0.066 A 
HETATM    6  C   UNL     1      62.415  10.978   4.453  1.00  0.00     0.119 A 
HETATM    7 CL   UNL     1      61.463   8.995   1.154  1.00  0.00    -0.084 Cl
HETATM    8  F   UNL     1      62.120  12.172   4.980  1.00  0.00    -0.206 F 
HETATM    9  C   UNL     1      63.326   7.136   2.695  1.00  0.00     0.052 C 
ENDROOT
BRANCH   1  10
HETATM   10  S   UNL     1      64.540   7.782   5.622  1.00  0.00     0.240 S 
HETATM   11  O   UNL     1      65.192   6.814   4.773  1.00  0.00    -0.206 OA
HETATM   12  O   UNL     1      63.779   7.393   6.787  1.00  0.00    -0.206 OA
BRANCH  10  13
HETATM   13  N   UNL     1      65.739   8.796   6.220  1.00  0.00    -0.225 NA
HETATM   14  H   UNL     1      66.648   8.492   5.869  1.00  0.00     0.136 HD
HETATM   15  H   UNL     1      65.739   8.759   7.240  1.00  0.00     0.136 HD
ENDBRANCH  10  13
ENDBRANCH   1  10
TORSDOF 2
ENDMDL
MODEL 3
REMARK VINA RESULT:      -5.2      2.454      3.187
REMARK  2 active torsions:
REMARK  status: ('A' for Active; 'I' for Inactive)
REMARK    1  A    between atoms: S_1  and  C_2 
REMARK    2  A    between atoms: S_1  and  N_10 
ROOT
HETATM    1  C   UNL     1      63.076   8.645   4.060  1.00  0.00     0.084 A 
HETATM    2  C   UNL     1      62.592   9.957   3.844  1.00  0.00    -0.017 A 
HETATM    3  C   UNL     1      62.104  10.264   2.554  1.00  0.00     0.044 A 
HETATM    4  C   UNL     1      63.039   7.689   3.033  1.00  0.00     0.067 A 
HETATM    5  C   UNL     1      62.080   9.313   1.534  1.00  0.00     0.066 A 
HETATM    6  C   UNL     1      62.541   8.034   1.786  1.00  0.00     0.119 A 
HETATM    7 CL   UNL     1      61.520  11.847   2.157  1.00  0.00    -0.084 Cl
HETATM    8  F   UNL     1      62.518   7.119   0.809  1.00  0.00    -0.206 F 
HETATM    9  C   UNL     1      62.587  11.035   4.897  1.00  0.00     0.052 C 
ENDROOT
BRANCH   1  10
HETATM   10  S   UNL     1      63.826   8.128   5.586  1.00  0.00     0.240 S 
HETATM   11  O   UNL     1      62.797   8.018   6.591  1.00  0.00    -0.206 OA
HETATM   12  O   UNL     1      65.035   8.890   5.804  1.00  0.00    -0.206 OA
BRANCH  10  13
HETATM   13  N   UNL     1      64.362   6.570   5.259  1.00  0.00    -0.225 NA
HETATM   14  H   UNL     1      63.583   5.917   5.344  1.00  0.00     0.136 HD
HETATM   15  H   UNL     1      65.094   6.315   5.922  1.00  0.00     0.136 HD
ENDBRANCH  10  13
ENDBRANCH   1  10
TORSDOF 2
ENDMDL
MODEL 4
REMARK VINA RESULT:      -4.4      3.610      4.007
REMARK  2 active torsions:
REMARK  status: ('A' for Active; 'I' for Inactive)
REMARK    1  A    between atoms: S_1  and  C_2 
REMARK    2  A    between atoms: S_1  and  N_10 
ROOT
HETATM    1  C   UNL     1      62.386   8.685   3.097  1.00  0.00     0.084 A 
HETATM    2  C   UNL     1      63.491   8.095   3.755  1.00  0.00    -0.017 A 
HETATM    3  C   UNL     1      64.094   8.831   4.799  1.00  0.00     0.044 A 
HETATM    4  C   UNL     1      61.901   9.939   3.498  1.00  0.00     0.067 A 
HETATM    5  C   UNL     1      63.614  10.082   5.185  1.00  0.00     0.066 A 
HETATM    6  C   UNL     1      62.519  10.620   4.535  1.00  0.00     0.119 A 
HETATM    7 CL   UNL     1      65.477   8.230   5.654  1.00  0.00    -0.084 Cl
HETATM    8  F   UNL     1      62.056  11.821   4.904  1.00  0.00    -0.206 F 
HETATM    9  C   UNL     1      64.064   6.748   3.393  1.00  0.00     0.052 C 
ENDROOT
BRANCH   1  10
HETATM   10  S   UNL     1      61.586   7.945   1.694  1.00  0.00     0.240 S 
HETATM   11  O   UNL     1      61.030   6.677   2.096  1.00  0.00    -0.206 OA
HETATM   12  O   UNL     1      62.440   8.077   0.535  1.00  0.00    -0.206 OA
BRANCH  10  13
HETATM   13  N   UNL     1      60.294   8.973   1.385  1.00  0.00    -0.225 NA
HETATM   14  H   UNL     1      60.646   9.902   1.153  1.00  0.00     0.136 HD
HETATM   15  H   UNL     1      59.698   9.030   2.211  1.00  0.00     0.136 HD
ENDBRANCH  10  13
ENDBRANCH   1  10
TORSDOF 2
ENDMDL
MODEL 5
REMARK VINA RESULT:      -4.3      3.332      3.965
REMARK  2 active torsions:
REMARK  status: ('A' for Active; 'I' for Inactive)
REMARK    1  A    between atoms: S_1  and  C_2 
REMARK    2  A    between atoms: S_1  and  N_10 
ROOT
HETATM    1  C   UNL     1      63.205   8.679   3.728  1.00  0.00     0.084 A 
HETATM    2  C   UNL     1      63.463   7.482   3.019  1.00  0.00    -0.017 A 
HETATM    3  C   UNL     1      64.576   6.713   3.426  1.00  0.00     0.044 A 
HETATM    4  C   UNL     1      64.014   9.059   4.810  1.00  0.00     0.067 A 
HETATM    5  C   UNL     1      65.384   7.102   4.495  1.00  0.00     0.066 A 
HETATM    6  C   UNL     1      65.090   8.268   5.180  1.00  0.00     0.119 A 
HETATM    7 CL   UNL     1      65.015   5.247   2.612  1.00  0.00    -0.084 Cl
HETATM    8  F   UNL     1      65.863   8.643   6.206  1.00  0.00    -0.206 F 
HETATM    9  C   UNL     1      62.635   6.998   1.856  1.00  0.00     0.052 C 
ENDROOT
BRANCH   1  10
HETATM   10  S   UNL     1      61.916   9.815   3.274  1.00  0.00     0.240 S 
HETATM   11  O   UNL     1      62.042  10.116   1.869  1.00  0.00    -0.206 OA
HETATM   12  O   UNL     1      61.820  10.851   4.277  1.00  0.00    -0.206 OA
BRANCH  10  13
HETATM   13  N   UNL     1      60.509   8.916   3.460  1.00  0.00    -0.225 NA
HETATM   14  H   UNL     1      60.697   8.108   4.054  1.00  0.00     0.136 HD
HETATM   15  H   UNL     1      60.184   8.599   2.547  1.00  0.00     0.136 HD
ENDBRANCH  10  13
ENDBRANCH   1  10
TORSDOF 2
ENDMDL
MODEL 6
REMARK VINA RESULT:      -4.3      2.706      3.493
REMARK  2 active torsions:
REMARK  status: ('A' for Active; 'I' for Inactive)
REMARK    1  A    between atoms: S_1  and  C_2 
REMARK    2  A    between atoms: S_1  and  N_10 
ROOT
HETATM    1  C   UNL     1      63.865   7.951   3.990  1.00  0.00     0.084 A 
HETATM    2  C   UNL     1      62.827   8.686   3.371  1.00  0.00    -0.017 A 
HETATM    3  C   UNL     1      62.331   8.199   2.141  1.00  0.00     0.044 A 
HETATM    4  C   UNL     1      64.353   6.771   3.409  1.00  0.00     0.067 A 
HETATM    5  C   UNL     1      62.828   7.031   1.561  1.00  0.00     0.066 A 
HETATM    6  C   UNL     1      63.829   6.325   2.205  1.00  0.00     0.119 A 
HETATM    7 CL   UNL     1      61.087   9.032   1.268  1.00  0.00    -0.084 Cl
HETATM    8  F   UNL     1      64.307   5.204   1.651  1.00  0.00    -0.206 F 
HETATM    9  C   UNL     1      62.241   9.954   3.936  1.00  0.00     0.052 C 
ENDROOT
BRANCH   1  10
HETATM   10  S   UNL     1      64.675   8.485   5.478  1.00  0.00     0.240 S 
HETATM   11  O   UNL     1      64.334   7.573   6.542  1.00  0.00    -0.206 OA
HETATM   12  O   UNL     1      64.525   9.916   5.615  1.00  0.00    -0.206 OA
BRANCH  10  13
HETATM   13  N   UNL     1      66.307   8.263   5.146  1.00  0.00    -0.225 NA
HETATM   14  H   UNL     1      66.773   7.881   5.970  1.00  0.00     0.136 HD
HETATM   15  H   UNL     1      66.730   9.158   4.900  1.00  0.00     0.136 HD
ENDBRANCH  10  13
ENDBRANCH   1  10
TORSDOF 2
ENDMDL
MODEL 7
REMARK VINA RESULT:      -4.1      3.256      3.711
REMARK  2 active torsions:
REMARK  status: ('A' for Active; 'I' for Inactive)
REMARK    1  A    between atoms: S_1  and  C_2 
REMARK    2  A    between atoms: S_1  and  N_10 
ROOT
HETATM    1  C   UNL     1      63.287   7.691   3.078  1.00  0.00     0.084 A 
HETATM    2  C   UNL     1      63.157   8.823   3.916  1.00  0.00    -0.017 A 
HETATM    3  C   UNL     1      62.392   9.906   3.430  1.00  0.00     0.044 A 
HETATM    4  C   UNL     1      62.649   7.648   1.828  1.00  0.00     0.067 A 
HETATM    5  C   UNL     1      61.769   9.863   2.183  1.00  0.00     0.066 A 
HETATM    6  C   UNL     1      61.899   8.732   1.397  1.00  0.00     0.119 A 
HETATM    7 CL   UNL     1      62.192  11.363   4.349  1.00  0.00    -0.084 Cl
HETATM    8  F   UNL     1      61.303   8.687   0.200  1.00  0.00    -0.206 F 
HETATM    9  C   UNL     1      63.799   8.941   5.274  1.00  0.00     0.052 C 
ENDROOT
BRANCH   1  10
HETATM   10  S   UNL     1      64.304   6.293   3.488  1.00  0.00     0.240 S 
HETATM   11  O   UNL     1      63.642   5.527   4.515  1.00  0.00    -0.206 OA
HETATM   12  O   UNL     1      65.677   6.725   3.616  1.00  0.00    -0.206 OA
BRANCH  10  13
HETATM   13  N   UNL     1      64.284   5.361   2.090  1.00  0.00    -0.225 NA
HETATM   14  H   UNL     1      64.093   5.959   1.285  1.00  0.00     0.136 HD
HETATM   15  H   UNL     1      63.556   4.650   2.165  1.00  0.00     0.136 HD
ENDBRANCH  10  13
ENDBRANCH   1  10
TORSDOF 2
ENDMDL
MODEL 8
REMARK VINA RESULT:      -4.1      3.064      3.568
REMARK  2 active torsions:
REMARK  status: ('A' for Active; 'I' for Inactive)
REMARK    1  A    between atoms: S_1  and  C_2 
REMARK    2  A    between atoms: S_1  and  N_10 
ROOT
HETATM    1  C   UNL     1      61.912   7.981   4.333  1.00  0.00     0.084 A 
HETATM    2  C   UNL     1      61.518   8.513   3.083  1.00  0.00    -0.017 A 
HETATM    3  C   UNL     1      60.493   7.837   2.384  1.00  0.00     0.044 A 
HETATM    4  C   UNL     1      61.280   6.844   4.859  1.00  0.00     0.067 A 
HETATM    5  C   UNL     1      59.876   6.701   2.906  1.00  0.00     0.066 A 
HETATM    6  C   UNL     1      60.272   6.219   4.141  1.00  0.00     0.119 A 
HETATM    7 CL   UNL     1      59.950   8.371   0.827  1.00  0.00    -0.084 Cl
HETATM    8  F   UNL     1      59.681   5.129   4.645  1.00  0.00    -0.206 F 
HETATM    9  C   UNL     1      62.138   9.735   2.457  1.00  0.00     0.052 C 
ENDROOT
BRANCH   1  10
HETATM   10  S   UNL     1      63.259   8.641   5.286  1.00  0.00     0.240 S 
HETATM   11  O   UNL     1      62.905   9.969   5.725  1.00  0.00    -0.206 OA
HETATM   12  O   UNL     1      64.504   8.363   4.608  1.00  0.00    -0.206 OA
BRANCH  10  13
HETATM   13  N   UNL     1      63.296   7.665   6.653  1.00  0.00    -0.225 NA
HETATM   14  H   UNL     1      64.029   6.962   6.549  1.00  0.00     0.136 HD
HETATM   15  H   UNL     1      62.394   7.202   6.766  1.00  0.00     0.136 HD
ENDBRANCH  10  13
ENDBRANCH   1  10
TORSDOF 2
ENDMDL
MODEL 9
REMARK VINA RESULT:      -4.0      2.244      2.518
REMARK  2 active torsions:
REMARK  status: ('A' for Active; 'I' for Inactive)
REMARK    1  A    between atoms: S_1  and  C_2 
REMARK    2  A    between atoms: S_1  and  N_10 
ROOT
HETATM    1  C   UNL     1      62.564   8.116   4.166  1.00  0.00     0.084 A 
HETATM    2  C   UNL     1      61.507   7.191   3.997  1.00  0.00    -0.017 A 
HETATM    3  C   UNL     1      60.679   7.350   2.863  1.00  0.00     0.044 A 
HETATM    4  C   UNL     1      62.788   9.128   3.220  1.00  0.00     0.067 A 
HETATM    5  C   UNL     1      60.899   8.365   1.932  1.00  0.00     0.066 A 
HETATM    6  C   UNL     1      61.955   9.240   2.117  1.00  0.00     0.119 A 
HETATM    7 CL   UNL     1      59.330   6.303   2.568  1.00  0.00    -0.084 Cl
HETATM    8  F   UNL     1      62.169  10.214   1.225  1.00  0.00    -0.206 F 
HETATM    9  C   UNL     1      61.209   6.070   4.960  1.00  0.00     0.052 C 
ENDROOT
BRANCH   1  10
HETATM   10  S   UNL     1      63.625   8.125   5.591  1.00  0.00     0.240 S 
HETATM   11  O   UNL     1      62.816   7.928   6.769  1.00  0.00    -0.206 OA
HETATM   12  O   UNL     1      64.564   9.217   5.478  1.00  0.00    -0.206 OA
BRANCH  10  13
HETATM   13  N   UNL     1      64.560   6.743   5.401  1.00  0.00    -0.225 NA
HETATM   14  H   UNL     1      64.435   6.374   4.458  1.00  0.00     0.136 HD
HETATM   15  H   UNL     1      64.272   6.040   6.082  1.00  0.00     0.136 HD
ENDBRANCH  10  13
ENDBRANCH   1  10
TORSDOF 2
ENDMDL
