MODEL 1
REMARK VINA RESULT:      -5.5      0.000      0.000
REMARK  2 active torsions:
REMARK  status: ('A' for Active; 'I' for Inactive)
REMARK    1  A    between atoms: C_1  and  C_7 
REMARK    2  A    between atoms: C_4  and  N_8 
ROOT
HETATM    1  C   UNL     1      63.418   8.373   5.182  1.00  0.00     0.093 A 
HETATM    2  N   UNL     1      62.665   8.050   6.251  1.00  0.00    -0.258 N 
ATOM      3  HN  UNL     1      61.691   8.305   6.409  1.00  0.00     0.195 HD
HETATM    4  C   UNL     1      64.736   7.842   5.345  1.00  0.00     0.087 A 
HETATM    5  C   UNL     1      64.707   7.181   6.547  1.00  0.00     0.101 A 
HETATM    6  O   UNL     1      63.468   7.306   7.088  1.00  0.00    -0.240 OA
HETATM    7  C   UNL     1      65.692   6.429   7.343  1.00  0.00     0.081 C 
ENDROOT
BRANCH   1   8
HETATM    8  C   UNL     1      62.859   9.176   4.093  1.00  0.00    -0.005 A 
HETATM    9  C   UNL     1      62.740   8.628   2.806  1.00  0.00     0.014 A 
HETATM   10  C   UNL     1      62.203   9.378   1.756  1.00  0.00     0.001 A 
HETATM   11  C   UNL     1      61.778  10.686   1.982  1.00  0.00     0.000 A 
HETATM   12  C   UNL     1      61.898  11.247   3.251  1.00  0.00     0.001 A 
HETATM   13  C   UNL     1      62.443  10.500   4.299  1.00  0.00     0.014 A 
ENDBRANCH   1   8
BRANCH   4  14
HETATM   14  N   UNL     1      65.814   7.958   4.536  1.00  0.00    -0.395 N 
HETATM   15  H   UNL     1      66.706   7.701   4.865  1.00  0.00     0.156 HD
HETATM   16  H   UNL     1      65.707   8.298   3.619  1.00  0.00     0.156 HD
ENDBRANCH   4  14
TORSDOF 2
ENDMDL
MODEL 2
REMARK VINA RESULT:      -5.5      0.555      1.448
REMARK  2 active torsions:
REMARK  status: ('A' for Active; 'I' for Inactive)
REMARK    1  A    between atoms: C_1  and  C_7 
REMARK    2  A    between atoms: C_4  and  N_8 
ROOT
HETATM    1  C   UNL     1      63.280   8.273   4.996  1.00  0.00     0.093 A 
HETATM    2  N   UNL     1      62.781   8.349   6.244  1.00  0.00    -0.258 N 
ATOM      3  HN  UNL     1      62.036   8.967   6.566  1.00  0.00     0.195 HD
HETATM    4  C   UNL     1      64.327   7.299   4.955  1.00  0.00     0.087 A 
HETATM    5  C   UNL     1      64.399   6.803   6.232  1.00  0.00     0.101 A 
HETATM    6  O   UNL     1      63.475   7.432   7.003  1.00  0.00    -0.240 OA
HETATM    7  C   UNL     1      65.243   5.804   6.912  1.00  0.00     0.081 C 
ENDROOT
BRANCH   1   8
HETATM    8  C   UNL     1      62.758   9.132   3.931  1.00  0.00    -0.005 A 
HETATM    9  C   UNL     1      62.385  10.455   4.216  1.00  0.00     0.014 A 
HETATM   10  C   UNL     1      61.892  11.291   3.211  1.00  0.00     0.001 A 
HETATM   11  C   UNL     1      61.764  10.813   1.908  1.00  0.00     0.000 A 
HETATM   12  C   UNL     1      62.121   9.499   1.612  1.00  0.00     0.001 A 
HETATM   13  C   UNL     1      62.607   8.660   2.619  1.00  0.00     0.014 A 
ENDBRANCH   1   8
BRANCH   4  14
HETATM   14  N   UNL     1      65.117   6.930   3.921  1.00  0.00    -0.395 N 
HETATM   15  H   UNL     1      64.923   7.258   3.014  1.00  0.00     0.156 HD
HETATM   16  H   UNL     1      65.885   6.335   4.076  1.00  0.00     0.156 HD
ENDBRANCH   4  14
TORSDOF 2
ENDMDL
MODEL 3
REMARK VINA RESULT:      -5.1      1.261      1.747
REMARK  2 active torsions:
REMARK  status: ('A' for Active; 'I' for Inactive)
REMARK    1  A    between atoms: C_1  and  C_7 
REMARK    2  A    between atoms: C_4  and  N_8 
ROOT
HETATM    1  C   UNL     1      64.343   8.165   5.657  1.00  0.00     0.093 A 
HETATM    2  N   UNL     1      65.522   8.651   6.089  1.00  0.00    -0.258 N 
ATOM      3  HN  UNL     1      65.926   9.559   5.863  1.00  0.00     0.195 HD
HETATM    4  C   UNL     1      64.143   6.849   6.183  1.00  0.00     0.087 A 
HETATM    5  C   UNL     1      65.251   6.604   6.954  1.00  0.00     0.101 A 
HETATM    6  O   UNL     1      66.075   7.682   6.897  1.00  0.00    -0.240 OA
HETATM    7  C   UNL     1      65.721   5.467   7.764  1.00  0.00     0.081 C 
ENDROOT
BRANCH   1   8
HETATM    8  C   UNL     1      63.495   8.955   4.762  1.00  0.00    -0.005 A 
HETATM    9  C   UNL     1      63.167   8.463   3.488  1.00  0.00     0.014 A 
HETATM   10  C   UNL     1      62.354   9.200   2.624  1.00  0.00     0.001 A 
HETATM   11  C   UNL     1      61.858  10.440   3.025  1.00  0.00     0.000 A 
HETATM   12  C   UNL     1      62.181  10.946   4.282  1.00  0.00     0.001 A 
HETATM   13  C   UNL     1      63.002  10.212   5.143  1.00  0.00     0.014 A 
ENDBRANCH   1   8
BRANCH   4  14
HETATM   14  N   UNL     1      63.121   5.988   5.977  1.00  0.00    -0.395 N 
HETATM   15  H   UNL     1      63.083   5.141   6.476  1.00  0.00     0.156 HD
HETATM   16  H   UNL     1      62.415   6.209   5.328  1.00  0.00     0.156 HD
ENDBRANCH   4  14
TORSDOF 2
ENDMDL
MODEL 4
REMARK VINA RESULT:      -4.9      2.298      4.987
REMARK  2 active torsions:
REMARK  status: ('A' for Active; 'I' for Inactive)
REMARK    1  A    between atoms: C_1  and  C_7 
REMARK    2  A    between atoms: C_4  and  N_8 
ROOT
HETATM    1  C   UNL     1      62.779   9.641   4.450  1.00  0.00     0.093 A 
HETATM    2  N   UNL     1      62.627  10.797   5.123  1.00  0.00    -0.258 N 
ATOM      3  HN  UNL     1      62.826  10.958   6.110  1.00  0.00     0.195 HD
HETATM    4  C   UNL     1      62.376   9.819   3.089  1.00  0.00     0.087 A 
HETATM    5  C   UNL     1      62.001  11.136   3.000  1.00  0.00     0.101 A 
HETATM    6  O   UNL     1      62.152  11.720   4.217  1.00  0.00    -0.240 OA
HETATM    7  C   UNL     1      61.472  11.995   1.927  1.00  0.00     0.081 C 
ENDROOT
BRANCH   1   8
HETATM    8  C   UNL     1      63.270   8.441   5.132  1.00  0.00    -0.005 A 
HETATM    9  C   UNL     1      64.649   8.254   5.319  1.00  0.00     0.014 A 
HETATM   10  C   UNL     1      65.134   7.119   5.974  1.00  0.00     0.001 A 
HETATM   11  C   UNL     1      64.245   6.156   6.448  1.00  0.00     0.000 A 
HETATM   12  C   UNL     1      62.875   6.323   6.262  1.00  0.00     0.001 A 
HETATM   13  C   UNL     1      62.390   7.455   5.600  1.00  0.00     0.014 A 
ENDBRANCH   1   8
BRANCH   4  14
HETATM   14  N   UNL     1      62.331   8.918   2.081  1.00  0.00    -0.395 N 
HETATM   15  H   UNL     1      63.166   8.607   1.662  1.00  0.00     0.156 HD
HETATM   16  H   UNL     1      61.465   8.573   1.768  1.00  0.00     0.156 HD
ENDBRANCH   4  14
TORSDOF 2
ENDMDL
MODEL 5
REMARK VINA RESULT:      -4.6      1.806      2.246
REMARK  2 active torsions:
REMARK  status: ('A' for Active; 'I' for Inactive)
REMARK    1  A    between atoms: C_1  and  C_7 
REMARK    2  A    between atoms: C_4  and  N_8 
ROOT
HETATM    1  C   UNL     1      63.490   8.581   4.180  1.00  0.00     0.093 A 
HETATM    2  N   UNL     1      63.566   9.667   4.973  1.00  0.00    -0.258 N 
ATOM      3  HN  UNL     1      62.913  10.449   4.999  1.00  0.00     0.195 HD
HETATM    4  C   UNL     1      64.606   7.722   4.432  1.00  0.00     0.087 A 
HETATM    5  C   UNL     1      65.321   8.350   5.419  1.00  0.00     0.101 A 
HETATM    6  O   UNL     1      64.699   9.513   5.742  1.00  0.00    -0.240 OA
HETATM    7  C   UNL     1      66.570   8.057   6.144  1.00  0.00     0.081 C 
ENDROOT
BRANCH   1   8
HETATM    8  C   UNL     1      62.390   8.433   3.224  1.00  0.00    -0.005 A 
HETATM    9  C   UNL     1      62.481   9.020   1.952  1.00  0.00     0.014 A 
HETATM   10  C   UNL     1      61.445   8.883   1.025  1.00  0.00     0.001 A 
HETATM   11  C   UNL     1      60.303   8.156   1.360  1.00  0.00     0.000 A 
HETATM   12  C   UNL     1      60.194   7.575   2.622  1.00  0.00     0.001 A 
HETATM   13  C   UNL     1      61.228   7.719   3.552  1.00  0.00     0.014 A 
ENDBRANCH   1   8
BRANCH   4  14
HETATM   14  N   UNL     1      64.941   6.553   3.839  1.00  0.00    -0.395 N 
HETATM   15  H   UNL     1      64.686   5.699   4.257  1.00  0.00     0.156 HD
HETATM   16  H   UNL     1      65.438   6.556   2.990  1.00  0.00     0.156 HD
ENDBRANCH   4  14
TORSDOF 2
ENDMDL
MODEL 6
REMARK VINA RESULT:      -4.6      1.545      2.115
REMARK  2 active torsions:
REMARK  status: ('A' for Active; 'I' for Inactive)
REMARK    1  A    between atoms: C_1  and  C_7 
REMARK    2  A    between atoms: C_4  and  N_8 
ROOT
HETATM    1  C   UNL     1      63.095   7.912   4.457  1.00  0.00     0.093 A 
HETATM    2  N   UNL     1      64.407   7.733   4.701  1.00  0.00    -0.258 N 
ATOM      3  HN  UNL     1      65.171   8.337   4.399  1.00  0.00     0.195 HD
HETATM    4  C   UNL     1      62.347   6.837   5.033  1.00  0.00     0.087 A 
HETATM    5  C   UNL     1      63.284   6.038   5.638  1.00  0.00     0.101 A 
HETATM    6  O   UNL     1      64.515   6.574   5.438  1.00  0.00    -0.240 OA
HETATM    7  C   UNL     1      63.239   4.774   6.393  1.00  0.00     0.081 C 
ENDROOT
BRANCH   1   8
HETATM    8  C   UNL     1      62.632   9.065   3.681  1.00  0.00    -0.005 A 
HETATM    9  C   UNL     1      62.457   8.953   2.293  1.00  0.00     0.014 A 
HETATM   10  C   UNL     1      62.010  10.040   1.538  1.00  0.00     0.001 A 
HETATM   11  C   UNL     1      61.733  11.255   2.164  1.00  0.00     0.000 A 
HETATM   12  C   UNL     1      61.911  11.384   3.540  1.00  0.00     0.001 A 
HETATM   13  C   UNL     1      62.365  10.298   4.294  1.00  0.00     0.014 A 
ENDBRANCH   1   8
BRANCH   4  14
HETATM   14  N   UNL     1      61.016   6.601   4.998  1.00  0.00    -0.395 N 
HETATM   15  H   UNL     1      60.440   7.125   4.395  1.00  0.00     0.156 HD
HETATM   16  H   UNL     1      60.623   5.907   5.573  1.00  0.00     0.156 HD
ENDBRANCH   4  14
TORSDOF 2
ENDMDL
MODEL 7
REMARK VINA RESULT:      -4.6      1.945      5.187
REMARK  2 active torsions:
REMARK  status: ('A' for Active; 'I' for Inactive)
REMARK    1  A    between atoms: C_1  and  C_7 
REMARK    2  A    between atoms: C_4  and  N_8 
ROOT
HETATM    1  C   UNL     1      64.475   8.523   5.048  1.00  0.00     0.093 A 
HETATM    2  N   UNL     1      64.059   9.645   5.666  1.00  0.00    -0.258 N 
ATOM      3  HN  UNL     1      64.450  10.055   6.513  1.00  0.00     0.195 HD
HETATM    4  C   UNL     1      63.657   8.273   3.902  1.00  0.00     0.087 A 
HETATM    5  C   UNL     1      62.760   9.311   3.873  1.00  0.00     0.101 A 
HETATM    6  O   UNL     1      63.001  10.131   4.929  1.00  0.00    -0.240 OA
HETATM    7  C   UNL     1      61.634   9.687   3.000  1.00  0.00     0.081 C 
ENDROOT
BRANCH   1   8
HETATM    8  C   UNL     1      65.596   7.749   5.587  1.00  0.00    -0.005 A 
HETATM    9  C   UNL     1      65.413   6.946   6.724  1.00  0.00     0.014 A 
HETATM   10  C   UNL     1      66.469   6.195   7.247  1.00  0.00     0.001 A 
HETATM   11  C   UNL     1      67.722   6.239   6.638  1.00  0.00     0.000 A 
HETATM   12  C   UNL     1      67.922   7.039   5.515  1.00  0.00     0.001 A 
HETATM   13  C   UNL     1      66.867   7.796   4.996  1.00  0.00     0.014 A 
ENDBRANCH   1   8
BRANCH   4  14
HETATM   14  N   UNL     1      63.700   7.245   3.024  1.00  0.00    -0.395 N 
HETATM   15  H   UNL     1      64.313   7.281   2.255  1.00  0.00     0.156 HD
HETATM   16  H   UNL     1      63.119   6.462   3.155  1.00  0.00     0.156 HD
ENDBRANCH   4  14
TORSDOF 2
ENDMDL
MODEL 8
REMARK VINA RESULT:      -4.6      1.862      5.171
REMARK  2 active torsions:
REMARK  status: ('A' for Active; 'I' for Inactive)
REMARK    1  A    between atoms: C_1  and  C_7 
REMARK    2  A    between atoms: C_4  and  N_8 
ROOT
HETATM    1  C   UNL     1      64.036   8.448   4.714  1.00  0.00     0.093 A 
HETATM    2  N   UNL     1      63.589   7.928   3.555  1.00  0.00    -0.258 N 
ATOM      3  HN  UNL     1      63.847   7.028   3.151  1.00  0.00     0.195 HD
HETATM    4  C   UNL     1      63.452   9.737   4.921  1.00  0.00     0.087 A 
HETATM    5  C   UNL     1      62.631   9.932   3.839  1.00  0.00     0.101 A 
HETATM    6  O   UNL     1      62.714   8.850   3.023  1.00  0.00    -0.240 OA
HETATM    7  C   UNL     1      61.749  11.021   3.388  1.00  0.00     0.081 C 
ENDROOT
BRANCH   1   8
HETATM    8  C   UNL     1      64.999   7.712   5.538  1.00  0.00    -0.005 A 
HETATM    9  C   UNL     1      66.377   7.881   5.329  1.00  0.00     0.014 A 
HETATM   10  C   UNL     1      67.309   7.193   6.109  1.00  0.00     0.001 A 
HETATM   11  C   UNL     1      66.873   6.325   7.109  1.00  0.00     0.000 A 
HETATM   12  C   UNL     1      65.509   6.139   7.323  1.00  0.00     0.001 A 
HETATM   13  C   UNL     1      64.576   6.822   6.536  1.00  0.00     0.014 A 
ENDBRANCH   1   8
BRANCH   4  14
HETATM   14  N   UNL     1      63.649  10.617   5.929  1.00  0.00    -0.395 N 
HETATM   15  H   UNL     1      64.560  10.920   6.145  1.00  0.00     0.156 HD
HETATM   16  H   UNL     1      62.882  10.955   6.445  1.00  0.00     0.156 HD
ENDBRANCH   4  14
TORSDOF 2
ENDMDL
MODEL 9
REMARK VINA RESULT:      -4.5      2.474      3.416
REMARK  2 active torsions:
REMARK  status: ('A' for Active; 'I' for Inactive)
REMARK    1  A    between atoms: C_1  and  C_7 
REMARK    2  A    between atoms: C_4  and  N_8 
ROOT
HETATM    1  C   UNL     1      65.228   6.449   6.950  1.00  0.00     0.093 A 
HETATM    2  N   UNL     1      65.061   5.185   7.381  1.00  0.00    -0.258 N 
ATOM      3  HN  UNL     1      64.304   4.550   7.128  1.00  0.00     0.195 HD
HETATM    4  C   UNL     1      66.401   7.010   7.548  1.00  0.00     0.087 A 
HETATM    5  C   UNL     1      66.914   6.007   8.330  1.00  0.00     0.101 A 
HETATM    6  O   UNL     1      66.112   4.916   8.230  1.00  0.00    -0.240 OA
HETATM    7  C   UNL     1      68.075   5.881   9.229  1.00  0.00     0.081 C 
ENDROOT
BRANCH   1   8
HETATM    8  C   UNL     1      64.267   7.055   6.026  1.00  0.00    -0.005 A 
HETATM    9  C   UNL     1      62.929   6.629   6.025  1.00  0.00     0.014 A 
HETATM   10  C   UNL     1      61.997   7.200   5.155  1.00  0.00     0.001 A 
HETATM   11  C   UNL     1      62.393   8.204   4.274  1.00  0.00     0.000 A 
HETATM   12  C   UNL     1      63.719   8.631   4.255  1.00  0.00     0.001 A 
HETATM   13  C   UNL     1      64.653   8.054   5.121  1.00  0.00     0.014 A 
ENDBRANCH   1   8
BRANCH   4  14
HETATM   14  N   UNL     1      66.917   8.254   7.424  1.00  0.00    -0.395 N 
HETATM   15  H   UNL     1      67.502   8.469   6.662  1.00  0.00     0.156 HD
HETATM   16  H   UNL     1      66.708   8.943   8.093  1.00  0.00     0.156 HD
ENDBRANCH   4  14
TORSDOF 2
ENDMDL
