MODEL 1
REMARK VINA RESULT:      -5.5      0.000      0.000
REMARK  3 active torsions:
REMARK  status: ('A' for Active; 'I' for Inactive)
REMARK    1  A    between atoms: C_1  and  O_6 
REMARK    2  A    between atoms: C_5  and  O_10 
REMARK    3  A    between atoms: O_6  and  C_8 
ROOT
HETATM    1  C   UNL     1      63.212   9.144   4.381  1.00  0.00     0.091 A 
HETATM    2  C   UNL     1      62.880   8.609   3.106  1.00  0.00    -0.019 A 
HETATM    3  C   UNL     1      62.141   9.402   2.189  1.00  0.00    -0.020 A 
HETATM    4  C   UNL     1      62.820  10.437   4.761  1.00  0.00    -0.025 A 
HETATM    5  C   UNL     1      61.799  10.708   2.569  1.00  0.00     0.072 A 
HETATM    6  C   UNL     1      62.144  11.219   3.817  1.00  0.00     0.046 A 
HETATM    7  C   UNL     1      63.288   7.205   2.735  1.00  0.00     0.052 C 
HETATM    8  C   UNL     1      61.692   8.870   0.852  1.00  0.00     0.052 C 
HETATM    9  C   UNL     1      63.084  11.045   6.107  1.00  0.00     0.051 C 
ENDROOT
BRANCH   1  10
HETATM   10  O   UNL     1      63.821   8.233   5.290  1.00  0.00    -0.278 OA
BRANCH  10  11
HETATM   11  C   UNL     1      65.177   8.194   5.616  1.00  0.00     0.260 C 
HETATM   12  O   UNL     1      65.824   9.059   6.186  1.00  0.00    -0.265 OA
HETATM   13  C   UNL     1      65.768   6.919   5.083  1.00  0.00     0.126 C 
ENDBRANCH  10  11
ENDBRANCH   1  10
BRANCH   5  14
HETATM   14  O   UNL     1      61.091  11.560   1.769  1.00  0.00    -0.360 OA
HETATM   15  H   UNL     1      60.331  11.994   2.102  1.00  0.00     0.217 HD
ENDBRANCH   5  14
TORSDOF 3
ENDMDL
MODEL 2
REMARK VINA RESULT:      -5.4      1.986      2.917
REMARK  3 active torsions:
REMARK  status: ('A' for Active; 'I' for Inactive)
REMARK    1  A    between atoms: C_1  and  O_6 
REMARK    2  A    between atoms: C_5  and  O_10 
REMARK    3  A    between atoms: O_6  and  C_8 
ROOT
HETATM    1  C   UNL     1      62.663   8.329   3.349  1.00  0.00     0.091 A 
HETATM    2  C   UNL     1      62.296   9.336   2.416  1.00  0.00    -0.019 A 
HETATM    3  C   UNL     1      62.086  10.664   2.870  1.00  0.00    -0.020 A 
HETATM    4  C   UNL     1      62.817   8.613   4.715  1.00  0.00    -0.025 A 
HETATM    5  C   UNL     1      62.291  10.939   4.230  1.00  0.00     0.072 A 
HETATM    6  C   UNL     1      62.663   9.942   5.128  1.00  0.00     0.046 A 
HETATM    7  C   UNL     1      62.108   8.997   0.957  1.00  0.00     0.052 C 
HETATM    8  C   UNL     1      61.624  11.763   1.947  1.00  0.00     0.052 C 
HETATM    9  C   UNL     1      63.145   7.593   5.765  1.00  0.00     0.051 C 
ENDROOT
BRANCH   1  10
HETATM   10  O   UNL     1      62.706   7.002   2.836  1.00  0.00    -0.278 OA
BRANCH  10  11
HETATM   11  C   UNL     1      63.861   6.307   2.474  1.00  0.00     0.260 C 
HETATM   12  O   UNL     1      64.927   6.285   3.072  1.00  0.00    -0.265 OA
HETATM   13  C   UNL     1      63.623   5.622   1.158  1.00  0.00     0.126 C 
ENDBRANCH  10  11
ENDBRANCH   1  10
BRANCH   5  14
HETATM   14  O   UNL     1      62.120  12.179   4.778  1.00  0.00    -0.360 OA
HETATM   15  H   UNL     1      61.692  12.854   4.290  1.00  0.00     0.217 HD
ENDBRANCH   5  14
TORSDOF 3
ENDMDL
MODEL 3
REMARK VINA RESULT:      -5.1      1.178      2.776
REMARK  3 active torsions:
REMARK  status: ('A' for Active; 'I' for Inactive)
REMARK    1  A    between atoms: C_1  and  O_6 
REMARK    2  A    between atoms: C_5  and  O_10 
REMARK    3  A    between atoms: O_6  and  C_8 
ROOT
HETATM    1  C   UNL     1      63.377   8.327   4.506  1.00  0.00     0.091 A 
HETATM    2  C   UNL     1      62.862   9.635   4.302  1.00  0.00    -0.019 A 
HETATM    3  C   UNL     1      62.277   9.967   3.052  1.00  0.00    -0.020 A 
HETATM    4  C   UNL     1      63.330   7.352   3.497  1.00  0.00    -0.025 A 
HETATM    5  C   UNL     1      62.195   8.966   2.073  1.00  0.00     0.072 A 
HETATM    6  C   UNL     1      62.694   7.685   2.295  1.00  0.00     0.046 A 
HETATM    7  C   UNL     1      62.954  10.673   5.393  1.00  0.00     0.052 C 
HETATM    8  C   UNL     1      61.779  11.356   2.744  1.00  0.00     0.052 C 
HETATM    9  C   UNL     1      63.904   5.971   3.620  1.00  0.00     0.051 C 
ENDROOT
BRANCH   1  10
HETATM   10  O   UNL     1      64.079   8.126   5.728  1.00  0.00    -0.278 OA
BRANCH  10  11
HETATM   11  C   UNL     1      65.466   8.045   5.866  1.00  0.00     0.260 C 
HETATM   12  O   UNL     1      66.308   8.637   5.208  1.00  0.00    -0.265 OA
HETATM   13  C   UNL     1      65.789   7.035   6.931  1.00  0.00     0.126 C 
ENDBRANCH  10  11
ENDBRANCH   1  10
BRANCH   5  14
HETATM   14  O   UNL     1      61.652   9.170   0.836  1.00  0.00    -0.360 OA
HETATM   15  H   UNL     1      60.723   9.242   0.737  1.00  0.00     0.217 HD
ENDBRANCH   5  14
TORSDOF 3
ENDMDL
MODEL 4
REMARK VINA RESULT:      -5.0      1.788      3.385
REMARK  3 active torsions:
REMARK  status: ('A' for Active; 'I' for Inactive)
REMARK    1  A    between atoms: C_1  and  O_6 
REMARK    2  A    between atoms: C_5  and  O_10 
REMARK    3  A    between atoms: O_6  and  C_8 
ROOT
HETATM    1  C   UNL     1      62.544   8.025   2.780  1.00  0.00     0.091 A 
HETATM    2  C   UNL     1      62.596   8.861   3.929  1.00  0.00    -0.019 A 
HETATM    3  C   UNL     1      62.354  10.252   3.790  1.00  0.00    -0.020 A 
HETATM    4  C   UNL     1      62.266   8.543   1.506  1.00  0.00    -0.025 A 
HETATM    5  C   UNL     1      62.031  10.744   2.516  1.00  0.00     0.072 A 
HETATM    6  C   UNL     1      61.972   9.908   1.404  1.00  0.00     0.046 A 
HETATM    7  C   UNL     1      62.927   8.282   5.282  1.00  0.00     0.052 C 
HETATM    8  C   UNL     1      62.466  11.205   4.952  1.00  0.00     0.052 C 
HETATM    9  C   UNL     1      62.252   7.733   0.242  1.00  0.00     0.051 C 
ENDROOT
BRANCH   1  10
HETATM   10  O   UNL     1      62.947   6.675   2.984  1.00  0.00    -0.278 OA
BRANCH  10  11
HETATM   11  C   UNL     1      64.242   6.179   2.823  1.00  0.00     0.260 C 
HETATM   12  O   UNL     1      65.259   6.582   3.368  1.00  0.00    -0.265 OA
HETATM   13  C   UNL     1      64.218   5.085   1.793  1.00  0.00     0.126 C 
ENDBRANCH  10  11
ENDBRANCH   1  10
BRANCH   5  14
HETATM   14  O   UNL     1      61.776  12.063   2.264  1.00  0.00    -0.360 OA
HETATM   15  H   UNL     1      61.527  12.336   1.403  1.00  0.00     0.217 HD
ENDBRANCH   5  14
TORSDOF 3
ENDMDL
MODEL 5
REMARK VINA RESULT:      -4.8      1.769      4.533
REMARK  3 active torsions:
REMARK  status: ('A' for Active; 'I' for Inactive)
REMARK    1  A    between atoms: C_1  and  O_6 
REMARK    2  A    between atoms: C_5  and  O_10 
REMARK    3  A    between atoms: O_6  and  C_8 
ROOT
HETATM    1  C   UNL     1      62.788   8.430   3.125  1.00  0.00     0.091 A 
HETATM    2  C   UNL     1      63.744   7.385   3.254  1.00  0.00    -0.019 A 
HETATM    3  C   UNL     1      64.739   7.473   4.263  1.00  0.00    -0.020 A 
HETATM    4  C   UNL     1      62.807   9.553   3.965  1.00  0.00    -0.025 A 
HETATM    5  C   UNL     1      64.713   8.580   5.124  1.00  0.00     0.072 A 
HETATM    6  C   UNL     1      63.762   9.587   4.990  1.00  0.00     0.046 A 
HETATM    7  C   UNL     1      63.718   6.203   2.317  1.00  0.00     0.052 C 
HETATM    8  C   UNL     1      65.825   6.439   4.407  1.00  0.00     0.052 C 
HETATM    9  C   UNL     1      61.870  10.719   3.851  1.00  0.00     0.051 C 
ENDROOT
BRANCH   1  10
HETATM   10  O   UNL     1      61.924   8.335   1.997  1.00  0.00    -0.278 OA
BRANCH  10  11
HETATM   11  C   UNL     1      60.573   7.987   2.036  1.00  0.00     0.260 C 
HETATM   12  O   UNL     1      59.944   7.577   3.000  1.00  0.00    -0.265 OA
HETATM   13  C   UNL     1      59.996   8.126   0.655  1.00  0.00     0.126 C 
ENDBRANCH  10  11
ENDBRANCH   1  10
BRANCH   5  14
HETATM   14  O   UNL     1      65.619   8.768   6.130  1.00  0.00    -0.360 OA
HETATM   15  H   UNL     1      65.338   8.752   7.023  1.00  0.00     0.217 HD
ENDBRANCH   5  14
TORSDOF 3
ENDMDL
MODEL 6
REMARK VINA RESULT:      -4.5      2.725      4.877
REMARK  3 active torsions:
REMARK  status: ('A' for Active; 'I' for Inactive)
REMARK    1  A    between atoms: C_1  and  O_6 
REMARK    2  A    between atoms: C_5  and  O_10 
REMARK    3  A    between atoms: O_6  and  C_8 
ROOT
HETATM    1  C   UNL     1      61.757   8.400   3.244  1.00  0.00     0.091 A 
HETATM    2  C   UNL     1      62.045   7.845   4.521  1.00  0.00    -0.019 A 
HETATM    3  C   UNL     1      61.304   6.723   4.976  1.00  0.00    -0.020 A 
HETATM    4  C   UNL     1      60.750   7.871   2.422  1.00  0.00    -0.025 A 
HETATM    5  C   UNL     1      60.335   6.179   4.121  1.00  0.00     0.072 A 
HETATM    6  C   UNL     1      60.074   6.728   2.869  1.00  0.00     0.046 A 
HETATM    7  C   UNL     1      63.113   8.453   5.397  1.00  0.00     0.052 C 
HETATM    8  C   UNL     1      61.508   6.133   6.348  1.00  0.00     0.052 C 
HETATM    9  C   UNL     1      60.352   8.438   1.091  1.00  0.00     0.051 C 
ENDROOT
BRANCH   1  10
HETATM   10  O   UNL     1      62.440   9.609   2.932  1.00  0.00    -0.278 OA
BRANCH  10  11
HETATM   11  C   UNL     1      61.985  10.897   3.219  1.00  0.00     0.260 C 
HETATM   12  O   UNL     1      61.725  11.360   4.320  1.00  0.00    -0.265 OA
HETATM   13  C   UNL     1      61.787  11.641   1.928  1.00  0.00     0.126 C 
ENDBRANCH  10  11
ENDBRANCH   1  10
BRANCH   5  14
HETATM   14  O   UNL     1      59.563   5.101   4.453  1.00  0.00    -0.360 OA
HETATM   15  H   UNL     1      58.878   4.819   3.878  1.00  0.00     0.217 HD
ENDBRANCH   5  14
TORSDOF 3
ENDMDL
MODEL 7
REMARK VINA RESULT:      -4.4      1.833      2.169
REMARK  3 active torsions:
REMARK  status: ('A' for Active; 'I' for Inactive)
REMARK    1  A    between atoms: C_1  and  O_6 
REMARK    2  A    between atoms: C_5  and  O_10 
REMARK    3  A    between atoms: O_6  and  C_8 
ROOT
HETATM    1  C   UNL     1      63.219   8.043   5.075  1.00  0.00     0.091 A 
HETATM    2  C   UNL     1      62.610   6.862   4.570  1.00  0.00    -0.019 A 
HETATM    3  C   UNL     1      61.486   6.971   3.709  1.00  0.00    -0.020 A 
HETATM    4  C   UNL     1      62.733   9.319   4.749  1.00  0.00    -0.025 A 
HETATM    5  C   UNL     1      61.044   8.255   3.357  1.00  0.00     0.072 A 
HETATM    6  C   UNL     1      61.662   9.401   3.851  1.00  0.00     0.046 A 
HETATM    7  C   UNL     1      63.135   5.503   4.961  1.00  0.00     0.052 C 
HETATM    8  C   UNL     1      60.749   5.760   3.199  1.00  0.00     0.052 C 
HETATM    9  C   UNL     1      63.287  10.605   5.288  1.00  0.00     0.051 C 
ENDROOT
BRANCH   1  10
HETATM   10  O   UNL     1      64.240   7.841   6.046  1.00  0.00    -0.278 OA
BRANCH  10  11
HETATM   11  C   UNL     1      65.588   8.167   5.887  1.00  0.00     0.260 C 
HETATM   12  O   UNL     1      66.245   8.943   6.566  1.00  0.00    -0.265 OA
HETATM   13  C   UNL     1      66.120   7.455   4.675  1.00  0.00     0.126 C 
ENDBRANCH  10  11
ENDBRANCH   1  10
BRANCH   5  14
HETATM   14  O   UNL     1      59.975   8.480   2.536  1.00  0.00    -0.360 OA
HETATM   15  H   UNL     1      59.385   7.782   2.332  1.00  0.00     0.217 HD
ENDBRANCH   5  14
TORSDOF 3
ENDMDL
MODEL 8
REMARK VINA RESULT:      -4.4      2.028      5.129
REMARK  3 active torsions:
REMARK  status: ('A' for Active; 'I' for Inactive)
REMARK    1  A    between atoms: C_1  and  O_6 
REMARK    2  A    between atoms: C_5  and  O_10 
REMARK    3  A    between atoms: O_6  and  C_8 
ROOT
HETATM    1  C   UNL     1      61.450   8.386   3.260  1.00  0.00     0.091 A 
HETATM    2  C   UNL     1      62.088   9.529   3.815  1.00  0.00    -0.019 A 
HETATM    3  C   UNL     1      62.898   9.382   4.971  1.00  0.00    -0.020 A 
HETATM    4  C   UNL     1      61.594   7.113   3.832  1.00  0.00    -0.025 A 
HETATM    5  C   UNL     1      63.069   8.095   5.500  1.00  0.00     0.072 A 
HETATM    6  C   UNL     1      62.446   6.985   4.936  1.00  0.00     0.046 A 
HETATM    7  C   UNL     1      61.891  10.891   3.196  1.00  0.00     0.052 C 
HETATM    8  C   UNL     1      63.542  10.562   5.652  1.00  0.00     0.052 C 
HETATM    9  C   UNL     1      60.907   5.874   3.338  1.00  0.00     0.051 C 
ENDROOT
BRANCH   1  10
HETATM   10  O   UNL     1      60.540   8.646   2.197  1.00  0.00    -0.278 OA
BRANCH  10  11
HETATM   11  C   UNL     1      60.670   8.187   0.885  1.00  0.00     0.260 C 
HETATM   12  O   UNL     1      59.810   7.652   0.201  1.00  0.00    -0.265 OA
HETATM   13  C   UNL     1      62.092   8.387   0.440  1.00  0.00     0.126 C 
ENDBRANCH  10  11
ENDBRANCH   1  10
BRANCH   5  14
HETATM   14  O   UNL     1      63.827   7.834   6.608  1.00  0.00    -0.360 OA
HETATM   15  H   UNL     1      63.554   8.147   7.447  1.00  0.00     0.217 HD
ENDBRANCH   5  14
TORSDOF 3
ENDMDL
MODEL 9
REMARK VINA RESULT:      -4.4      2.018      4.847
REMARK  3 active torsions:
REMARK  status: ('A' for Active; 'I' for Inactive)
REMARK    1  A    between atoms: C_1  and  O_6 
REMARK    2  A    between atoms: C_5  and  O_10 
REMARK    3  A    between atoms: O_6  and  C_8 
ROOT
HETATM    1  C   UNL     1      63.185   7.719   2.989  1.00  0.00     0.091 A 
HETATM    2  C   UNL     1      62.826   8.952   3.599  1.00  0.00    -0.019 A 
HETATM    3  C   UNL     1      63.572   9.422   4.711  1.00  0.00    -0.020 A 
HETATM    4  C   UNL     1      64.256   6.947   3.464  1.00  0.00    -0.025 A 
HETATM    5  C   UNL     1      64.668   8.661   5.142  1.00  0.00     0.072 A 
HETATM    6  C   UNL     1      65.013   7.462   4.524  1.00  0.00     0.046 A 
HETATM    7  C   UNL     1      61.650   9.746   3.086  1.00  0.00     0.052 C 
HETATM    8  C   UNL     1      63.199  10.681   5.450  1.00  0.00     0.052 C 
HETATM    9  C   UNL     1      64.657   5.612   2.909  1.00  0.00     0.051 C 
ENDROOT
BRANCH   1  10
HETATM   10  O   UNL     1      62.296   7.251   1.980  1.00  0.00    -0.278 OA
BRANCH  10  11
HETATM   11  C   UNL     1      61.180   6.440   2.193  1.00  0.00     0.260 C 
HETATM   12  O   UNL     1      60.881   5.850   3.221  1.00  0.00    -0.265 OA
HETATM   13  C   UNL     1      60.404   6.336   0.910  1.00  0.00     0.126 C 
ENDBRANCH  10  11
ENDBRANCH   1  10
BRANCH   5  14
HETATM   14  O   UNL     1      65.458   9.016   6.200  1.00  0.00    -0.360 OA
HETATM   15  H   UNL     1      65.523   9.914   6.456  1.00  0.00     0.217 HD
ENDBRANCH   5  14
TORSDOF 3
ENDMDL
