REMARK  0 active torsions:
REMARK  status: ('A' for Active; 'I' for Inactive)
ROOT
HETATM    1  C   UNL     1       2.048  -0.977   0.491  1.00  0.00     0.353 C 
HETATM    2  O   UNL     1       1.911  -2.083   0.863  1.00  0.00    -0.283 OA
HETATM    3  C   UNL     1       2.566   1.237  -2.059  1.00  0.00     0.129 A 
HETATM    4  C   UNL     1       3.148   1.317  -3.336  1.00  0.00     0.038 A 
HETATM    5  C   UNL     1       2.873   0.212  -1.146  1.00  0.00     0.067 A 
HETATM    6  C   UNL     1       4.107   0.380  -3.705  1.00  0.00     0.003 A 
HETATM    7  C   UNL     1       3.888  -0.685  -1.539  1.00  0.00     0.032 A 
HETATM    8  C   UNL     1       4.492  -0.606  -2.800  1.00  0.00     0.002 A 
HETATM    9  N   UNL     1       2.217   0.121   0.106  1.00  0.00    -0.332 N 
ATOM     10  HN  UNL     1       1.916   0.942   0.631  1.00  0.00     0.168 HD
HETATM   11  N   UNL     1       1.651   2.299  -1.686  1.00  0.00    -0.113 N 
HETATM   12  O   UNL     1       0.681   2.494  -2.432  1.00  0.00    -0.532 OA
HETATM   13  O   UNL     1       1.943   2.981  -0.694  1.00  0.00    -0.532 OA
ENDROOT
TORSDOF 0
