REMARK  0 active torsions:
REMARK  status: ('A' for Active; 'I' for Inactive)
ROOT
HETATM    1  C   UNL     1       1.514   0.608  -0.351  1.00  0.00     0.353 C 
HETATM    2  O   UNL     1       0.910   1.496  -0.828  1.00  0.00    -0.283 OA
HETATM    3  C   UNL     1       4.484  -2.619  -2.487  1.00  0.00     0.103 A 
HETATM    4  C   UNL     1       3.275  -2.101  -2.966  1.00  0.00     0.038 A 
HETATM    5  C   UNL     1       4.896  -2.353  -1.177  1.00  0.00     0.038 A 
HETATM    6  C   UNL     1       2.877  -1.026  -0.806  1.00  0.00     0.034 A 
HETATM    7  C   UNL     1       4.090  -1.563  -0.349  1.00  0.00     0.032 A 
HETATM    8  C   UNL     1       2.476  -1.317  -2.125  1.00  0.00     0.032 A 
HETATM    9  N   UNL     1       2.107  -0.291   0.118  1.00  0.00    -0.334 N 
ATOM     10  HN  UNL     1       2.068  -0.521   1.111  1.00  0.00     0.168 HD
HETATM   11  N   UNL     1       5.315  -3.458  -3.360  1.00  0.00    -0.116 N 
HETATM   12  O   UNL     1       4.906  -3.673  -4.510  1.00  0.00    -0.532 OA
HETATM   13  O   UNL     1       6.374  -3.901  -2.895  1.00  0.00    -0.532 OA
ENDROOT
TORSDOF 0
