REMARK  1 active torsions:
REMARK  status: ('A' for Active; 'I' for Inactive)
REMARK    1  A    between atoms: C_1  and  N_3 
ROOT
HETATM    1  C   UNL     1       0.898   2.982   0.538  1.00  0.00     0.353 C 
HETATM    2  N   UNL     1       0.078   2.431  -0.097  1.00  0.00    -0.329 N 
ATOM      3  HN  UNL     1      -0.603   2.932  -0.668  1.00  0.00     0.168 HD
HETATM    4  O   UNL     1       1.714   3.547   1.166  1.00  0.00    -0.283 OA
ENDROOT
BRANCH   2   5
HETATM    5  C   UNL     1       0.107   1.018  -0.009  1.00  0.00     0.112 A 
HETATM    6  C   UNL     1      -1.110   0.320  -0.003  1.00  0.00     0.146 A 
HETATM    7  F   UNL     1      -2.268   0.999  -0.016  1.00  0.00    -0.204 F 
HETATM    8  C   UNL     1      -1.166  -1.076   0.012  1.00  0.00     0.045 A 
HETATM    9  C   UNL     1       0.012  -1.818   0.019  1.00  0.00     0.006 A 
HETATM   10  C   UNL     1       1.238  -1.157   0.011  1.00  0.00     0.045 A 
HETATM   11  C   UNL     1       1.277   0.239  -0.011  1.00  0.00     0.146 A 
HETATM   12  F   UNL     1       2.481   0.830  -0.049  1.00  0.00    -0.204 F 
ENDBRANCH   2   5
TORSDOF 1
