REMARK  1 active torsions:
REMARK  status: ('A' for Active; 'I' for Inactive)
REMARK    1  A    between atoms: C_2  and  N_3 
ROOT
HETATM    1  C   UNL     1       0.869  -0.113  -0.061  1.00  0.00     0.353 C 
HETATM    2  N   UNL     1      -0.305  -0.094  -0.129  1.00  0.00    -0.332 N 
ATOM      3  HN  UNL     1      -0.810   0.429  -0.845  1.00  0.00     0.168 HD
HETATM    4  O   UNL     1       2.043  -0.123  -0.009  1.00  0.00    -0.283 OA
ENDROOT
BRANCH   2   5
HETATM    5  C   UNL     1      -0.957  -0.858   0.867  1.00  0.00     0.076 A 
HETATM    6  C   UNL     1      -2.120  -1.540   0.494  1.00  0.00     0.074 A 
HETATM    7  C   UNL     1      -2.847  -2.264   1.435  1.00  0.00     0.118 A 
HETATM    8  C   UNL     1      -2.445  -2.329   2.764  1.00  0.00     0.045 A 
HETATM    9  F   UNL     1      -3.962  -2.902   1.055  1.00  0.00    -0.206 F 
HETATM   10  C   UNL     1      -1.294  -1.653   3.161  1.00  0.00     0.047 A 
HETATM   11  C   UNL     1      -0.568  -0.920   2.222  1.00  0.00     0.143 A 
HETATM   12  F   UNL     1       0.517  -0.256   2.645  1.00  0.00    -0.204 F 
ENDBRANCH   2   5
TORSDOF 1
