REMARK  0 active torsions:
REMARK  status: ('A' for Active; 'I' for Inactive)
ROOT
HETATM    1  C   UNL     1       0.253   1.206  -0.015  1.00  0.00     0.071 A 
HETATM    2  C   UNL     1      -0.480   2.524  -0.020  1.00  0.00     0.419 C 
HETATM    3  C   UNL     1       4.393   0.946   0.545  1.00  0.00     0.353 C 
HETATM    4  C   UNL     1      -0.364  -0.047  -0.004  1.00  0.00     0.049 A 
HETATM    5  C   UNL     1       1.669   1.259  -0.019  1.00  0.00     0.047 A 
HETATM    6  N   UNL     1       3.870   0.086  -0.060  1.00  0.00    -0.334 N 
ATOM      7  HN  UNL     1       4.393  -0.613  -0.588  1.00  0.00     0.168 HD
HETATM    8  O   UNL     1       4.911   1.820   1.136  1.00  0.00    -0.283 OA
HETATM    9  F   UNL     1      -1.835   2.469  -0.073  1.00  0.00    -0.166 F 
HETATM   10  F   UNL     1      -0.187   3.262   1.089  1.00  0.00    -0.166 F 
HETATM   11  F   UNL     1      -0.106   3.300  -1.078  1.00  0.00    -0.166 F 
HETATM   12  C   UNL     1       2.463   0.098   0.002  1.00  0.00     0.035 A 
HETATM   13  C   UNL     1       0.414  -1.211   0.003  1.00  0.00     0.027 A 
HETATM   14 CL   UNL     1      -2.073  -0.267  -0.009  1.00  0.00    -0.083 Cl
HETATM   15  C   UNL     1       1.809  -1.136   0.004  1.00  0.00     0.031 A 
ENDROOT
TORSDOF 0
