REMARK  3 active torsions:
REMARK  status: ('A' for Active; 'I' for Inactive)
REMARK    1  A    between atoms: C_2  and  O_11 
REMARK    2  A    between atoms: N_3  and  C_6 
REMARK    3  A    between atoms: C_9  and  O_12 
ROOT
HETATM    1  C   UNL     1       0.693  -0.426  -0.160  1.00  0.00     0.353 C 
HETATM    2  N   UNL     1      -0.454  -0.223   0.001  1.00  0.00    -0.332 N 
ATOM      3  HN  UNL     1      -0.996  -0.717   0.710  1.00  0.00     0.168 HD
HETATM    4  O   UNL     1       1.837  -0.669  -0.277  1.00  0.00    -0.283 OA
ENDROOT
BRANCH   2   5
HETATM    5  C   UNL     1      -1.038   0.746  -0.847  1.00  0.00     0.068 A 
HETATM    6  C   UNL     1      -0.677   1.030  -2.185  1.00  0.00     0.097 A 
HETATM    7  C   UNL     1      -1.395   1.987  -2.917  1.00  0.00     0.075 A 
HETATM    8  C   UNL     1      -2.509   2.630  -2.374  1.00  0.00     0.070 A 
HETATM    9  C   UNL     1      -2.893   2.338  -1.071  1.00  0.00     0.039 A 
HETATM   10  C   UNL     1      -2.155   1.415  -0.319  1.00  0.00     0.035 A 
BRANCH   6  11
HETATM   11  O   UNL     1       0.399   0.361  -2.715  1.00  0.00    -0.354 OA
HETATM   12  C   UNL     1       0.375   0.153  -4.124  1.00  0.00     0.210 C 
ENDBRANCH   6  11
BRANCH   8  13
HETATM   13  O   UNL     1      -3.117   3.509  -3.224  1.00  0.00    -0.356 OA
HETATM   14  C   UNL     1      -4.319   4.123  -2.777  1.00  0.00     0.210 C 
ENDBRANCH   8  13
ENDBRANCH   2   5
TORSDOF 3
