REMARK  0 active torsions:
REMARK  status: ('A' for Active; 'I' for Inactive)
ROOT
HETATM    1  N   UNL     1       0.963  -0.053  -0.019  1.00  0.00    -0.115 N 
HETATM    2  C   UNL     1       0.227   1.166  -0.313  1.00  0.00     0.111 A 
HETATM    3  C   UNL     1      -2.671   2.749   2.219  1.00  0.00     0.353 C 
HETATM    4  C   UNL     1      -0.858   1.467   0.528  1.00  0.00     0.066 A 
HETATM    5  O   UNL     1       0.325  -1.113  -0.049  1.00  0.00    -0.532 OA
HETATM    6  N   UNL     1      -2.732   3.013   1.077  1.00  0.00    -0.334 N 
ATOM      7  HN  UNL     1      -3.541   3.475   0.661  1.00  0.00     0.168 HD
HETATM    8  O   UNL     1       2.161   0.064   0.268  1.00  0.00    -0.532 OA
HETATM    9  C   UNL     1       0.591   1.989  -1.390  1.00  0.00    -0.029 A 
HETATM   10  O   UNL     1      -2.612   2.465   3.358  1.00  0.00    -0.283 OA
HETATM   11  C   UNL     1      -1.598   2.641   0.326  1.00  0.00     0.036 A 
HETATM   12  C   UNL     1      -0.159   3.157  -1.585  1.00  0.00     0.011 A 
HETATM   13  C   UNL     1      -1.234   3.471  -0.742  1.00  0.00     0.030 A 
HETATM   14  C   UNL     1       1.713   1.699  -2.347  1.00  0.00     0.050 C 
ENDROOT
TORSDOF 0
