REMARK  1 active torsions:
REMARK  status: ('A' for Active; 'I' for Inactive)
REMARK    1  A    between atoms: N_2  and  C_5 
ROOT
HETATM    1  C   UNL     1      -0.229   0.089   1.177  1.00  0.00     0.353 C 
HETATM    2  N   UNL     1      -0.290  -0.097   0.021  1.00  0.00    -0.333 N 
ATOM      3  HN  UNL     1       0.133  -0.908  -0.431  1.00  0.00     0.168 HD
HETATM    4  O   UNL     1      -0.197   0.267   2.340  1.00  0.00    -0.283 OA
ENDROOT
BRANCH   2   5
HETATM    5  C   UNL     1      -1.000   0.899  -0.697  1.00  0.00     0.050 A 
HETATM    6  C   UNL     1      -0.606   1.243  -2.007  1.00  0.00     0.033 A 
HETATM    7  I   UNL     1       1.054   0.344  -2.937  1.00  0.00    -0.042 I 
HETATM    8  C   UNL     1      -1.314   2.195  -2.754  1.00  0.00     0.020 A 
HETATM    9  C   UNL     1      -2.437   2.814  -2.211  1.00  0.00     0.001 A 
HETATM   10  C   UNL     1      -2.859   2.479  -0.929  1.00  0.00     0.002 A 
HETATM   11  C   UNL     1      -2.154   1.529  -0.185  1.00  0.00     0.031 A 
ENDBRANCH   2   5
TORSDOF 1
