REMARK  1 active torsions:
REMARK  status: ('A' for Active; 'I' for Inactive)
REMARK    1  A    between atoms: C_2  and  N_3 
ROOT
HETATM    1  C   UNL     1       0.828   0.003   0.006  1.00  0.00     0.353 C 
HETATM    2  N   UNL     1      -0.341  -0.017   0.098  1.00  0.00    -0.332 N 
ATOM      3  HN  UNL     1      -0.831  -0.546   0.819  1.00  0.00     0.168 HD
HETATM    4  O   UNL     1       1.999   0.001  -0.110  1.00  0.00    -0.283 OA
ENDROOT
BRANCH   2   5
HETATM    5  C   UNL     1      -1.012   0.756  -0.879  1.00  0.00     0.073 A 
HETATM    6  C   UNL     1      -2.180   1.441  -0.509  1.00  0.00     0.143 A 
HETATM    7  C   UNL     1      -2.927   2.172  -1.430  1.00  0.00     0.045 A 
HETATM    8  F   UNL     1      -2.606   1.397   0.764  1.00  0.00    -0.204 F 
HETATM    9  C   UNL     1      -2.516   2.235  -2.759  1.00  0.00     0.010 A 
HETATM   10  C   UNL     1      -1.359   1.564  -3.170  1.00  0.00    -0.060 A 
HETATM   11  C   UNL     1      -0.623   0.821  -2.231  1.00  0.00     0.039 A 
HETATM   12  C   UNL     1      -0.923   1.632  -4.605  1.00  0.00     0.048 C 
ENDBRANCH   2   5
TORSDOF 1
