REMARK  1 active torsions:
REMARK  status: ('A' for Active; 'I' for Inactive)
REMARK    1  A    between atoms: C_4  and  N_5 
ROOT
HETATM    1  C   UNL     1      -3.422  -1.711  -0.565  1.00  0.00     0.353 C 
HETATM    2  N   UNL     1      -2.532  -2.165   0.049  1.00  0.00    -0.332 N 
ATOM      3  HN  UNL     1      -2.617  -3.028   0.586  1.00  0.00     0.168 HD
HETATM    4  O   UNL     1      -4.322  -1.273  -1.183  1.00  0.00    -0.283 OA
ENDROOT
BRANCH   2   5
HETATM    5  C   UNL     1      -1.331  -1.421  -0.015  1.00  0.00     0.076 A 
HETATM    6  C   UNL     1      -1.243  -0.015  -0.003  1.00  0.00     0.184 A 
HETATM    7  C   UNL     1      -0.012   0.629  -0.002  1.00  0.00     0.195 A 
HETATM    8  F   UNL     1      -2.359   0.728   0.025  1.00  0.00    -0.200 F 
HETATM    9  C   UNL     1       1.160  -0.115   0.002  1.00  0.00     0.158 A 
HETATM   10  F   UNL     1       0.045   1.970   0.007  1.00  0.00    -0.199 F 
HETATM   11  C   UNL     1       1.111  -1.504   0.002  1.00  0.00     0.048 A 
HETATM   12  F   UNL     1       2.350   0.499   0.017  1.00  0.00    -0.203 F 
HETATM   13  C   UNL     1      -0.130  -2.151  -0.003  1.00  0.00     0.036 A 
ENDBRANCH   2   5
TORSDOF 1
