REMARK  2 active torsions:
REMARK  status: ('A' for Active; 'I' for Inactive)
REMARK    1  A    between atoms: N_2  and  C_5 
REMARK    2  A    between atoms: C_4  and  C_7 
ROOT
HETATM    1  C   UNL     1      -0.178  -1.367  -0.416  1.00  0.00     0.353 C 
HETATM    2  N   UNL     1      -0.336  -0.234  -0.143  1.00  0.00    -0.334 N 
ATOM      3  HN  UNL     1      -0.032   0.528  -0.749  1.00  0.00     0.168 HD
HETATM    4  O   UNL     1      -0.030  -2.499  -0.694  1.00  0.00    -0.283 OA
ENDROOT
BRANCH   2   5
HETATM    5  C   UNL     1      -0.985  -0.016   1.101  1.00  0.00     0.045 A 
HETATM    6  C   UNL     1      -0.574   1.042   1.968  1.00  0.00     0.001 A 
HETATM    7  C   UNL     1      -1.330   1.238   3.153  1.00  0.00     0.014 A 
HETATM    8  C   UNL     1      -2.449   0.464   3.469  1.00  0.00     0.001 A 
HETATM    9  C   UNL     1      -2.848  -0.550   2.618  1.00  0.00     0.002 A 
HETATM   10  C   UNL     1      -2.127  -0.783   1.447  1.00  0.00     0.030 A 
BRANCH   6  11
HETATM   11  C   UNL     1       0.579   1.960   1.693  1.00  0.00    -0.024 A 
HETATM   12  C   UNL     1       0.551   3.315   2.097  1.00  0.00     0.012 A 
HETATM   13  C   UNL     1       1.618   4.188   1.850  1.00  0.00     0.001 A 
HETATM   14  C   UNL     1       2.740   3.740   1.166  1.00  0.00     0.000 A 
HETATM   15  C   UNL     1       2.805   2.413   0.760  1.00  0.00     0.001 A 
HETATM   16  C   UNL     1       1.750   1.535   1.041  1.00  0.00     0.012 A 
ENDBRANCH   6  11
ENDBRANCH   2   5
TORSDOF 2
