REMARK  0 active torsions:
REMARK  status: ('A' for Active; 'I' for Inactive)
ROOT
HETATM    1  C   UNL     1      -0.259   1.099  -1.063  1.00  0.00     0.353 C 
HETATM    2  N   UNL     1      -0.296   0.213  -0.295  1.00  0.00    -0.334 N 
ATOM      3  HN  UNL     1       0.120   0.274   0.634  1.00  0.00     0.168 HD
HETATM    4  O   UNL     1      -0.245   1.997  -1.824  1.00  0.00    -0.283 OA
HETATM    5  C   UNL     1      -0.961  -0.946  -0.755  1.00  0.00     0.040 A 
HETATM    6  C   UNL     1      -0.533  -2.227  -0.338  1.00  0.00    -0.032 A 
HETATM    7  C   UNL     1       0.626  -2.543   0.592  1.00  0.00     0.036 C 
HETATM    8  C   UNL     1      -2.113  -0.862  -1.575  1.00  0.00     0.030 A 
HETATM    9  C   UNL     1      -1.243  -3.364  -0.795  1.00  0.00     0.009 A 
HETATM   10  C   UNL     1       1.463  -1.433   1.208  1.00  0.00     0.010 C 
HETATM   11  C   UNL     1      -2.359  -3.253  -1.620  1.00  0.00     0.001 A 
HETATM   12  C   UNL     1      -2.799  -1.998  -2.008  1.00  0.00     0.002 A 
ENDROOT
TORSDOF 0
