REMARK  3 active torsions:
REMARK  status: ('A' for Active; 'I' for Inactive)
REMARK    1  A    between atoms: C_2  and  C_3 
REMARK    2  A    between atoms: C_2  and  O_10 
REMARK    3  A    between atoms: N_4  and  C_9 
ROOT
HETATM    1  C   UNL     1       0.979  -0.167   0.222  1.00  0.00     0.353 C 
HETATM    2  N   UNL     1      -0.167   0.021   0.059  1.00  0.00    -0.334 N 
ATOM      3  HN  UNL     1      -0.635   0.873   0.369  1.00  0.00     0.168 HD
HETATM    4  O   UNL     1       2.124  -0.371   0.401  1.00  0.00    -0.283 OA
ENDROOT
BRANCH   2   5
HETATM    5  C   UNL     1      -0.848  -1.025  -0.601  1.00  0.00     0.035 A 
HETATM    6  C   UNL     1      -0.523  -2.389  -0.490  1.00  0.00     0.047 A 
HETATM    7  C   UNL     1      -1.277  -3.368  -1.157  1.00  0.00     0.041 A 
HETATM    8  C   UNL     1      -2.387  -2.986  -1.919  1.00  0.00     0.018 A 
HETATM    9  C   UNL     1      -2.732  -1.641  -2.024  1.00  0.00     0.003 A 
HETATM   10  C   UNL     1      -1.967  -0.673  -1.370  1.00  0.00     0.029 A 
BRANCH   7  11
HETATM   11  C   UNL     1      -0.933  -4.815  -1.088  1.00  0.00     0.293 C 
HETATM   12  O   UNL     1      -1.590  -5.692  -1.625  1.00  0.00    -0.259 OA
BRANCH  11  13
HETATM   13  O   UNL     1       0.205  -4.997  -0.374  1.00  0.00    -0.323 OA
HETATM   14  C   UNL     1       0.638  -6.355  -0.297  1.00  0.00     0.213 C 
ENDBRANCH  11  13
ENDBRANCH   7  11
ENDBRANCH   2   5
TORSDOF 3
