REMARK  0 active torsions:
REMARK  status: ('A' for Active; 'I' for Inactive)
ROOT
HETATM    1  C   UNL     1      -0.211   1.075  -0.073  1.00  0.00     0.353 C 
HETATM    2  N   UNL     1       1.384  -3.251  -0.704  1.00  0.00    -0.191 NA
HETATM    3  C   UNL     1       0.446  -2.665  -1.052  1.00  0.00     0.102 C 
HETATM    4  C   UNL     1      -0.726  -1.979  -1.520  1.00  0.00     0.071 A 
HETATM    5  N   UNL     1      -0.247  -0.099  -0.042  1.00  0.00    -0.333 N 
ATOM      6  HN  UNL     1       0.268  -0.646   0.648  1.00  0.00     0.168 HD
HETATM    7  C   UNL     1      -1.060  -0.697  -1.036  1.00  0.00     0.055 A 
HETATM    8  O   UNL     1      -0.202   2.249  -0.103  1.00  0.00    -0.283 OA
HETATM    9  C   UNL     1      -1.534  -2.621  -2.473  1.00  0.00     0.025 A 
HETATM   10  C   UNL     1      -2.243  -0.102  -1.526  1.00  0.00     0.031 A 
HETATM   11  C   UNL     1      -2.686  -2.001  -2.953  1.00  0.00     0.002 A 
HETATM   12  C   UNL     1      -3.040  -0.743  -2.480  1.00  0.00     0.002 A 
ENDROOT
TORSDOF 0
