REMARK  0 active torsions:
REMARK  status: ('A' for Active; 'I' for Inactive)
ROOT
HETATM    1  O   UNL     1       0.707  -0.991   0.020  1.00  0.00    -0.240 OA
HETATM    2  C   UNL     1       1.144   0.300   0.015  1.00  0.00     0.101 A 
HETATM    3  C   UNL     1       0.048   1.133   0.019  1.00  0.00     0.090 A 
HETATM    4  C   UNL     1      -1.068   0.262   0.007  1.00  0.00     0.058 A 
HETATM    5  N   UNL     1      -0.675  -1.019   0.017  1.00  0.00    -0.263 N 
ATOM      6  HN  UNL     1      -1.273  -1.845   0.021  1.00  0.00     0.194 HD
HETATM    7  C   UNL     1      -2.512   0.586  -0.009  1.00  0.00     0.072 C 
HETATM    8  C   UNL     1       2.608   0.480  -0.004  1.00  0.00     0.081 C 
HETATM    9  N   UNL     1      -0.047   2.531  -0.025  1.00  0.00    -0.331 N 
ATOM     10  HN  UNL     1      -0.806   3.018  -0.502  1.00  0.00     0.168 HD
HETATM   11  C   UNL     1       0.818   3.095   0.531  1.00  0.00     0.353 C 
HETATM   12  O   UNL     1       1.691   3.657   1.081  1.00  0.00    -0.283 OA
ENDROOT
TORSDOF 0
