REMARK  1 active torsions:
REMARK  status: ('A' for Active; 'I' for Inactive)
REMARK    1  A    between atoms: N_2  and  C_6 
ROOT
HETATM    1  C   UNL     1       0.768   0.067  -0.110  1.00  0.00     0.353 C 
HETATM    2  N   UNL     1      -0.387  -0.048   0.060  1.00  0.00    -0.334 N 
ATOM      3  HN  UNL     1      -0.924  -0.837  -0.301  1.00  0.00     0.168 HD
HETATM    4  O   UNL     1       1.923   0.196  -0.297  1.00  0.00    -0.283 OA
ENDROOT
BRANCH   2   5
HETATM    5  C   UNL     1      -0.971   0.998   0.807  1.00  0.00     0.034 A 
HETATM    6  C   UNL     1      -2.048   0.666   1.646  1.00  0.00     0.039 A 
HETATM    7  C   UNL     1      -2.679   1.667   2.369  1.00  0.00    -0.021 A 
HETATM    8  C   UNL     1      -2.254   2.980   2.281  1.00  0.00     0.075 A 
HETATM    9  C   UNL     1      -3.783   1.578   3.350  1.00  0.00     0.068 C 
HETATM   10  C   UNL     1      -1.205   3.351   1.468  1.00  0.00     0.039 A 
HETATM   11  O   UNL     1      -2.958   3.846   3.074  1.00  0.00    -0.350 OA
HETATM   12  C   UNL     1      -0.573   2.356   0.717  1.00  0.00     0.032 A 
HETATM   13  C   UNL     1      -4.102   3.068   3.498  1.00  0.00     0.180 C 
ENDBRANCH   2   5
TORSDOF 1
