REMARK  2 active torsions:
REMARK  status: ('A' for Active; 'I' for Inactive)
REMARK    1  A    between atoms: C_3  and  N_14 
REMARK    2  A    between atoms: C_4  and  C_7 
ROOT
HETATM    1  N   UNL     1       0.419  -2.662  -0.021  1.00  0.00    -0.330 N 
ATOM      2  HN  UNL     1      -0.108  -3.369  -0.534  1.00  0.00     0.168 HD
HETATM    3  C   UNL     1       1.377  -2.916   0.603  1.00  0.00     0.353 C 
HETATM    4  O   UNL     1       2.352  -3.170   1.212  1.00  0.00    -0.283 OA
ENDROOT
BRANCH   1   5
HETATM    5  C   UNL     1       0.054  -1.305  -0.007  1.00  0.00     0.095 A 
HETATM    6  C   UNL     1       0.849  -0.181  -0.020  1.00  0.00     0.101 A 
HETATM    7  O   UNL     1       0.046   0.915  -0.037  1.00  0.00    -0.240 OA
HETATM    8  C   UNL     1       2.300   0.088  -0.020  1.00  0.00     0.081 C 
HETATM    9  N   UNL     1      -1.275   0.529  -0.030  1.00  0.00    -0.258 N 
HETATM   10  C   UNL     1      -1.289  -0.816  -0.021  1.00  0.00     0.094 A 
ATOM     11  HN  UNL     1      -2.088   1.145  -0.031  1.00  0.00     0.195 HD
BRANCH  10  12
HETATM   12  C   UNL     1      -2.560  -1.549  -0.004  1.00  0.00    -0.005 A 
HETATM   13  C   UNL     1      -3.700  -0.963   0.571  1.00  0.00     0.014 A 
HETATM   14  C   UNL     1      -4.919  -1.646   0.606  1.00  0.00     0.001 A 
HETATM   15  C   UNL     1      -5.015  -2.925   0.064  1.00  0.00     0.000 A 
HETATM   16  C   UNL     1      -3.896  -3.519  -0.515  1.00  0.00     0.001 A 
HETATM   17  C   UNL     1      -2.677  -2.834  -0.552  1.00  0.00     0.014 A 
ENDBRANCH  10  12
ENDBRANCH   1   5
TORSDOF 2
