REMARK  1 active torsions:
REMARK  status: ('A' for Active; 'I' for Inactive)
REMARK    1  A    between atoms: C_3  and  N_10 
ROOT
HETATM    1  N   UNL     1      -0.820  -2.857  -0.047  1.00  0.00    -0.332 N 
ATOM      2  HN  UNL     1      -0.069  -3.322  -0.557  1.00  0.00     0.168 HD
HETATM    3  C   UNL     1      -1.640  -3.447   0.545  1.00  0.00     0.353 C 
HETATM    4  O   UNL     1      -2.488  -4.040   1.107  1.00  0.00    -0.283 OA
ENDROOT
BRANCH   1   5
HETATM    5  C   UNL     1      -0.952  -1.452   0.001  1.00  0.00     0.068 A 
HETATM    6  C   UNL     1      -2.183  -0.768  -0.057  1.00  0.00     0.032 A 
HETATM    7  C   UNL     1      -2.239   0.639  -0.058  1.00  0.00     0.003 A 
HETATM    8  C   UNL     1      -1.070   1.400  -0.019  1.00  0.00     0.010 A 
HETATM    9  C   UNL     1       0.139   0.732   0.010  1.00  0.00    -0.020 A 
HETATM   10  C   UNL     1       0.191  -0.658   0.023  1.00  0.00     0.101 A 
HETATM   11  C   UNL     1       1.511   1.281   0.087  1.00  0.00     0.068 C 
HETATM   12  O   UNL     1       1.480  -1.142   0.073  1.00  0.00    -0.348 OA
HETATM   13  C   UNL     1       2.297   0.011  -0.234  1.00  0.00     0.180 C 
ENDBRANCH   1   5
TORSDOF 1
