REMARK  2 active torsions:
REMARK  status: ('A' for Active; 'I' for Inactive)
REMARK    1  A    between atoms: C_2  and  C_7 
REMARK    2  A    between atoms: C_3  and  N_8 
ROOT
HETATM    1  N   UNL     1      -2.727  -1.446  -0.001  1.00  0.00    -0.332 N 
ATOM      2  HN  UNL     1      -3.623  -0.958   0.004  1.00  0.00     0.168 HD
HETATM    3  C   UNL     1      -2.649  -2.616  -0.010  1.00  0.00     0.353 C 
HETATM    4  O   UNL     1      -2.563  -3.789  -0.018  1.00  0.00    -0.283 OA
ENDROOT
BRANCH   1   5
HETATM    5  C   UNL     1      -1.501  -0.766   0.002  1.00  0.00     0.075 A 
HETATM    6  C   UNL     1      -1.391   0.608   0.012  1.00  0.00     0.186 A 
HETATM    7  O   UNL     1      -0.066   0.957   0.012  1.00  0.00    -0.308 OA
HETATM    8  C   UNL     1       0.659  -0.195   0.002  1.00  0.00     0.052 A 
HETATM    9  C   UNL     1      -0.182  -1.288  -0.005  1.00  0.00     0.064 A 
HETATM   10  C   UNL     1       2.128  -0.042   0.000  1.00  0.00     0.077 C 
BRANCH   6  11
HETATM   11  C   UNL     1      -2.391   1.698   0.021  1.00  0.00     0.441 C 
HETATM   12  F   UNL     1      -1.827   2.935   0.030  1.00  0.00    -0.164 F 
HETATM   13  F   UNL     1      -3.202   1.652  -1.068  1.00  0.00    -0.164 F 
HETATM   14  F   UNL     1      -3.199   1.636   1.113  1.00  0.00    -0.164 F 
ENDBRANCH   6  11
ENDBRANCH   1   5
TORSDOF 2
