REMARK  1 active torsions:
REMARK  status: ('A' for Active; 'I' for Inactive)
REMARK    1  A    between atoms: N_4  and  C_10 
ROOT
HETATM    1  C   UNL     1       0.798  -0.166   0.329  1.00  0.00     0.353 C 
HETATM    2  N   UNL     1      -0.336   0.029   0.093  1.00  0.00    -0.334 N 
ATOM      3  HN  UNL     1      -0.872   0.777   0.532  1.00  0.00     0.168 HD
HETATM    4  O   UNL     1       1.928  -0.375   0.576  1.00  0.00    -0.283 OA
ENDROOT
BRANCH   2   5
HETATM    5  C   UNL     1      -0.893  -0.861  -0.851  1.00  0.00     0.036 A 
HETATM    6  C   UNL     1      -0.530  -2.212  -0.983  1.00  0.00     0.069 A 
HETATM    7  C   UNL     1      -1.141  -3.024  -1.940  1.00  0.00     0.104 A 
HETATM    8  C   UNL     1      -2.162  -2.517  -2.747  1.00  0.00     0.102 A 
HETATM    9  O   UNL     1      -0.687  -4.315  -2.024  1.00  0.00    -0.346 OA
HETATM   10  C   UNL     1      -2.547  -1.187  -2.619  1.00  0.00     0.042 A 
HETATM   11  O   UNL     1      -2.819  -3.267  -3.687  1.00  0.00    -0.346 OA
HETATM   12  C   UNL     1      -1.916  -0.368  -1.676  1.00  0.00     0.032 A 
HETATM   13  C   UNL     1      -2.564  -4.667  -3.520  1.00  0.00     0.202 C 
HETATM   14  C   UNL     1      -1.090  -4.923  -3.256  1.00  0.00     0.202 C 
ENDBRANCH   2   5
TORSDOF 1
