REMARK  1 active torsions:
REMARK  status: ('A' for Active; 'I' for Inactive)
REMARK    1  A    between atoms: C_3  and  N_4 
ROOT
HETATM    1  N   UNL     1       0.300   3.118   0.014  1.00  0.00    -0.332 N 
ATOM      2  HN  UNL     1      -0.457   3.504  -0.550  1.00  0.00     0.168 HD
HETATM    3  C   UNL     1       0.994   3.787   0.681  1.00  0.00     0.353 C 
HETATM    4  O   UNL     1       1.716   4.460   1.322  1.00  0.00    -0.283 OA
ENDROOT
BRANCH   1   5
HETATM    5  C   UNL     1       0.593   1.734   0.052  1.00  0.00     0.071 A 
HETATM    6  C   UNL     1      -0.473   0.808   0.001  1.00  0.00     0.106 A 
HETATM    7  C   UNL     1      -0.242  -0.576  -0.023  1.00  0.00     0.004 A 
HETATM    8  O   UNL     1      -1.752   1.314  -0.006  1.00  0.00    -0.323 OA
HETATM    9  C   UNL     1       1.072  -1.049  -0.034  1.00  0.00     0.054 A 
HETATM   10  C   UNL     1      -1.397  -1.527  -0.087  1.00  0.00     0.212 C 
HETATM   11  C   UNL     1       2.127  -0.146  -0.001  1.00  0.00     0.119 A 
HETATM   12  C   UNL     1       1.904   1.226   0.040  1.00  0.00     0.074 A 
HETATM   13  F   UNL     1       3.384  -0.605  -0.019  1.00  0.00    -0.206 F 
HETATM   14  O   UNL     1      -2.592  -0.889   0.338  1.00  0.00    -0.362 OA
HETATM   15  C   UNL     1      -2.745   0.348  -0.346  1.00  0.00     0.345 C 
ENDBRANCH   1   5
TORSDOF 1
