REMARK  1 active torsions:
REMARK  status: ('A' for Active; 'I' for Inactive)
REMARK    1  A    between atoms: N_1  and  C_3 
ROOT
HETATM    1  N   UNL     1       0.947   0.061   0.031  1.00  0.00    -0.334 N 
ATOM      2  HN  UNL     1       0.404  -0.679  -0.414  1.00  0.00     0.168 HD
HETATM    3  C   UNL     1       2.093   0.212  -0.171  1.00  0.00     0.353 C 
HETATM    4  O   UNL     1       3.237   0.381  -0.383  1.00  0.00    -0.283 OA
ENDROOT
BRANCH   1   5
HETATM    5  C   UNL     1       0.378   0.982   0.937  1.00  0.00     0.035 A 
HETATM    6  C   UNL     1      -0.662   0.510   1.763  1.00  0.00     0.043 A 
HETATM    7  C   UNL     1      -1.292   1.385   2.668  1.00  0.00     0.002 A 
HETATM    8  C   UNL     1      -2.335   1.285   3.628  1.00  0.00     0.039 A 
HETATM    9  C   UNL     1      -0.866   2.706   2.715  1.00  0.00     0.085 A 
HETATM   10  C   UNL     1      -2.462   2.533   4.195  1.00  0.00     0.143 A 
HETATM   11  O   UNL     1      -1.575   3.402   3.645  1.00  0.00    -0.322 OA
HETATM   12  C   UNL     1       0.141   3.229   1.912  1.00  0.00     0.040 A 
HETATM   13  C   UNL     1       0.747   2.340   1.013  1.00  0.00     0.032 A 
ENDBRANCH   1   5
TORSDOF 1
