REMARK  4 active torsions:
REMARK  status: ('A' for Active; 'I' for Inactive)
REMARK       I    between atoms: C_1  and  N_2 
REMARK    1  A    between atoms: C_1  and  O_4 
REMARK    2  A    between atoms: O_4  and  C_14 
REMARK    3  A    between atoms: N_5  and  C_13 
REMARK    4  A    between atoms: C_14  and  C_15 
ROOT
HETATM    1  C   UNL     1      -1.627   5.410   0.866  1.00  0.00     0.348 C 
HETATM    2  N   UNL     1      -0.863   4.615   0.463  1.00  0.00    -0.363 N 
ATOM      3  HN  UNL     1       0.136   4.657   0.664  1.00  0.00     0.162 HD
HETATM    4  O   UNL     1      -2.406   6.191   1.273  1.00  0.00    -0.284 OA
ENDROOT
BRANCH   2   5
HETATM    5  C   UNL     1      -1.470   3.547  -0.360  1.00  0.00     0.086 C 
HETATM    6  C   UNL     1      -1.871   2.359   0.524  1.00  0.00     0.045 C 
HETATM    7  C   UNL     1      -0.660   1.623   1.094  1.00  0.00     0.130 C 
HETATM    8  N   UNL     1       0.272   1.248   0.037  1.00  0.00    -0.328 N 
HETATM    9  C   UNL     1       0.895   0.009  -0.029  1.00  0.00     0.363 C 
HETATM   10  C   UNL     1       0.720   2.330  -0.832  1.00  0.00     0.130 C 
HETATM   11  O   UNL     1       1.712  -0.294  -0.890  1.00  0.00    -0.238 OA
HETATM   12  C   UNL     1      -0.456   3.107  -1.424  1.00  0.00     0.045 C 
BRANCH   9  13
HETATM   13  O   UNL     1       0.464  -0.848   0.936  1.00  0.00    -0.299 OA
BRANCH  13  14
HETATM   14  C   UNL     1       0.724  -2.239   0.707  1.00  0.00     0.219 C 
BRANCH  14  15
HETATM   15  C   UNL     1       1.715  -2.832   1.680  1.00  0.00    -0.034 A 
HETATM   16  C   UNL     1       1.334  -3.875   2.540  1.00  0.00     0.009 A 
HETATM   17  C   UNL     1       2.272  -4.506   3.360  1.00  0.00     0.001 A 
HETATM   18  C   UNL     1       3.604  -4.101   3.333  1.00  0.00     0.000 A 
HETATM   19  C   UNL     1       3.995  -3.058   2.493  1.00  0.00     0.001 A 
HETATM   20  C   UNL     1       3.056  -2.426   1.673  1.00  0.00     0.009 A 
ENDBRANCH  14  15
ENDBRANCH  13  14
ENDBRANCH   9  13
ENDBRANCH   2   5
TORSDOF 4
