REMARK  1 active torsions:
REMARK  status: ('A' for Active; 'I' for Inactive)
REMARK    1  A    between atoms: C_4  and  N_5 
ROOT
HETATM    1  N   UNL     1      -1.446   2.934  -0.063  1.00  0.00    -0.332 N 
ATOM      2  HN  UNL     1      -0.741   3.449  -0.591  1.00  0.00     0.168 HD
HETATM    3  C   UNL     1      -2.300   3.465   0.541  1.00  0.00     0.353 C 
HETATM    4  O   UNL     1      -3.176   3.983   1.129  1.00  0.00    -0.283 OA
ENDROOT
BRANCH   1   5
HETATM    5  C   UNL     1      -1.474   1.529  -0.000  1.00  0.00     0.064 A 
HETATM    6  C   UNL     1      -2.628   0.709  -0.030  1.00  0.00     0.032 A 
HETATM    7  C   UNL     1      -2.583  -0.706  -0.021  1.00  0.00     0.005 A 
HETATM    8  C   UNL     1      -1.383  -1.434   0.001  1.00  0.00     0.032 A 
HETATM    9  C   UNL     1      -0.189  -0.674   0.016  1.00  0.00     0.069 A 
HETATM   10  C   UNL     1      -0.224   0.837   0.015  1.00  0.00     0.094 A 
HETATM   11  N   UNL     1       1.054  -1.178   0.028  1.00  0.00    -0.310 N 
HETATM   12  N   UNL     1       1.007   1.380   0.029  1.00  0.00    -0.309 N 
HETATM   13  S   UNL     1       2.088   0.121   0.034  1.00  0.00     0.068 SA
ATOM     14  HN  UNL     1       1.232   2.375   0.035  1.00  0.00     0.176 HD
ATOM     15  HN  UNL     1       1.313  -2.165   0.033  1.00  0.00     0.176 HD
ENDBRANCH   1   5
TORSDOF 1
