REMARK  2 active torsions:
REMARK  status: ('A' for Active; 'I' for Inactive)
REMARK    1  A    between atoms: C_2  and  C_6 
REMARK    2  A    between atoms: C_9  and  N_12 
ROOT
HETATM    1  N   UNL     1      -1.166   6.838  -0.389  1.00  0.00    -0.334 N 
ATOM      2  HN  UNL     1      -1.236   7.413   0.450  1.00  0.00     0.168 HD
HETATM    3  C   UNL     1      -1.349   7.267  -1.465  1.00  0.00     0.353 C 
HETATM    4  O   UNL     1      -1.515   7.699  -2.547  1.00  0.00    -0.283 OA
ENDROOT
BRANCH   1   5
HETATM    5  C   UNL     1      -0.842   5.468  -0.344  1.00  0.00     0.034 A 
HETATM    6  C   UNL     1      -0.027   4.811  -1.279  1.00  0.00     0.030 A 
HETATM    7  C   UNL     1       0.277   3.450  -1.140  1.00  0.00     0.015 A 
HETATM    8  C   UNL     1      -0.208   2.704  -0.056  1.00  0.00    -0.019 A 
HETATM    9  C   UNL     1      -1.006   3.367   0.887  1.00  0.00     0.015 A 
HETATM   10  C   UNL     1      -1.312   4.727   0.745  1.00  0.00     0.030 A 
BRANCH   8  11
HETATM   11  C   UNL     1       0.100   1.266   0.048  1.00  0.00     0.015 A 
HETATM   12  S   UNL     1       0.287   0.505   1.580  1.00  0.00    -0.101 SA
HETATM   13  C   UNL     1       0.565  -1.026   0.876  1.00  0.00     0.050 A 
HETATM   14  C   UNL     1       0.553  -0.970  -0.498  1.00  0.00     0.008 A 
HETATM   15  C   UNL     1       0.295   0.349  -0.973  1.00  0.00     0.020 A 
ENDBRANCH   8  11
ENDBRANCH   1   5
TORSDOF 2
