REMARK  0 active torsions:
REMARK  status: ('A' for Active; 'I' for Inactive)
ROOT
HETATM    1  S   UNL     1      -1.068   0.017  -0.009  1.00  0.00    -0.111 SA
HETATM    2  C   UNL     1       0.080   1.292  -0.004  1.00  0.00     0.079 A 
HETATM    3  C   UNL     1       1.375   0.816   0.001  1.00  0.00     0.041 A 
HETATM    4  C   UNL     1       1.424  -0.606   0.002  1.00  0.00     0.037 A 
HETATM    5  C   UNL     1       0.166  -1.169  -0.004  1.00  0.00     0.052 A 
HETATM    6  N   UNL     1       2.579   1.544   0.006  1.00  0.00    -0.334 N 
ATOM      7  HN  UNL     1       3.491   1.088   0.010  1.00  0.00     0.168 HD
HETATM    8  C   UNL     1       2.463   2.711   0.005  1.00  0.00     0.353 C 
HETATM    9  O   UNL     1       2.344   3.882   0.004  1.00  0.00    -0.283 OA
ENDROOT
TORSDOF 0
