REMARK  0 active torsions:
REMARK  status: ('A' for Active; 'I' for Inactive)
ROOT
HETATM    1  S   UNL     1      -1.016   0.168  -0.012  1.00  0.00    -0.084 SA
HETATM    2  C   UNL     1       0.242   1.355  -0.007  1.00  0.00     0.075 A 
HETATM    3  C   UNL     1       1.481   0.723  -0.000  1.00  0.00     0.038 A 
HETATM    4  C   UNL     1       1.393  -0.700   0.000  1.00  0.00     0.010 A 
HETATM    5  C   UNL     1       0.089  -1.132  -0.006  1.00  0.00     0.052 A 
HETATM    6  N   UNL     1      -0.143   2.664  -0.009  1.00  0.00    -0.329 N 
ATOM      7  HN  UNL     1      -1.122   2.952  -0.013  1.00  0.00     0.168 HD
HETATM    8  C   UNL     1       0.744   3.431  -0.006  1.00  0.00     0.353 C 
HETATM    9  O   UNL     1       1.636   4.197  -0.004  1.00  0.00    -0.283 OA
ENDROOT
TORSDOF 0
