REMARK  1 active torsions:
REMARK  status: ('A' for Active; 'I' for Inactive)
REMARK    1  A    between atoms: N_4  and  C_10 
ROOT
HETATM    1  C   UNL     1       0.908  -0.205  -0.152  1.00  0.00     0.353 C 
HETATM    2  N   UNL     1      -0.253  -0.037  -0.118  1.00  0.00    -0.334 N 
ATOM      3  HN  UNL     1      -0.714   0.485   0.627  1.00  0.00     0.168 HD
HETATM    4  O   UNL     1       2.069  -0.389  -0.174  1.00  0.00    -0.283 OA
ENDROOT
BRANCH   2   5
HETATM    5  C   UNL     1      -0.957  -0.618  -1.194  1.00  0.00     0.036 A 
HETATM    6  C   UNL     1      -2.107   0.046  -1.644  1.00  0.00     0.069 A 
HETATM    7  C   UNL     1      -2.915  -0.495  -2.651  1.00  0.00     0.104 A 
HETATM    8  C   UNL     1      -2.546  -1.694  -3.270  1.00  0.00     0.102 A 
HETATM    9  O   UNL     1      -4.041   0.233  -2.944  1.00  0.00    -0.348 OA
HETATM   10  C   UNL     1      -1.419  -2.379  -2.815  1.00  0.00     0.042 A 
HETATM   11  O   UNL     1      -3.216  -2.308  -4.297  1.00  0.00    -0.348 OA
HETATM   12  C   UNL     1      -0.636  -1.853  -1.782  1.00  0.00     0.032 A 
HETATM   13  C   UNL     1      -3.859  -1.404  -5.196  1.00  0.00     0.178 C 
HETATM   14  C   UNL     1      -5.227  -0.992  -4.677  1.00  0.00     0.053 C 
HETATM   15  C   UNL     1      -5.180  -0.587  -3.215  1.00  0.00     0.178 C 
ENDBRANCH   2   5
TORSDOF 1
