REMARK  2 active torsions:
REMARK  status: ('A' for Active; 'I' for Inactive)
REMARK    1  A    between atoms: C_3  and  N_13 
REMARK    2  A    between atoms: C_5  and  C_7 
ROOT
HETATM    1  N   UNL     1       0.206  -2.640   0.044  1.00  0.00    -0.332 N 
ATOM      2  HN  UNL     1      -0.388  -3.310   0.533  1.00  0.00     0.168 HD
HETATM    3  C   UNL     1       1.195  -2.952  -0.503  1.00  0.00     0.353 C 
HETATM    4  O   UNL     1       2.191  -3.269  -1.043  1.00  0.00    -0.283 OA
ENDROOT
BRANCH   1   5
HETATM    5  C   UNL     1      -0.095  -1.275  -0.027  1.00  0.00     0.066 A 
HETATM    6  C   UNL     1       0.722  -0.162  -0.044  1.00  0.00     0.076 A 
HETATM    7  O   UNL     1      -0.052   0.964  -0.053  1.00  0.00    -0.312 OA
HETATM    8  C   UNL     1       2.183   0.061  -0.027  1.00  0.00     0.079 C 
HETATM    9  C   UNL     1      -1.363   0.573  -0.015  1.00  0.00     0.088 A 
HETATM   10  C   UNL     1      -1.427  -0.807  -0.005  1.00  0.00     0.070 A 
BRANCH   9  11
HETATM   11  C   UNL     1      -2.367   1.634   0.034  1.00  0.00    -0.002 A 
HETATM   12  C   UNL     1      -3.727   1.315   0.165  1.00  0.00     0.014 A 
HETATM   13  C   UNL     1      -4.700   2.317   0.231  1.00  0.00     0.001 A 
HETATM   14  C   UNL     1      -4.326   3.655   0.164  1.00  0.00     0.000 A 
HETATM   15  C   UNL     1      -2.980   3.993   0.032  1.00  0.00     0.001 A 
HETATM   16  C   UNL     1      -2.009   2.989  -0.033  1.00  0.00     0.014 A 
ENDBRANCH   9  11
ENDBRANCH   1   5
TORSDOF 2
