REMARK  1 active torsions:
REMARK  status: ('A' for Active; 'I' for Inactive)
REMARK    1  A    between atoms: C_3  and  N_10 
ROOT
HETATM    1  N   UNL     1      -0.771   2.629  -0.084  1.00  0.00    -0.331 N 
ATOM      2  HN  UNL     1      -0.207   3.263  -0.650  1.00  0.00     0.168 HD
HETATM    3  C   UNL     1      -1.690   2.993   0.546  1.00  0.00     0.353 C 
HETATM    4  O   UNL     1      -2.622   3.371   1.157  1.00  0.00    -0.283 OA
ENDROOT
BRANCH   1   5
HETATM    5  C   UNL     1      -0.508   1.256  -0.000  1.00  0.00     0.082 A 
HETATM    6  C   UNL     1       0.775   0.745  -0.001  1.00  0.00     0.053 A 
HETATM    7  N   UNL     1       0.614  -0.618   0.019  1.00  0.00    -0.299 N 
HETATM    8  C   UNL     1       2.076   1.459  -0.031  1.00  0.00     0.072 C 
HETATM    9  C   UNL     1       1.612  -1.662   0.002  1.00  0.00     0.177 C 
HETATM   10  N   UNL     1      -0.677  -1.004   0.028  1.00  0.00    -0.301 N 
HETATM   11  C   UNL     1      -1.378   0.136  -0.009  1.00  0.00     0.051 A 
ATOM     12  HN  UNL     1      -1.041  -1.957   0.057  1.00  0.00     0.187 HD
HETATM   13  C   UNL     1      -2.858   0.045  -0.075  1.00  0.00     0.072 C 
ENDBRANCH   1   5
TORSDOF 1
