REMARK  2 active torsions:
REMARK  status: ('A' for Active; 'I' for Inactive)
REMARK    1  A    between atoms: N_1  and  C_7 
REMARK    2  A    between atoms: C_3  and  N_14 
ROOT
HETATM    1  N   UNL     1      -0.836  -2.482  -0.211  1.00  0.00    -0.332 N 
ATOM      2  HN  UNL     1      -0.190  -3.264  -0.321  1.00  0.00     0.168 HD
HETATM    3  C   UNL     1      -1.999  -2.621  -0.189  1.00  0.00     0.353 C 
HETATM    4  O   UNL     1      -3.169  -2.750  -0.165  1.00  0.00    -0.283 OA
ENDROOT
BRANCH   1   5
HETATM    5  C   UNL     1      -0.402  -1.158  -0.075  1.00  0.00     0.075 C 
HETATM    6  C   UNL     1       0.930  -0.805  -0.046  1.00  0.00     0.059 C 
HETATM    7  N   UNL     1       0.946   0.583   0.057  1.00  0.00    -0.259 N 
HETATM    8  C   UNL     1       2.115  -1.701  -0.013  1.00  0.00     0.073 C 
HETATM    9  N   UNL     1      -0.305   1.077   0.283  1.00  0.00    -0.302 N 
HETATM   10  C   UNL     1      -1.117   0.034   0.122  1.00  0.00     0.139 C 
ATOM     11  HN  UNL     1      -0.562   2.035   0.523  1.00  0.00     0.186 HD
BRANCH   7  12
HETATM   12  C   UNL     1       2.043   1.483  -0.036  1.00  0.00     0.056 A 
HETATM   13  C   UNL     1       3.157   1.190  -0.833  1.00  0.00     0.031 A 
HETATM   14  C   UNL     1       4.234   2.078  -0.883  1.00  0.00     0.002 A 
HETATM   15  C   UNL     1       4.200   3.262  -0.149  1.00  0.00     0.000 A 
HETATM   16  C   UNL     1       3.078   3.577   0.616  1.00  0.00     0.002 A 
HETATM   17  C   UNL     1       1.992   2.699   0.661  1.00  0.00     0.031 A 
ENDBRANCH   7  12
ENDBRANCH   1   5
TORSDOF 2
