REMARK  0 active torsions:
REMARK  status: ('A' for Active; 'I' for Inactive)
ROOT
HETATM    1  C   UNL     1      -0.936  -1.235   0.041  1.00  0.00     0.026 A 
HETATM    2  C   UNL     1       0.458  -1.349   0.050  1.00  0.00     0.010 A 
HETATM    3  C   UNL     1       1.189  -0.229   0.471  1.00  0.00     0.026 A 
HETATM    4  C   UNL     1       0.557   0.950   0.889  1.00  0.00     0.031 A 
HETATM    5  C   UNL     1      -0.841   1.050   0.891  1.00  0.00     0.034 A 
HETATM    6  C   UNL     1      -1.573  -0.060   0.460  1.00  0.00     0.031 A 
HETATM    7  N   UNL     1       1.144  -2.499  -0.356  1.00  0.00    -0.280 NA
HETATM    8  C   UNL     1       1.880  -3.182   0.735  1.00  0.00     0.126 C 
HETATM    9  C   UNL     1       2.843  -4.245   0.147  1.00  0.00     0.286 C 
HETATM   10  N   UNL     1       2.166  -5.216  -0.744  1.00  0.00     0.086 N 
HETATM   11  C   UNL     1       1.438  -4.480  -1.802  1.00  0.00     0.286 C 
HETATM   12  C   UNL     1       0.432  -3.464  -1.219  1.00  0.00     0.126 C 
HETATM   13  C   UNL     1       3.135  -6.134  -1.340  1.00  0.00     0.310 C 
HETATM   14  N   UNL     1      -1.572   2.161   1.359  1.00  0.00    -0.334 N 
ATOM     15  HN  UNL     1      -2.474   2.065   1.826  1.00  0.00     0.168 HD
HETATM   16  C   UNL     1      -1.068   3.202   1.173  1.00  0.00     0.353 C 
HETATM   17  O   UNL     1      -0.558   4.250   1.006  1.00  0.00    -0.283 OA
ENDROOT
TORSDOF 0
