REMARK  0 active torsions:
REMARK  status: ('A' for Active; 'I' for Inactive)
ROOT
HETATM    1  C   UNL     1       1.346  -0.200   0.092  1.00  0.00    -0.007 A 
HETATM    2  C   UNL     1       0.503  -1.314  -0.002  1.00  0.00     0.014 A 
HETATM    3  C   UNL     1      -0.881  -1.155  -0.071  1.00  0.00     0.003 A 
HETATM    4  C   UNL     1      -1.438   0.125  -0.056  1.00  0.00     0.029 A 
HETATM    5  C   UNL     1      -0.621   1.263   0.028  1.00  0.00     0.035 A 
HETATM    6  C   UNL     1       0.770   1.081   0.084  1.00  0.00     0.043 A 
HETATM    7  N   UNL     1      -1.100   2.590  -0.003  1.00  0.00    -0.334 N 
ATOM      8  HN  UNL     1      -0.603   3.341  -0.482  1.00  0.00     0.168 HD
HETATM    9  C   UNL     1      -2.113   2.764   0.564  1.00  0.00     0.353 C 
HETATM   10  C   UNL     1       2.789  -0.401   0.211  1.00  0.00     0.049 A 
HETATM   11  C   UNL     1       3.647   0.491   0.826  1.00  0.00     0.081 A 
HETATM   12  S   UNL     1       5.246  -0.125   0.821  1.00  0.00    -0.087 SA
HETATM   13  C   UNL     1       4.687  -1.535   0.015  1.00  0.00     0.047 A 
HETATM   14  N   UNL     1       3.397  -1.564  -0.244  1.00  0.00    -0.353 N 
ATOM     15  HN  UNL     1       2.913  -2.330  -0.712  1.00  0.00     0.166 HD
HETATM   16  C   UNL     1       5.636  -2.628  -0.335  1.00  0.00     0.076 C 
HETATM   17  O   UNL     1      -3.135   2.936   1.120  1.00  0.00    -0.283 OA
ENDROOT
TORSDOF 0
