REMARK  0 active torsions:
REMARK  status: ('A' for Active; 'I' for Inactive)
ROOT
HETATM    1  C   UNL     1       1.255  -0.274   0.401  1.00  0.00     0.002 A 
HETATM    2  C   UNL     1       0.405  -0.014   1.460  1.00  0.00     0.002 A 
HETATM    3  C   UNL     1      -0.943   0.259   1.214  1.00  0.00     0.031 A 
HETATM    4  C   UNL     1      -1.499   0.282  -0.088  1.00  0.00     0.057 A 
HETATM    5  C   UNL     1      -0.606   0.038  -1.175  1.00  0.00     0.061 A 
HETATM    6  C   UNL     1       0.754  -0.254  -0.898  1.00  0.00     0.032 A 
HETATM    7  N   UNL     1      -2.857   0.558  -0.213  1.00  0.00    -0.379 N 
HETATM    8  C   UNL     1      -3.450   1.240  -1.360  1.00  0.00     0.123 C 
HETATM    9  C   UNL     1      -4.352   2.372  -0.855  1.00  0.00     0.020 C 
HETATM   10  C   UNL     1      -5.346   1.926   0.217  1.00  0.00     0.003 C 
HETATM   11  C   UNL     1      -4.689   1.081   1.308  1.00  0.00     0.020 C 
HETATM   12  C   UNL     1      -3.833  -0.035   0.711  1.00  0.00     0.123 C 
HETATM   13  N   UNL     1      -1.087  -0.030  -2.509  1.00  0.00    -0.332 N 
ATOM     14  HN  UNL     1      -1.954  -0.504  -2.763  1.00  0.00     0.168 HD
HETATM   15  C   UNL     1      -0.397   0.509  -3.295  1.00  0.00     0.353 C 
HETATM   16  O   UNL     1       0.297   1.033  -4.088  1.00  0.00    -0.283 OA
ENDROOT
TORSDOF 0
