REMARK  2 active torsions:
REMARK  status: ('A' for Active; 'I' for Inactive)
REMARK    1  A    between atoms: C_2  and  C_11 
REMARK    2  A    between atoms: C_3  and  N_8 
ROOT
HETATM    1  N   UNL     1       0.557  -2.668   0.219  1.00  0.00    -0.330 N 
ATOM      2  HN  UNL     1       0.092  -3.306   0.865  1.00  0.00     0.168 HD
HETATM    3  C   UNL     1       1.492  -2.982  -0.416  1.00  0.00     0.353 C 
HETATM    4  O   UNL     1       2.443  -3.286  -1.037  1.00  0.00    -0.283 OA
ENDROOT
BRANCH   1   5
HETATM    5  C   UNL     1       0.128  -1.348   0.022  1.00  0.00     0.095 A 
HETATM    6  C   UNL     1      -1.194  -0.959  -0.050  1.00  0.00     0.137 A 
HETATM    7  O   UNL     1      -1.228   0.398  -0.193  1.00  0.00    -0.235 OA
HETATM    8  N   UNL     1       0.053   0.911  -0.198  1.00  0.00    -0.263 N 
HETATM    9  C   UNL     1       0.874  -0.140  -0.057  1.00  0.00     0.058 A 
ATOM     10  HN  UNL     1       0.321   1.891  -0.290  1.00  0.00     0.194 HD
HETATM   11  C   UNL     1       2.332   0.118   0.009  1.00  0.00     0.072 C 
BRANCH   6  12
HETATM   12  C   UNL     1      -2.494  -1.616   0.008  1.00  0.00     0.002 A 
HETATM   13  C   UNL     1      -3.618  -1.047  -0.613  1.00  0.00     0.014 A 
HETATM   14  C   UNL     1      -4.866  -1.675  -0.555  1.00  0.00     0.001 A 
HETATM   15  C   UNL     1      -5.009  -2.878   0.127  1.00  0.00     0.000 A 
HETATM   16  C   UNL     1      -3.908  -3.458   0.752  1.00  0.00     0.001 A 
HETATM   17  C   UNL     1      -2.658  -2.830   0.692  1.00  0.00     0.014 A 
ENDBRANCH   6  12
ENDBRANCH   1   5
TORSDOF 2
