REMARK  2 active torsions:
REMARK  status: ('A' for Active; 'I' for Inactive)
REMARK    1  A    between atoms: C_1  and  N_10 
REMARK    2  A    between atoms: C_5  and  N_7 
ROOT
HETATM    1  N   UNL     1      -1.140   2.582   0.101  1.00  0.00    -0.334 N 
ATOM      2  HN  UNL     1      -0.634   3.353  -0.334  1.00  0.00     0.168 HD
HETATM    3  C   UNL     1      -2.165   2.732   0.653  1.00  0.00     0.353 C 
HETATM    4  O   UNL     1      -3.200   2.877   1.192  1.00  0.00    -0.283 OA
ENDROOT
BRANCH   1   5
HETATM    5  C   UNL     1      -0.661   1.255   0.085  1.00  0.00     0.036 A 
HETATM    6  C   UNL     1      -1.479   0.123  -0.055  1.00  0.00     0.029 A 
HETATM    7  C   UNL     1      -0.921  -1.154  -0.115  1.00  0.00     0.004 A 
HETATM    8  C   UNL     1       0.463  -1.322  -0.042  1.00  0.00     0.030 A 
HETATM    9  C   UNL     1       1.306  -0.212   0.099  1.00  0.00     0.040 A 
HETATM   10  C   UNL     1       0.731   1.070   0.148  1.00  0.00     0.059 A 
BRANCH   9  11
HETATM   11  N   UNL     1       2.723  -0.384   0.213  1.00  0.00    -0.333 N 
HETATM   12  C   UNL     1       3.419  -1.579   0.134  1.00  0.00     0.096 A 
HETATM   13  C   UNL     1       4.757  -1.348   0.364  1.00  0.00     0.019 A 
HETATM   14  C   UNL     1       4.911   0.035   0.566  1.00  0.00     0.019 A 
HETATM   15  C   UNL     1       3.661   0.605   0.451  1.00  0.00     0.096 A 
ENDBRANCH   9  11
ENDBRANCH   1   5
TORSDOF 2
