REMARK  2 active torsions:
REMARK  status: ('A' for Active; 'I' for Inactive)
REMARK    1  A    between atoms: C_1  and  C_7 
REMARK    2  A    between atoms: C_10  and  N_13 
ROOT
HETATM    1  N   UNL     1       5.654   4.433  -0.464  1.00  0.00    -0.334 N 
ATOM      2  HN  UNL     1       6.143   4.747   0.374  1.00  0.00     0.168 HD
HETATM    3  C   UNL     1       5.931   4.813  -1.539  1.00  0.00     0.353 C 
HETATM    4  O   UNL     1       6.223   5.179  -2.617  1.00  0.00    -0.283 OA
ENDROOT
BRANCH   1   5
HETATM    5  C   UNL     1       4.592   3.508  -0.422  1.00  0.00     0.034 A 
HETATM    6  C   UNL     1       4.383   2.496  -1.372  1.00  0.00     0.030 A 
HETATM    7  C   UNL     1       3.327   1.587  -1.231  1.00  0.00     0.016 A 
HETATM    8  C   UNL     1       2.468   1.648  -0.126  1.00  0.00    -0.008 A 
HETATM    9  C   UNL     1       2.680   2.646   0.830  1.00  0.00     0.016 A 
HETATM   10  C   UNL     1       3.730   3.562   0.681  1.00  0.00     0.030 A 
BRANCH   8  11
HETATM   11  C   UNL     1       1.392   0.665   0.020  1.00  0.00     0.059 A 
HETATM   12  C   UNL     1       0.768   0.213   1.215  1.00  0.00     0.050 A 
HETATM   13  C   UNL     1      -0.147  -0.734   0.821  1.00  0.00     0.112 A 
HETATM   14  N   UNL     1      -0.041  -0.807  -0.533  1.00  0.00    -0.307 N 
HETATM   15  N   UNL     1       0.877   0.027  -1.045  1.00  0.00    -0.299 N 
HETATM   16  C   UNL     1      -0.764  -1.688  -1.417  1.00  0.00     0.177 C 
ATOM     17  HN  UNL     1       1.128   0.150  -2.026  1.00  0.00     0.187 HD
ENDBRANCH   8  11
ENDBRANCH   1   5
TORSDOF 2
