REMARK  1 active torsions:
REMARK  status: ('A' for Active; 'I' for Inactive)
REMARK    1  A    between atoms: C_3  and  N_5 
ROOT
HETATM    1  N   UNL     1      -4.001  -0.814   0.051  1.00  0.00    -0.334 N 
ATOM      2  HN  UNL     1      -4.248  -1.655   0.573  1.00  0.00     0.168 HD
HETATM    3  C   UNL     1      -4.794  -0.187  -0.546  1.00  0.00     0.353 C 
HETATM    4  O   UNL     1      -5.590   0.450  -1.131  1.00  0.00    -0.283 OA
ENDROOT
BRANCH   1   5
HETATM    5  C   UNL     1      -2.683  -0.318  -0.007  1.00  0.00     0.035 A 
HETATM    6  C   UNL     1      -2.348   1.041   0.015  1.00  0.00     0.031 A 
HETATM    7  C   UNL     1      -1.013   1.465   0.003  1.00  0.00     0.022 A 
HETATM    8  C   UNL     1       0.009   0.500  -0.008  1.00  0.00     0.015 A 
HETATM    9  S   UNL     1       1.708   0.784  -0.009  1.00  0.00    -0.101 SA
HETATM   10  C   UNL     1      -0.281  -0.866  -0.014  1.00  0.00    -0.017 A 
HETATM   11  C   UNL     1       2.062  -0.883  -0.006  1.00  0.00     0.051 A 
HETATM   12  C   UNL     1       0.921  -1.652  -0.011  1.00  0.00     0.020 A 
HETATM   13  C   UNL     1      -1.642  -1.260  -0.012  1.00  0.00     0.042 A 
ENDBRANCH   1   5
TORSDOF 1
