REMARK  2 active torsions:
REMARK  status: ('A' for Active; 'I' for Inactive)
REMARK    1  A    between atoms: C_1  and  N_10 
REMARK    2  A    between atoms: C_4  and  N_7 
ROOT
HETATM    1  N   UNL     1      -2.865   0.335  -0.138  1.00  0.00    -0.334 N 
ATOM      2  HN  UNL     1      -3.250   1.113  -0.673  1.00  0.00     0.168 HD
HETATM    3  C   UNL     1      -3.538  -0.424   0.451  1.00  0.00     0.353 C 
HETATM    4  O   UNL     1      -4.211  -1.198   1.027  1.00  0.00    -0.283 OA
ENDROOT
BRANCH   1   5
HETATM    5  C   UNL     1      -1.482   0.084  -0.046  1.00  0.00     0.034 A 
HETATM    6  C   UNL     1      -0.906  -1.193  -0.105  1.00  0.00     0.032 A 
HETATM    7  C   UNL     1       0.484  -1.365  -0.035  1.00  0.00     0.032 A 
HETATM    8  C   UNL     1       1.336  -0.259   0.085  1.00  0.00     0.038 A 
HETATM    9  C   UNL     1       0.768   1.022   0.109  1.00  0.00     0.032 A 
HETATM   10  C   UNL     1      -0.623   1.185   0.042  1.00  0.00     0.032 A 
BRANCH   8  11
HETATM   11  N   UNL     1       2.751  -0.437   0.201  1.00  0.00    -0.333 N 
HETATM   12  C   UNL     1       3.440  -1.637   0.165  1.00  0.00     0.096 A 
HETATM   13  C   UNL     1       4.782  -1.404   0.370  1.00  0.00     0.019 A 
HETATM   14  C   UNL     1       4.944  -0.015   0.519  1.00  0.00     0.019 A 
HETATM   15  C   UNL     1       3.696   0.556   0.397  1.00  0.00     0.096 A 
ENDBRANCH   8  11
ENDBRANCH   1   5
TORSDOF 2
