REMARK  1 active torsions:
REMARK  status: ('A' for Active; 'I' for Inactive)
REMARK    1  A    between atoms: N_7  and  C_13 
ROOT
HETATM    1  C   UNL     1       4.776  -0.506  -0.636  1.00  0.00     0.353 C 
HETATM    2  N   UNL     1       4.158  -1.286  -0.008  1.00  0.00    -0.334 N 
ATOM      3  HN  UNL     1       4.592  -2.055   0.503  1.00  0.00     0.168 HD
HETATM    4  O   UNL     1       5.394   0.284  -1.245  1.00  0.00    -0.283 OA
ENDROOT
BRANCH   2   5
HETATM    5  C   UNL     1       2.765  -1.065  -0.024  1.00  0.00     0.034 A 
HETATM    6  C   UNL     1       2.161   0.201   0.016  1.00  0.00     0.038 A 
HETATM    7  C   UNL     1       0.756   0.383   0.033  1.00  0.00    -0.041 A 
HETATM    8  C   UNL     1      -0.075  -0.754  -0.035  1.00  0.00    -0.043 A 
HETATM    9  C   UNL     1       0.199   1.810   0.084  1.00  0.00    -0.020 C 
HETATM   10  C   UNL     1      -1.604  -0.659  -0.111  1.00  0.00    -0.020 C 
HETATM   11  C   UNL     1       0.538  -2.025  -0.014  1.00  0.00     0.011 A 
HETATM   12  C   UNL     1      -2.097   0.784  -0.374  1.00  0.00     0.015 C 
HETATM   13  C   UNL     1      -2.214  -1.196   1.203  1.00  0.00     0.020 C 
HETATM   14  C   UNL     1      -2.147  -1.513  -1.283  1.00  0.00     0.020 C 
HETATM   15  C   UNL     1      -1.315   1.836   0.390  1.00  0.00     0.015 C 
HETATM   16  C   UNL     1       1.928  -2.175  -0.004  1.00  0.00     0.030 A 
HETATM   17  C   UNL     1       0.488   2.493  -1.271  1.00  0.00     0.020 C 
HETATM   18  C   UNL     1       0.873   2.635   1.208  1.00  0.00     0.020 C 
ENDBRANCH   2   5
TORSDOF 1
