REMARK  1 active torsions:
REMARK  status: ('A' for Active; 'I' for Inactive)
REMARK    1  A    between atoms: C_3  and  N_7 
ROOT
HETATM    1  C   UNL     1       1.103   0.166  -0.114  1.00  0.00     0.353 C 
HETATM    2  O   UNL     1      -0.069   0.269  -0.136  1.00  0.00    -0.283 OA
HETATM    3  N   UNL     1       2.269   0.033  -0.069  1.00  0.00    -0.332 N 
ATOM      4  HN  UNL     1       2.733  -0.532   0.642  1.00  0.00     0.168 HD
ENDROOT
BRANCH   3   5
HETATM    5  C   UNL     1       2.975   0.720  -1.080  1.00  0.00     0.068 A 
HETATM    6  C   UNL     1       4.141   0.123  -1.583  1.00  0.00     0.032 A 
HETATM    7  C   UNL     1       4.935   0.759  -2.554  1.00  0.00     0.003 A 
HETATM    8  C   UNL     1       4.583   2.017  -3.043  1.00  0.00     0.010 A 
HETATM    9  C   UNL     1       3.442   2.618  -2.542  1.00  0.00    -0.020 A 
HETATM   10  C   UNL     1       2.664   1.986  -1.583  1.00  0.00     0.103 A 
HETATM   11  C   UNL     1       2.848   3.926  -2.904  1.00  0.00     0.079 C 
HETATM   12  O   UNL     1       1.578   2.728  -1.194  1.00  0.00    -0.338 OA
HETATM   13  C   UNL     1       1.691   4.002  -1.883  1.00  0.00     0.065 C 
HETATM   14  C   UNL     1       1.948   5.070  -0.815  1.00  0.00     0.046 C 
HETATM   15  C   UNL     1       0.353   4.265  -2.578  1.00  0.00     0.046 C 
ENDBRANCH   3   5
TORSDOF 1
