REMARK  2 active torsions:
REMARK  status: ('A' for Active; 'I' for Inactive)
REMARK    1  A    between atoms: C_2  and  N_14 
REMARK    2  A    between atoms: C_6  and  C_7 
ROOT
HETATM    1  N   UNL     1      -0.293  -2.533  -0.081  1.00  0.00    -0.327 N 
ATOM      2  HN  UNL     1       0.368  -3.066  -0.646  1.00  0.00     0.169 HD
HETATM    3  C   UNL     1      -1.146  -3.039   0.542  1.00  0.00     0.353 C 
HETATM    4  O   UNL     1      -2.015  -3.556   1.145  1.00  0.00    -0.283 OA
ENDROOT
BRANCH   1   5
HETATM    5  C   UNL     1      -0.256  -1.174   0.011  1.00  0.00     0.100 A 
HETATM    6  S   UNL     1       1.309  -0.435   0.033  1.00  0.00    -0.052 SA
HETATM    7  C   UNL     1       0.607   1.130   0.049  1.00  0.00     0.086 A 
HETATM    8  N   UNL     1      -0.709   1.135   0.055  1.00  0.00    -0.351 N 
HETATM    9  C   UNL     1      -1.215  -0.159   0.031  1.00  0.00     0.040 A 
ATOM     10  HN  UNL     1      -1.282   1.978   0.075  1.00  0.00     0.166 HD
HETATM   11  C   UNL     1      -2.699  -0.275  -0.012  1.00  0.00     0.071 C 
BRANCH   7  12
HETATM   12  C   UNL     1       1.439   2.343  -0.031  1.00  0.00    -0.002 A 
HETATM   13  C   UNL     1       2.726   2.423   0.526  1.00  0.00     0.014 A 
HETATM   14  C   UNL     1       3.496   3.581   0.386  1.00  0.00     0.001 A 
HETATM   15  C   UNL     1       2.991   4.679  -0.307  1.00  0.00     0.000 A 
HETATM   16  C   UNL     1       1.709   4.627  -0.847  1.00  0.00     0.001 A 
HETATM   17  C   UNL     1       0.937   3.470  -0.703  1.00  0.00     0.014 A 
ENDBRANCH   7  12
ENDBRANCH   1   5
TORSDOF 2
