REMARK  0 active torsions:
REMARK  status: ('A' for Active; 'I' for Inactive)
ROOT
HETATM    1  S   UNL     1      -1.436  -0.386   0.040  1.00  0.00    -0.084 SA
HETATM    2  C   UNL     1      -0.877   1.251   0.006  1.00  0.00     0.076 A 
HETATM    3  C   UNL     1       0.509   1.264  -0.006  1.00  0.00     0.044 A 
HETATM    4  C   UNL     1       1.115  -0.035  -0.010  1.00  0.00    -0.053 A 
HETATM    5  C   UNL     1       0.148  -1.017  -0.006  1.00  0.00     0.058 A 
HETATM    6  N   UNL     1      -1.688   2.347   0.075  1.00  0.00    -0.329 N 
ATOM      7  HN  UNL     1      -1.439   3.179   0.610  1.00  0.00     0.168 HD
HETATM    8  C   UNL     1      -2.693   2.262  -0.526  1.00  0.00     0.353 C 
HETATM    9  O   UNL     1      -3.708   2.196  -1.118  1.00  0.00    -0.283 OA
HETATM   10  C   UNL     1       2.583  -0.294  -0.007  1.00  0.00     0.049 C 
ENDROOT
TORSDOF 0
