REMARK  1 active torsions:
REMARK  status: ('A' for Active; 'I' for Inactive)
REMARK    1  A    between atoms: C_9  and  N_11 
ROOT
HETATM    1  N   UNL     1       3.779  -1.300   0.003  1.00  0.00    -0.334 N 
ATOM      2  HN  UNL     1       3.879  -2.203  -0.461  1.00  0.00     0.168 HD
HETATM    3  C   UNL     1       4.669  -0.775   0.557  1.00  0.00     0.353 C 
HETATM    4  O   UNL     1       5.565  -0.238   1.099  1.00  0.00    -0.283 OA
ENDROOT
BRANCH   1   5
HETATM    5  C   UNL     1       2.561  -0.592   0.025  1.00  0.00     0.034 A 
HETATM    6  C   UNL     1       2.452   0.806  -0.058  1.00  0.00     0.032 A 
HETATM    7  C   UNL     1       1.200   1.427  -0.061  1.00  0.00     0.039 A 
HETATM    8  C   UNL     1       0.038   0.662   0.000  1.00  0.00     0.075 A 
HETATM    9  O   UNL     1      -1.141   1.357  -0.011  1.00  0.00    -0.351 OA
HETATM   10  C   UNL     1       0.115  -0.732   0.025  1.00  0.00    -0.022 A 
HETATM   11  C   UNL     1      -2.285   0.588   0.373  1.00  0.00     0.176 C 
HETATM   12  C   UNL     1      -2.342  -0.737  -0.366  1.00  0.00     0.031 C 
HETATM   13  C   UNL     1      -1.132  -1.572   0.032  1.00  0.00     0.043 C 
HETATM   14  C   UNL     1       1.378  -1.346   0.056  1.00  0.00     0.039 A 
ENDBRANCH   1   5
TORSDOF 1
