REMARK  0 active torsions:
REMARK  status: ('A' for Active; 'I' for Inactive)
ROOT
HETATM    1  C   UNL     1       1.156  -0.190   0.381  1.00  0.00     0.031 A 
HETATM    2  C   UNL     1       0.485  -1.348  -0.025  1.00  0.00     0.030 A 
HETATM    3  C   UNL     1      -0.808  -1.190  -0.541  1.00  0.00     0.031 A 
HETATM    4  C   UNL     1      -1.430   0.063  -0.595  1.00  0.00     0.032 A 
HETATM    5  C   UNL     1      -0.772   1.212  -0.136  1.00  0.00     0.034 A 
HETATM    6  C   UNL     1       0.541   1.069   0.321  1.00  0.00     0.032 A 
HETATM    7  N   UNL     1       1.008  -2.618   0.138  1.00  0.00    -0.381 N 
HETATM    8  C   UNL     1       1.169  -3.485  -1.031  1.00  0.00     0.123 C 
HETATM    9  C   UNL     1       0.897  -4.932  -0.614  1.00  0.00     0.020 C 
HETATM   10  C   UNL     1       1.713  -5.343   0.614  1.00  0.00     0.003 C 
HETATM   11  C   UNL     1       1.579  -4.326   1.748  1.00  0.00     0.020 C 
HETATM   12  C   UNL     1       1.893  -2.911   1.263  1.00  0.00     0.123 C 
HETATM   13  N   UNL     1      -1.326   2.508  -0.157  1.00  0.00    -0.334 N 
ATOM     14  HN  UNL     1      -0.778   3.337  -0.387  1.00  0.00     0.168 HD
HETATM   15  C   UNL     1      -2.467   2.558   0.111  1.00  0.00     0.353 C 
HETATM   16  O   UNL     1      -3.617   2.609   0.361  1.00  0.00    -0.283 OA
ENDROOT
TORSDOF 0
