REMARK  2 active torsions:
REMARK  status: ('A' for Active; 'I' for Inactive)
REMARK    1  A    between atoms: C_1  and  C_2 
REMARK    2  A    between atoms: C_5  and  N_8 
ROOT
HETATM    1  N   UNL     1      -1.885   6.580  -0.395  1.00  0.00    -0.334 N 
ATOM      2  HN  UNL     1      -2.027   7.134   0.450  1.00  0.00     0.168 HD
HETATM    3  C   UNL     1      -2.075   7.009  -1.472  1.00  0.00     0.353 C 
HETATM    4  O   UNL     1      -2.245   7.439  -2.553  1.00  0.00    -0.283 OA
ENDROOT
BRANCH   1   5
HETATM    5  C   UNL     1      -1.446   5.242  -0.359  1.00  0.00     0.034 A 
HETATM    6  C   UNL     1      -0.581   4.665  -1.301  1.00  0.00     0.030 A 
HETATM    7  C   UNL     1      -0.162   3.335  -1.174  1.00  0.00     0.016 A 
HETATM    8  C   UNL     1      -0.579   2.542  -0.098  1.00  0.00    -0.002 A 
HETATM    9  C   UNL     1      -1.427   3.121   0.854  1.00  0.00     0.016 A 
HETATM   10  C   UNL     1      -1.850   4.453   0.725  1.00  0.00     0.030 A 
BRANCH   8  11
HETATM   11  C   UNL     1      -0.134   1.154   0.003  1.00  0.00     0.085 A 
HETATM   12  C   UNL     1       0.737   0.370  -0.732  1.00  0.00     0.040 A 
HETATM   13  C   UNL     1       0.717  -0.921  -0.154  1.00  0.00     0.027 A 
HETATM   14  C   UNL     1      -0.151  -0.848   0.908  1.00  0.00     0.142 A 
HETATM   15  O   UNL     1      -0.669   0.404   1.014  1.00  0.00    -0.322 OA
ENDBRANCH   8  11
ENDBRANCH   1   5
TORSDOF 2
