REMARK  0 active torsions:
REMARK  status: ('A' for Active; 'I' for Inactive)
ROOT
HETATM    1  C   UNL     1       1.305   0.070   0.840  1.00  0.00     0.007 A 
HETATM    2  C   UNL     1       0.844   1.152   0.106  1.00  0.00     0.049 A 
HETATM    3  C   UNL     1      -0.319   1.002  -0.627  1.00  0.00     0.108 A 
HETATM    4  N   UNL     1      -1.026  -0.153  -0.638  1.00  0.00    -0.329 N 
ATOM      5  HN  UNL     1      -1.889  -0.217  -1.178  1.00  0.00     0.169 HD
HETATM    6  C   UNL     1      -0.589  -1.222   0.067  1.00  0.00     0.104 A 
HETATM    7  C   UNL     1       0.582  -1.120   0.816  1.00  0.00     0.048 A 
HETATM    8  N   UNL     1      -1.277  -2.405  -0.057  1.00  0.00    -0.363 N 
HETATM    9  C   UNL     1      -1.260  -3.489   0.931  1.00  0.00     0.150 C 
HETATM   10  C   UNL     1      -1.255  -4.834   0.184  1.00  0.00     0.187 C 
HETATM   11  O   UNL     1      -2.371  -4.946  -0.716  1.00  0.00    -0.388 OA
HETATM   12  C   UNL     1      -2.352  -3.875  -1.679  1.00  0.00     0.187 C 
HETATM   13  C   UNL     1      -2.408  -2.498  -0.994  1.00  0.00     0.150 C 
HETATM   14  N   UNL     1      -0.802   2.094  -1.358  1.00  0.00    -0.320 N 
ATOM     15  HN  UNL     1      -0.600   3.064  -1.115  1.00  0.00     0.169 HD
HETATM   16  C   UNL     1      -1.462   1.784  -2.278  1.00  0.00     0.354 C 
HETATM   17  O   UNL     1      -2.117   1.525  -3.220  1.00  0.00    -0.283 OA
ENDROOT
TORSDOF 0
