REMARK  2 active torsions:
REMARK  status: ('A' for Active; 'I' for Inactive)
REMARK    1  A    between atoms: C_1  and  C_9 
REMARK    2  A    between atoms: C_11  and  N_15 
ROOT
HETATM    1  N   UNL     1       3.868   4.249   2.262  1.00  0.00    -0.334 N 
ATOM      2  HN  UNL     1       4.325   5.145   2.095  1.00  0.00     0.168 HD
HETATM    3  C   UNL     1       3.441   3.946   3.313  1.00  0.00     0.353 C 
HETATM    4  O   UNL     1       2.999   3.651   4.361  1.00  0.00    -0.283 OA
ENDROOT
BRANCH   1   5
HETATM    5  C   UNL     1       3.703   3.285   1.249  1.00  0.00     0.035 A 
HETATM    6  C   UNL     1       2.567   2.469   1.105  1.00  0.00     0.044 A 
HETATM    7  C   UNL     1       2.453   1.551   0.046  1.00  0.00     0.012 A 
HETATM    8  C   UNL     1       3.484   1.477  -0.899  1.00  0.00     0.015 A 
HETATM    9  C   UNL     1       4.611   2.290  -0.781  1.00  0.00     0.003 A 
HETATM   10  C   UNL     1       4.716   3.183   0.287  1.00  0.00     0.029 A 
BRANCH   7  11
HETATM   11  C   UNL     1       1.281   0.687  -0.046  1.00  0.00     0.137 A 
HETATM   12  N   UNL     1       0.261   0.735   0.882  1.00  0.00    -0.323 N 
HETATM   13  C   UNL     1      -0.551  -0.206   0.462  1.00  0.00     0.144 A 
ATOM     14  HN  UNL     1       0.163   1.348   1.691  1.00  0.00     0.169 HD
HETATM   15  O   UNL     1      -0.114  -0.833  -0.666  1.00  0.00    -0.223 OA
HETATM   16  C   UNL     1      -1.826  -0.674   1.030  1.00  0.00     0.100 C 
HETATM   17  N   UNL     1       1.100  -0.239  -1.003  1.00  0.00    -0.242 N 
ATOM     18  HN  UNL     1       1.709  -0.456  -1.792  1.00  0.00     0.196 HD
ENDBRANCH   7  11
ENDBRANCH   1   5
TORSDOF 2
