REMARK  3 active torsions:
REMARK  status: ('A' for Active; 'I' for Inactive)
REMARK    1  A    between atoms: C_4  and  C_7 
REMARK    2  A    between atoms: C_6  and  N_14 
REMARK    3  A    between atoms: C_7  and  N_8 
ROOT
HETATM    1  N   UNL     1       1.752   0.748   1.828  1.00  0.00    -0.334 N 
ATOM      2  HN  UNL     1       1.387   0.690   2.779  1.00  0.00     0.168 HD
HETATM    3  C   UNL     1       2.834   1.150   1.588  1.00  0.00     0.353 C 
HETATM    4  O   UNL     1       3.914   1.533   1.343  1.00  0.00    -0.283 OA
ENDROOT
BRANCH   1   5
HETATM    5  C   UNL     1       1.000   0.353   0.704  1.00  0.00     0.034 A 
HETATM    6  C   UNL     1       1.552  -0.279  -0.421  1.00  0.00     0.029 A 
HETATM    7  C   UNL     1       0.757  -0.612  -1.522  1.00  0.00     0.003 A 
HETATM    8  C   UNL     1      -0.615  -0.367  -1.493  1.00  0.00     0.009 A 
HETATM    9  C   UNL     1      -1.214   0.181  -0.355  1.00  0.00    -0.039 A 
HETATM   10  C   UNL     1      -0.392   0.554   0.727  1.00  0.00     0.038 A 
BRANCH   9  11
HETATM   11  C   UNL     1      -2.710   0.402  -0.312  1.00  0.00     0.155 C 
BRANCH  11  12
HETATM   12  N   UNL     1      -3.545  -0.718   0.106  1.00  0.00    -0.404 N 
HETATM   13  C   UNL     1      -3.331  -1.260   1.449  1.00  0.00     0.143 C 
HETATM   14  C   UNL     1      -2.545  -2.580   1.490  1.00  0.00     0.187 C 
HETATM   15  O   UNL     1      -3.120  -3.555   0.611  1.00  0.00    -0.388 OA
HETATM   16  C   UNL     1      -3.097  -3.072  -0.736  1.00  0.00     0.187 C 
HETATM   17  C   UNL     1      -3.868  -1.750  -0.881  1.00  0.00     0.143 C 
ENDBRANCH  11  12
ENDBRANCH   9  11
ENDBRANCH   1   5
TORSDOF 3
