REMARK  2 active torsions:
REMARK  status: ('A' for Active; 'I' for Inactive)
REMARK    1  A    between atoms: C_1  and  C_2 
REMARK    2  A    between atoms: C_5  and  N_8 
ROOT
HETATM    1  N   UNL     1       4.724  -5.702  -0.434  1.00  0.00    -0.334 N 
ATOM      2  HN  UNL     1       5.030  -6.210   0.395  1.00  0.00     0.168 HD
HETATM    3  C   UNL     1       5.089  -5.976  -1.515  1.00  0.00     0.353 C 
HETATM    4  O   UNL     1       5.443  -6.265  -2.598  1.00  0.00    -0.283 OA
ENDROOT
BRANCH   1   5
HETATM    5  C   UNL     1       3.829  -4.615  -0.372  1.00  0.00     0.034 A 
HETATM    6  C   UNL     1       2.794  -4.387  -1.293  1.00  0.00     0.030 A 
HETATM    7  C   UNL     1       1.930  -3.295  -1.148  1.00  0.00     0.016 A 
HETATM    8  C   UNL     1       2.059  -2.418  -0.065  1.00  0.00    -0.009 A 
HETATM    9  C   UNL     1       3.072  -2.656   0.872  1.00  0.00     0.016 A 
HETATM   10  C   UNL     1       3.942  -3.743   0.718  1.00  0.00     0.030 A 
BRANCH   8  11
HETATM   11  C   UNL     1       1.169  -1.268   0.045  1.00  0.00     0.049 A 
HETATM   12  C   UNL     1       0.756  -0.716   1.241  1.00  0.00     0.081 A 
HETATM   13  S   UNL     1      -0.238   0.649   0.946  1.00  0.00    -0.087 SA
HETATM   14  C   UNL     1      -0.059   0.399  -0.744  1.00  0.00     0.047 A 
HETATM   15  N   UNL     1       0.672  -0.640  -1.087  1.00  0.00    -0.353 N 
HETATM   16  C   UNL     1      -0.699   1.325  -1.718  1.00  0.00     0.076 C 
ATOM     17  HN  UNL     1       0.848  -0.940  -2.046  1.00  0.00     0.166 HD
ENDBRANCH   8  11
ENDBRANCH   1   5
TORSDOF 2
