REMARK  1 active torsions:
REMARK  status: ('A' for Active; 'I' for Inactive)
REMARK    1  A    between atoms: C_1  and  N_11 
ROOT
HETATM    1  N   UNL     1      -4.005  -0.299   0.020  1.00  0.00    -0.334 N 
ATOM      2  HN  UNL     1      -4.377  -1.105   0.523  1.00  0.00     0.168 HD
HETATM    3  C   UNL     1      -4.691   0.450  -0.569  1.00  0.00     0.353 C 
HETATM    4  O   UNL     1      -5.380   1.211  -1.141  1.00  0.00    -0.283 OA
ENDROOT
BRANCH   1   5
HETATM    5  C   UNL     1      -2.627   0.000  -0.021  1.00  0.00     0.035 A 
HETATM    6  C   UNL     1      -2.100   1.300   0.010  1.00  0.00     0.032 A 
HETATM    7  C   UNL     1      -0.720   1.543   0.006  1.00  0.00     0.033 A 
HETATM    8  C   UNL     1       0.145   0.439  -0.010  1.00  0.00     0.044 A 
HETATM    9  C   UNL     1      -0.341  -0.871  -0.018  1.00  0.00    -0.006 A 
HETATM   10  N   UNL     1       1.522   0.354  -0.016  1.00  0.00    -0.360 N 
HETATM   11  C   UNL     1      -1.735  -1.084  -0.023  1.00  0.00     0.043 A 
HETATM   12  C   UNL     1       0.783  -1.740  -0.012  1.00  0.00     0.031 A 
HETATM   13  C   UNL     1       1.915  -0.960  -0.008  1.00  0.00     0.091 A 
HETATM   14  C   UNL     1       2.454   1.460  -0.035  1.00  0.00     0.155 C 
ENDBRANCH   1   5
TORSDOF 1
