REMARK  0 active torsions:
REMARK  status: ('A' for Active; 'I' for Inactive)
ROOT
HETATM    1  C   UNL     1       0.790   1.206   0.151  1.00  0.00     0.046 A 
HETATM    2  C   UNL     1      -0.453   1.055  -0.429  1.00  0.00     0.092 A 
HETATM    3  N   UNL     1      -1.116  -0.119  -0.491  1.00  0.00    -0.352 N 
ATOM      4  HN  UNL     1      -2.033  -0.172  -0.934  1.00  0.00     0.166 HD
HETATM    5  C   UNL     1      -0.549  -1.223   0.041  1.00  0.00     0.105 A 
HETATM    6  C   UNL     1       0.696  -1.132   0.658  1.00  0.00     0.077 A 
HETATM    7  C   UNL     1       1.386   0.082   0.722  1.00  0.00     0.039 A 
HETATM    8  N   UNL     1      -1.155  -2.447  -0.153  1.00  0.00    -0.363 N 
HETATM    9  C   UNL     1      -1.159  -3.486   0.885  1.00  0.00     0.150 C 
HETATM   10  C   UNL     1      -1.245  -4.859   0.194  1.00  0.00     0.187 C 
HETATM   11  O   UNL     1      -2.398  -4.952  -0.662  1.00  0.00    -0.388 OA
HETATM   12  C   UNL     1      -2.373  -3.916  -1.661  1.00  0.00     0.187 C 
HETATM   13  C   UNL     1      -2.337  -2.515  -1.026  1.00  0.00     0.150 C 
HETATM   14  N   UNL     1       2.685   0.052   1.273  1.00  0.00    -0.334 N 
ATOM     15  HN  UNL     1       3.304  -0.753   1.174  1.00  0.00     0.168 HD
HETATM   16  C   UNL     1       3.000   1.018   1.852  1.00  0.00     0.353 C 
HETATM   17  O   UNL     1       3.320   1.998   2.421  1.00  0.00    -0.283 OA
ENDROOT
TORSDOF 0
