REMARK  1 active torsions:
REMARK  status: ('A' for Active; 'I' for Inactive)
REMARK    1  A    between atoms: C_2  and  N_11 
ROOT
HETATM    1  N   UNL     1      -3.009   2.365  -0.038  1.00  0.00    -0.334 N 
ATOM      2  HN  UNL     1      -3.881   2.286  -0.561  1.00  0.00     0.168 HD
HETATM    3  C   UNL     1      -2.722   3.326   0.571  1.00  0.00     0.353 C 
HETATM    4  O   UNL     1      -2.424   4.297   1.164  1.00  0.00    -0.283 OA
ENDROOT
BRANCH   1   5
HETATM    5  C   UNL     1      -2.055   1.327   0.009  1.00  0.00     0.036 A 
HETATM    6  C   UNL     1      -2.539   0.015  -0.003  1.00  0.00     0.030 A 
HETATM    7  C   UNL     1      -1.678  -1.092  -0.001  1.00  0.00     0.016 A 
HETATM    8  C   UNL     1      -0.287  -0.883   0.004  1.00  0.00    -0.008 A 
HETATM    9  C   UNL     1       0.839  -1.750   0.004  1.00  0.00     0.031 A 
HETATM   10  C   UNL     1       0.197   0.426   0.001  1.00  0.00     0.046 A 
HETATM   11  C   UNL     1       1.971  -0.967  -0.001  1.00  0.00     0.091 A 
HETATM   12  N   UNL     1       1.575   0.344  -0.008  1.00  0.00    -0.360 N 
HETATM   13  C   UNL     1       2.472   1.478  -0.033  1.00  0.00     0.155 C 
HETATM   14  C   UNL     1      -0.662   1.540  -0.003  1.00  0.00     0.060 A 
ENDBRANCH   1   5
TORSDOF 1
