REMARK  1 active torsions:
REMARK  status: ('A' for Active; 'I' for Inactive)
REMARK    1  A    between atoms: C_4  and  N_5 
ROOT
HETATM    1  N   UNL     1      -2.125  -2.586  -0.186  1.00  0.00    -0.334 N 
ATOM      2  HN  UNL     1      -2.869  -2.805  -0.848  1.00  0.00     0.168 HD
HETATM    3  C   UNL     1      -1.636  -3.401   0.502  1.00  0.00     0.353 C 
HETATM    4  O   UNL     1      -1.145  -4.244   1.159  1.00  0.00    -0.283 OA
ENDROOT
BRANCH   1   5
HETATM    5  C   UNL     1      -1.612  -1.284  -0.033  1.00  0.00     0.046 A 
HETATM    6  C   UNL     1      -2.514  -0.206  -0.015  1.00  0.00     0.030 A 
HETATM    7  C   UNL     1      -2.068   1.112   0.024  1.00  0.00     0.005 A 
HETATM    8  C   UNL     1      -0.703   1.402   0.034  1.00  0.00     0.030 A 
HETATM    9  C   UNL     1       0.204   0.331   0.011  1.00  0.00     0.046 A 
HETATM   10  C   UNL     1      -0.215  -1.008  -0.022  1.00  0.00     0.019 A 
HETATM   11  N   UNL     1       1.585   0.328  -0.005  1.00  0.00    -0.360 N 
HETATM   12  C   UNL     1       0.974  -1.800  -0.048  1.00  0.00     0.033 A 
HETATM   13  C   UNL     1       2.058  -0.953  -0.022  1.00  0.00     0.092 A 
HETATM   14  C   UNL     1       2.417   1.511  -0.026  1.00  0.00     0.155 C 
ENDBRANCH   1   5
TORSDOF 1
