REMARK  3 active torsions:
REMARK  status: ('A' for Active; 'I' for Inactive)
REMARK    1  A    between atoms: N_1  and  C_4 
REMARK    2  A    between atoms: C_7  and  C_9 
REMARK    3  A    between atoms: C_9  and  N_10 
ROOT
HETATM    1  N   UNL     1       0.752   0.019  -0.381  1.00  0.00    -0.334 N 
ATOM      2  HN  UNL     1       0.312  -0.170  -1.282  1.00  0.00     0.168 HD
HETATM    3  C   UNL     1       0.135   0.262   0.588  1.00  0.00     0.353 C 
HETATM    4  O   UNL     1      -0.487   0.482   1.562  1.00  0.00    -0.283 OA
ENDROOT
BRANCH   1   5
HETATM    5  C   UNL     1       2.150   0.010  -0.199  1.00  0.00     0.034 A 
HETATM    6  C   UNL     1       2.793  -0.562   0.911  1.00  0.00     0.030 A 
HETATM    7  C   UNL     1       4.188  -0.553   1.018  1.00  0.00     0.011 A 
HETATM    8  C   UNL     1       4.977   0.018   0.011  1.00  0.00    -0.030 A 
HETATM    9  C   UNL     1       4.344   0.547  -1.119  1.00  0.00     0.011 A 
HETATM   10  C   UNL     1       2.948   0.541  -1.220  1.00  0.00     0.030 A 
BRANCH   8  11
HETATM   11  C   UNL     1       6.485   0.072   0.148  1.00  0.00     0.311 C 
BRANCH  11  12
HETATM   12  N   UNL     1       7.032   1.447   0.149  1.00  0.00     0.092 N 
HETATM   13  C   UNL     1       6.557   2.199   1.325  1.00  0.00     0.272 C 
HETATM   14  C   UNL     1       7.189   3.586   1.440  1.00  0.00     0.030 C 
HETATM   15  C   UNL     1       8.707   3.497   1.441  1.00  0.00     0.003 C 
HETATM   16  C   UNL     1       9.171   2.755   0.197  1.00  0.00     0.030 C 
HETATM   17  C   UNL     1       8.503   1.382   0.092  1.00  0.00     0.272 C 
ENDBRANCH  11  12
ENDBRANCH   8  11
ENDBRANCH   1   5
TORSDOF 3
