REMARK  2 active torsions:
REMARK  status: ('A' for Active; 'I' for Inactive)
REMARK    1  A    between atoms: C_5  and  C_8 
REMARK    2  A    between atoms: C_11  and  N_14 
ROOT
HETATM    1  N   UNL     1       5.362  -4.344   1.137  1.00  0.00    -0.320 N 
ATOM      2  HN  UNL     1       5.704  -5.300   1.035  1.00  0.00     0.169 HD
HETATM    3  C   UNL     1       5.936  -3.509   1.725  1.00  0.00     0.354 C 
HETATM    4  O   UNL     1       6.547  -2.701   2.325  1.00  0.00    -0.283 OA
ENDROOT
BRANCH   1   5
HETATM    5  C   UNL     1       4.157  -3.889   0.589  1.00  0.00     0.114 A 
HETATM    6  C   UNL     1       3.346  -4.759  -0.107  1.00  0.00     0.100 A 
HETATM    7  S   UNL     1       1.948  -3.941  -0.655  1.00  0.00    -0.080 SA
HETATM    8  C   UNL     1       2.509  -2.490   0.090  1.00  0.00     0.086 A 
HETATM    9  N   UNL     1       3.686  -2.596   0.678  1.00  0.00    -0.336 N 
ATOM     10  HN  UNL     1       4.179  -1.828   1.135  1.00  0.00     0.168 HD
BRANCH   8  11
HETATM   11  C   UNL     1       1.733  -1.240   0.025  1.00  0.00    -0.001 A 
HETATM   12  C   UNL     1       2.414  -0.010   0.042  1.00  0.00     0.014 A 
HETATM   13  C   UNL     1       1.718   1.201   0.006  1.00  0.00     0.003 A 
HETATM   14  C   UNL     1       0.326   1.201  -0.036  1.00  0.00     0.024 A 
HETATM   15  C   UNL     1      -0.361  -0.010  -0.044  1.00  0.00     0.035 A 
HETATM   16 CL   UNL     1      -2.082  -0.013  -0.077  1.00  0.00    -0.084 Cl
HETATM   17  C   UNL     1       0.330  -1.223  -0.015  1.00  0.00     0.038 A 
ENDBRANCH   8  11
ENDBRANCH   1   5
TORSDOF 2
