REMARK  3 active torsions:
REMARK  status: ('A' for Active; 'I' for Inactive)
REMARK    1  A    between atoms: C_2  and  C_13 
REMARK    2  A    between atoms: C_5  and  C_7 
REMARK    3  A    between atoms: C_10  and  N_17 
ROOT
HETATM    1  N   UNL     1      -3.920   4.834   0.449  1.00  0.00    -0.320 N 
ATOM      2  HN  UNL     1      -4.117   5.779   0.778  1.00  0.00     0.169 HD
HETATM    3  C   UNL     1      -4.712   4.153  -0.086  1.00  0.00     0.354 C 
HETATM    4  O   UNL     1      -5.539   3.505  -0.616  1.00  0.00    -0.283 OA
ENDROOT
BRANCH   1   5
HETATM    5  C   UNL     1      -2.676   4.209   0.586  1.00  0.00     0.114 A 
HETATM    6  C   UNL     1      -1.642   4.865   1.216  1.00  0.00     0.100 A 
HETATM    7  S   UNL     1      -0.250   3.871   1.242  1.00  0.00    -0.080 SA
HETATM    8  C   UNL     1      -1.127   2.625   0.430  1.00  0.00     0.086 A 
HETATM    9  N   UNL     1      -2.379   2.936   0.146  1.00  0.00    -0.336 N 
ATOM     10  HN  UNL     1      -3.036   2.320  -0.333  1.00  0.00     0.168 HD
BRANCH   8  11
HETATM   11  C   UNL     1      -0.529   1.300   0.185  1.00  0.00    -0.002 A 
HETATM   12  C   UNL     1      -1.375   0.184   0.082  1.00  0.00     0.015 A 
HETATM   13  C   UNL     1      -0.855  -1.109  -0.039  1.00  0.00     0.017 A 
HETATM   14  C   UNL     1       0.530  -1.318  -0.072  1.00  0.00     0.048 A 
HETATM   15  C   UNL     1       1.378  -0.204  -0.037  1.00  0.00     0.017 A 
HETATM   16  C   UNL     1       0.855   1.089   0.087  1.00  0.00     0.015 A 
BRANCH  14  17
HETATM   17  C   UNL     1       1.080  -2.723  -0.112  1.00  0.00     0.417 C 
HETATM   18  F   UNL     1       2.442  -2.774  -0.110  1.00  0.00    -0.166 F 
HETATM   19  F   UNL     1       0.682  -3.463   0.961  1.00  0.00    -0.166 F 
HETATM   20  F   UNL     1       0.680  -3.415  -1.213  1.00  0.00    -0.166 F 
ENDBRANCH  14  17
ENDBRANCH   8  11
ENDBRANCH   1   5
TORSDOF 3
