REMARK  2 active torsions:
REMARK  status: ('A' for Active; 'I' for Inactive)
REMARK    1  A    between atoms: C_4  and  N_13 
REMARK    2  A    between atoms: C_5  and  C_10 
ROOT
HETATM    1  N   UNL     1      -2.623  -1.575  -0.079  1.00  0.00    -0.332 N 
ATOM      2  HN  UNL     1      -3.429  -1.322  -0.651  1.00  0.00     0.168 HD
HETATM    3  C   UNL     1      -2.593  -2.529   0.601  1.00  0.00     0.353 C 
HETATM    4  O   UNL     1      -2.562  -3.496   1.270  1.00  0.00    -0.283 OA
ENDROOT
BRANCH   1   5
HETATM    5  C   UNL     1      -1.447  -0.814  -0.032  1.00  0.00     0.071 A 
HETATM    6  C   UNL     1      -0.116  -1.291  -0.041  1.00  0.00     0.064 A 
HETATM    7  C   UNL     1       0.687  -0.172  -0.014  1.00  0.00     0.052 A 
HETATM    8  O   UNL     1      -0.077   0.959   0.021  1.00  0.00    -0.312 OA
HETATM    9  C   UNL     1       2.153   0.004  -0.011  1.00  0.00     0.077 C 
HETATM   10  C   UNL     1      -1.393   0.570   0.006  1.00  0.00     0.112 A 
BRANCH  10  11
HETATM   11  C   UNL     1      -2.397   1.629   0.089  1.00  0.00     0.000 A 
HETATM   12  C   UNL     1      -2.096   2.874   0.660  1.00  0.00     0.014 A 
HETATM   13  C   UNL     1      -3.101   3.823   0.879  1.00  0.00     0.001 A 
HETATM   14  C   UNL     1      -4.417   3.544   0.517  1.00  0.00     0.000 A 
HETATM   15  C   UNL     1      -4.724   2.335  -0.099  1.00  0.00     0.001 A 
HETATM   16  C   UNL     1      -3.719   1.392  -0.321  1.00  0.00     0.014 A 
ENDBRANCH  10  11
ENDBRANCH   1   5
TORSDOF 2
