REMARK  2 active torsions:
REMARK  status: ('A' for Active; 'I' for Inactive)
REMARK    1  A    between atoms: C_1  and  C_8 
REMARK    2  A    between atoms: C_12  and  N_15 
ROOT
HETATM    1  N   UNL     1       3.942   4.746   1.343  1.00  0.00    -0.334 N 
ATOM      2  HN  UNL     1       3.745   4.647   2.339  1.00  0.00     0.168 HD
HETATM    3  C   UNL     1       4.361   5.739   0.878  1.00  0.00     0.353 C 
HETATM    4  O   UNL     1       4.798   6.725   0.412  1.00  0.00    -0.283 OA
ENDROOT
BRANCH   1   5
HETATM    5  C   UNL     1       3.732   3.700   0.421  1.00  0.00     0.035 A 
HETATM    6  C   UNL     1       4.580   3.420  -0.663  1.00  0.00     0.029 A 
HETATM    7  C   UNL     1       4.330   2.333  -1.502  1.00  0.00     0.003 A 
HETATM    8  C   UNL     1       3.236   1.503  -1.260  1.00  0.00     0.016 A 
HETATM    9  C   UNL     1       2.377   1.746  -0.179  1.00  0.00     0.019 A 
HETATM   10  C   UNL     1       2.643   2.846   0.653  1.00  0.00     0.045 A 
BRANCH   9  11
HETATM   11  C   UNL     1       1.253   0.848   0.058  1.00  0.00     0.182 A 
HETATM   12  O   UNL     1       0.417   1.149   1.099  1.00  0.00    -0.217 OA
HETATM   13  N   UNL     1      -0.553   0.145   1.138  1.00  0.00    -0.247 N 
HETATM   14  C   UNL     1      -0.204  -0.652   0.121  1.00  0.00     0.100 A 
ATOM     15  HN  UNL     1      -1.336   0.044   1.784  1.00  0.00     0.196 HD
HETATM   16  N   UNL     1       0.903  -0.249  -0.580  1.00  0.00    -0.323 N 
HETATM   17  C   UNL     1      -0.931  -1.893  -0.204  1.00  0.00     0.091 C 
ATOM     18  HN  UNL     1       1.343  -0.687  -1.389  1.00  0.00     0.169 HD
ENDBRANCH   9  11
ENDBRANCH   1   5
TORSDOF 2
