REMARK  3 active torsions:
REMARK  status: ('A' for Active; 'I' for Inactive)
REMARK    1  A    between atoms: C_5  and  O_8 
REMARK    2  A    between atoms: O_8  and  C_9 
REMARK    3  A    between atoms: C_11  and  N_15 
ROOT
HETATM    1  N   UNL     1       1.717  -5.334   2.508  1.00  0.00    -0.334 N 
ATOM      2  HN  UNL     1       1.758  -6.263   2.927  1.00  0.00     0.168 HD
HETATM    3  C   UNL     1       2.354  -4.428   2.905  1.00  0.00     0.353 C 
HETATM    4  O   UNL     1       2.976  -3.524   3.328  1.00  0.00    -0.283 OA
ENDROOT
BRANCH   1   5
HETATM    5  C   UNL     1       0.893  -5.030   1.405  1.00  0.00     0.036 A 
HETATM    6  C   UNL     1       0.165  -3.839   1.283  1.00  0.00     0.066 A 
HETATM    7  C   UNL     1      -0.593  -3.566   0.137  1.00  0.00     0.080 A 
HETATM    8  C   UNL     1      -0.736  -4.543  -0.847  1.00  0.00     0.037 A 
HETATM    9  C   UNL     1      -0.068  -5.760  -0.714  1.00  0.00     0.005 A 
HETATM   10  C   UNL     1       0.750  -5.993   0.398  1.00  0.00     0.029 A 
BRANCH   7  11
HETATM   11  O   UNL     1      -1.263  -2.376  -0.053  1.00  0.00    -0.294 OA
BRANCH  11  12
HETATM   12  C   UNL     1      -0.631  -1.214   0.385  1.00  0.00     0.147 A 
HETATM   13  N   UNL     1       0.721  -1.166   0.428  1.00  0.00    -0.347 N 
HETATM   14  C   UNL     1       1.279  -0.057   0.951  1.00  0.00     0.090 A 
ATOM     15  HN  UNL     1       1.292  -1.936   0.080  1.00  0.00     0.167 HD
HETATM   16  C   UNL     1       0.547   1.029   1.399  1.00  0.00     0.017 A 
HETATM   17  C   UNL     1      -0.841   0.977   1.296  1.00  0.00     0.006 A 
HETATM   18  C   UNL     1      -1.447  -0.165   0.777  1.00  0.00     0.056 A 
ENDBRANCH  11  12
ENDBRANCH   7  11
ENDBRANCH   1   5
TORSDOF 3
