REMARK  0 active torsions:
REMARK  status: ('A' for Active; 'I' for Inactive)
ROOT
HETATM    1  C   UNL     1       1.020  -1.380  -0.000  1.00  0.00     0.040 A 
HETATM    2  C   UNL     1       0.987   1.447   0.025  1.00  0.00     0.048 A 
HETATM    3  C   UNL     1      -0.176   0.705   0.022  1.00  0.00     0.105 A 
HETATM    4  C   UNL     1      -0.160  -0.670   0.008  1.00  0.00     0.105 A 
HETATM    5  O   UNL     1      -1.410  -1.205   0.010  1.00  0.00    -0.323 OA
HETATM    6  C   UNL     1      -2.215  -0.010   0.077  1.00  0.00     0.352 A 
HETATM    7  O   UNL     1      -1.440   1.207   0.035  1.00  0.00    -0.323 OA
HETATM    8  C   UNL     1       2.217  -0.655   0.008  1.00  0.00     0.012 A 
HETATM    9  C   UNL     1       2.212   0.760   0.009  1.00  0.00    -0.038 A 
HETATM   10  C   UNL     1       3.516   1.524   0.027  1.00  0.00     0.160 C 
HETATM   11  N   UNL     1       3.968   1.769   1.399  1.00  0.00    -0.364 N 
ATOM     12  HN  UNL     1       3.448   1.465   2.223  1.00  0.00     0.162 HD
HETATM   13  C   UNL     1       4.985   2.348   1.457  1.00  0.00     0.348 C 
HETATM   14  O   UNL     1       6.007   2.928   1.495  1.00  0.00    -0.284 OA
ENDROOT
TORSDOF 0
