REMARK  3 active torsions:
REMARK  status: ('A' for Active; 'I' for Inactive)
REMARK    1  A    between atoms: C_1  and  O_7 
REMARK    2  A    between atoms: C_4  and  N_14 
REMARK    3  A    between atoms: O_7  and  C_8 
ROOT
HETATM    1  N   UNL     1       4.432   3.886   3.243  1.00  0.00    -0.334 N 
ATOM      2  HN  UNL     1       3.747   4.545   3.613  1.00  0.00     0.168 HD
HETATM    3  C   UNL     1       5.588   4.023   3.396  1.00  0.00     0.353 C 
HETATM    4  O   UNL     1       6.746   4.145   3.561  1.00  0.00    -0.283 OA
ENDROOT
BRANCH   1   5
HETATM    5  C   UNL     1       4.063   2.742   2.510  1.00  0.00     0.034 A 
HETATM    6  C   UNL     1       4.732   1.510   2.576  1.00  0.00     0.032 A 
HETATM    7  C   UNL     1       4.296   0.407   1.834  1.00  0.00     0.039 A 
HETATM    8  C   UNL     1       3.167   0.500   1.024  1.00  0.00     0.069 A 
HETATM    9  C   UNL     1       2.475   1.711   0.972  1.00  0.00     0.039 A 
HETATM   10  C   UNL     1       2.917   2.818   1.708  1.00  0.00     0.032 A 
BRANCH   8  11
HETATM   11  O   UNL     1       2.645  -0.505   0.258  1.00  0.00    -0.346 OA
BRANCH  11  12
HETATM   12  C   UNL     1       3.305  -1.779   0.243  1.00  0.00     0.133 C 
HETATM   13  C   UNL     1       2.923  -2.489  -1.059  1.00  0.00     0.058 C 
HETATM   14  C   UNL     1       3.400  -3.933  -1.050  1.00  0.00     0.170 C 
HETATM   15  O   UNL     1       2.905  -4.623   0.095  1.00  0.00    -0.391 OA
HETATM   16  C   UNL     1       3.375  -4.050   1.312  1.00  0.00     0.170 C 
HETATM   17  C   UNL     1       2.882  -2.620   1.452  1.00  0.00     0.058 C 
ENDBRANCH  11  12
ENDBRANCH   8  11
ENDBRANCH   1   5
TORSDOF 3
