REMARK  3 active torsions:
REMARK  status: ('A' for Active; 'I' for Inactive)
REMARK    1  A    between atoms: C_1  and  C_11 
REMARK    2  A    between atoms: C_4  and  N_18 
REMARK    3  A    between atoms: C_7  and  C_14 
ROOT
HETATM    1  N   UNL     1      -2.861   0.419  -0.159  1.00  0.00    -0.334 N 
ATOM      2  HN  UNL     1      -3.500  -0.371  -0.069  1.00  0.00     0.168 HD
HETATM    3  C   UNL     1      -3.235   1.520  -0.318  1.00  0.00     0.353 C 
HETATM    4  O   UNL     1      -3.612   2.624  -0.462  1.00  0.00    -0.283 OA
ENDROOT
BRANCH   1   5
HETATM    5  C   UNL     1      -1.462   0.275  -0.102  1.00  0.00     0.034 A 
HETATM    6  C   UNL     1      -0.594   1.171   0.539  1.00  0.00     0.030 A 
HETATM    7  C   UNL     1       0.785   0.920   0.596  1.00  0.00     0.016 A 
HETATM    8  C   UNL     1       1.350  -0.235   0.028  1.00  0.00    -0.009 A 
HETATM    9  C   UNL     1       0.467  -1.135  -0.594  1.00  0.00     0.016 A 
HETATM   10  C   UNL     1      -0.910  -0.883  -0.656  1.00  0.00     0.030 A 
BRANCH   8  11
HETATM   11  C   UNL     1       2.802  -0.498   0.121  1.00  0.00     0.042 A 
HETATM   12  N   UNL     1       3.434   0.037   1.197  1.00  0.00    -0.364 N 
HETATM   13  C   UNL     1       4.754  -0.218   1.361  1.00  0.00     0.104 A 
ATOM     14  HN  UNL     1       2.927   0.617   1.866  1.00  0.00     0.165 HD
HETATM   15  C   UNL     1       5.508  -0.989   0.493  1.00  0.00     0.063 A 
HETATM   16  C   UNL     1       4.857  -1.511  -0.626  1.00  0.00     0.020 A 
HETATM   17  C   UNL     1       3.498  -1.262  -0.816  1.00  0.00     0.031 A 
BRANCH  15  18
HETATM   18  C   UNL     1       6.957  -1.257   0.755  1.00  0.00     0.418 C 
HETATM   19  F   UNL     1       7.426  -0.670   1.890  1.00  0.00    -0.166 F 
HETATM   20  F   UNL     1       7.222  -2.586   0.886  1.00  0.00    -0.166 F 
HETATM   21  F   UNL     1       7.759  -0.815  -0.253  1.00  0.00    -0.166 F 
ENDBRANCH  15  18
ENDBRANCH   8  11
ENDBRANCH   1   5
TORSDOF 3
