REMARK  0 active torsions:
REMARK  status: ('A' for Active; 'I' for Inactive)
ROOT
HETATM    1  S   UNL     1       2.579   0.334  -0.107  1.00  0.00    -0.110 SA
HETATM    2  C   UNL     1       0.987   0.959  -0.064  1.00  0.00     0.071 A 
HETATM    3  C   UNL     1       0.045  -0.042   0.010  1.00  0.00     0.044 A 
HETATM    4  C   UNL     1       0.628  -1.345   0.019  1.00  0.00     0.058 A 
HETATM    5  C   UNL     1       2.005  -1.278  -0.020  1.00  0.00     0.080 A 
HETATM    6 BR   UNL     1      -1.806   0.338   0.128  1.00  0.00    -0.048 Br
HETATM    7  N   UNL     1      -0.005  -2.592   0.170  1.00  0.00    -0.333 N 
ATOM      8  HN  UNL     1       0.324  -3.295   0.831  1.00  0.00     0.168 HD
HETATM    9  C   UNL     1      -0.940  -2.766  -0.520  1.00  0.00     0.353 C 
HETATM   10  O   UNL     1      -1.883  -2.963  -1.191  1.00  0.00    -0.283 OA
ENDROOT
TORSDOF 0
