REMARK  0 active torsions:
REMARK  status: ('A' for Active; 'I' for Inactive)
ROOT
HETATM    1  O   UNL     1       1.245  -0.705  -0.048  1.00  0.00    -0.305 OA
HETATM    2  C   UNL     1      -0.056  -1.159  -0.078  1.00  0.00     0.155 A 
HETATM    3  C   UNL     1      -0.896  -0.049  -0.014  1.00  0.00    -0.009 A 
HETATM    4  C   UNL     1      -0.062   1.105   0.016  1.00  0.00     0.035 A 
HETATM    5  C   UNL     1       1.228   0.646  -0.000  1.00  0.00     0.145 A 
HETATM    6  C   UNL     1      -2.382  -0.030   0.007  1.00  0.00     0.052 C 
HETATM    7  N   UNL     1      -0.375  -2.479  -0.136  1.00  0.00    -0.314 N 
ATOM      8  HN  UNL     1      -1.280  -2.855   0.148  1.00  0.00     0.170 HD
HETATM    9  C   UNL     1       0.504  -3.140  -0.549  1.00  0.00     0.354 C 
HETATM   10  O   UNL     1       1.363  -3.826  -0.970  1.00  0.00    -0.283 OA
ENDROOT
TORSDOF 0
