REMARK  0 active torsions:
REMARK  status: ('A' for Active; 'I' for Inactive)
ROOT
HETATM    1  O   UNL     1       0.035   0.954   0.036  1.00  0.00    -0.325 OA
HETATM    2  C   UNL     1       0.776  -0.195   0.017  1.00  0.00     0.075 A 
HETATM    3  C   UNL     1      -0.073  -1.285   0.008  1.00  0.00     0.065 A 
HETATM    4  C   UNL     1      -1.393  -0.780  -0.002  1.00  0.00     0.056 A 
HETATM    5  C   UNL     1      -1.273   0.590   0.021  1.00  0.00     0.144 A 
HETATM    6  C   UNL     1       2.243  -0.010  -0.004  1.00  0.00     0.079 C 
HETATM    7  N   UNL     1       0.197  -2.658  -0.053  1.00  0.00    -0.332 N 
ATOM      8  HN  UNL     1      -0.407  -3.318  -0.544  1.00  0.00     0.168 HD
HETATM    9  C   UNL     1       1.174  -2.987   0.506  1.00  0.00     0.353 C 
HETATM   10  O   UNL     1       2.158  -3.321   1.057  1.00  0.00    -0.283 OA
ENDROOT
TORSDOF 0
