REMARK  2 active torsions:
REMARK  status: ('A' for Active; 'I' for Inactive)
REMARK    1  A    between atoms: C_5  and  C_9 
REMARK    2  A    between atoms: C_13  and  N_15 
ROOT
HETATM    1  N   UNL     1       1.675   5.575  -1.973  1.00  0.00    -0.334 N 
ATOM      2  HN  UNL     1       1.653   5.227  -2.931  1.00  0.00     0.168 HD
HETATM    3  C   UNL     1       2.261   6.544  -1.668  1.00  0.00     0.353 C 
HETATM    4  O   UNL     1       2.832   7.527  -1.364  1.00  0.00    -0.283 OA
ENDROOT
BRANCH   1   5
HETATM    5  C   UNL     1       1.003   4.927  -0.915  1.00  0.00     0.035 A 
HETATM    6  C   UNL     1       0.394   5.592   0.161  1.00  0.00     0.029 A 
HETATM    7  C   UNL     1      -0.283   4.878   1.148  1.00  0.00     0.003 A 
HETATM    8  C   UNL     1      -0.378   3.489   1.062  1.00  0.00     0.015 A 
HETATM    9  C   UNL     1       0.193   2.777  -0.009  1.00  0.00     0.010 A 
HETATM   10  C   UNL     1       0.881   3.528  -0.985  1.00  0.00     0.044 A 
BRANCH   9  11
HETATM   11  C   UNL     1       0.057   1.308  -0.106  1.00  0.00     0.115 A 
HETATM   12  N   UNL     1      -0.602   0.673   0.886  1.00  0.00    -0.352 N 
HETATM   13  C   UNL     1      -0.740  -0.660   0.765  1.00  0.00     0.091 A 
ATOM     14  HN  UNL     1      -0.977   1.179   1.688  1.00  0.00     0.166 HD
HETATM   15  C   UNL     1      -0.251  -1.380  -0.297  1.00  0.00     0.034 A 
HETATM   16  C   UNL     1       0.409  -0.646  -1.252  1.00  0.00     0.091 A 
HETATM   17  N   UNL     1       0.579   0.689  -1.184  1.00  0.00    -0.352 N 
ATOM     18  HN  UNL     1       1.077   1.204  -1.910  1.00  0.00     0.166 HD
ENDBRANCH   9  11
ENDBRANCH   1   5
TORSDOF 2
