REMARK  1 active torsions:
REMARK  status: ('A' for Active; 'I' for Inactive)
REMARK    1  A    between atoms: C_4  and  N_7 
ROOT
HETATM    1  N   UNL     1      -0.224   2.695   0.144  1.00  0.00    -0.333 N 
ATOM      2  HN  UNL     1      -0.566   3.394   0.804  1.00  0.00     0.168 HD
HETATM    3  C   UNL     1       0.692   2.895  -0.565  1.00  0.00     0.353 C 
HETATM    4  O   UNL     1       1.617   3.111  -1.254  1.00  0.00    -0.283 OA
ENDROOT
BRANCH   1   5
HETATM    5  C   UNL     1      -0.817   1.424   0.019  1.00  0.00     0.059 A 
HETATM    6  C   UNL     1      -2.244   1.326   0.005  1.00  0.00     0.038 A 
HETATM    7  C   UNL     1      -2.677   0.018  -0.035  1.00  0.00     0.053 A 
HETATM    8  S   UNL     1      -1.371  -1.087  -0.064  1.00  0.00    -0.092 SA
HETATM    9  C   UNL     1      -0.229   0.176   0.013  1.00  0.00     0.078 A 
HETATM   10 BR   UNL     1       1.610  -0.199   0.116  1.00  0.00    -0.041 Br
ENDBRANCH   1   5
TORSDOF 1
