REMARK  2 active torsions:
REMARK  status: ('A' for Active; 'I' for Inactive)
REMARK    1  A    between atoms: C_5  and  C_9 
REMARK    2  A    between atoms: C_12  and  N_15 
ROOT
HETATM    1  N   UNL     1       0.491   6.995   0.184  1.00  0.00    -0.334 N 
ATOM      2  HN  UNL     1       0.435   7.543  -0.675  1.00  0.00     0.168 HD
HETATM    3  C   UNL     1       0.649   7.485   1.238  1.00  0.00     0.353 C 
HETATM    4  O   UNL     1       0.788   7.979   2.297  1.00  0.00    -0.283 OA
ENDROOT
BRANCH   1   5
HETATM    5  C   UNL     1       0.384   5.590   0.198  1.00  0.00     0.034 A 
HETATM    6  C   UNL     1      -0.299   4.857   1.180  1.00  0.00     0.030 A 
HETATM    7  C   UNL     1      -0.398   3.461   1.098  1.00  0.00     0.017 A 
HETATM    8  C   UNL     1       0.161   2.740   0.027  1.00  0.00     0.008 A 
HETATM    9  C   UNL     1       0.830   3.488  -0.959  1.00  0.00     0.017 A 
HETATM   10  C   UNL     1       0.935   4.884  -0.876  1.00  0.00     0.030 A 
BRANCH   8  11
HETATM   11  C   UNL     1       0.037   1.270  -0.060  1.00  0.00     0.115 A 
HETATM   12  N   UNL     1      -0.610   0.634   0.939  1.00  0.00    -0.352 N 
HETATM   13  C   UNL     1      -0.722  -0.702   0.831  1.00  0.00     0.091 A 
ATOM     14  HN  UNL     1      -0.995   1.141   1.736  1.00  0.00     0.166 HD
HETATM   15  C   UNL     1      -0.219  -1.423  -0.224  1.00  0.00     0.034 A 
HETATM   16  C   UNL     1       0.424  -0.687  -1.189  1.00  0.00     0.091 A 
HETATM   17  N   UNL     1       0.567   0.650  -1.134  1.00  0.00    -0.352 N 
ATOM     18  HN  UNL     1       1.051   1.168  -1.867  1.00  0.00     0.166 HD
ENDBRANCH   8  11
ENDBRANCH   1   5
TORSDOF 2
