REMARK  1 active torsions:
REMARK  status: ('A' for Active; 'I' for Inactive)
REMARK    1  A    between atoms: C_7  and  N_11 
ROOT
HETATM    1  N   UNL     1       3.963  -0.366  -0.201  1.00  0.00    -0.334 N 
ATOM      2  HN  UNL     1       4.363  -1.196   0.237  1.00  0.00     0.168 HD
HETATM    3  C   UNL     1       4.612   0.407  -0.800  1.00  0.00     0.353 C 
HETATM    4  O   UNL     1       5.268   1.190  -1.383  1.00  0.00    -0.283 OA
ENDROOT
BRANCH   1   5
HETATM    5  C   UNL     1       2.588  -0.061  -0.132  1.00  0.00     0.034 A 
HETATM    6  C   UNL     1       1.692  -1.138  -0.110  1.00  0.00     0.038 A 
HETATM    7  C   UNL     1       0.331  -0.885  -0.002  1.00  0.00    -0.034 A 
HETATM    8  C   UNL     1      -0.795  -1.862   0.075  1.00  0.00     0.055 C 
HETATM    9  C   UNL     1      -0.176   0.412   0.107  1.00  0.00     0.016 A 
HETATM   10  C   UNL     1      -1.985  -0.920  -0.181  1.00  0.00     0.100 C 
HETATM   11  N   UNL     1      -1.574   0.425   0.260  1.00  0.00    -0.287 NA
HETATM   12  C   UNL     1      -2.309   1.569  -0.247  1.00  0.00     0.116 C 
HETATM   13  C   UNL     1       0.693   1.486   0.111  1.00  0.00     0.026 A 
HETATM   14  C   UNL     1       2.070   1.249  -0.008  1.00  0.00     0.031 A 
ENDBRANCH   1   5
TORSDOF 1
