REMARK  4 active torsions:
REMARK  status: ('A' for Active; 'I' for Inactive)
REMARK    1  A    between atoms: C_1  and  O_11 
REMARK    2  A    between atoms: C_1  and  C_2 
REMARK    3  A    between atoms: C_3  and  N_8 
REMARK    4  A    between atoms: O_11  and  C_12 
ROOT
HETATM    1  N   UNL     1       2.419   1.690   1.807  1.00  0.00    -0.334 N 
ATOM      2  HN  UNL     1       2.502   2.707   1.803  1.00  0.00     0.168 HD
HETATM    3  C   UNL     1       1.800   1.098   2.608  1.00  0.00     0.353 C 
HETATM    4  O   UNL     1       1.162   0.505   3.401  1.00  0.00    -0.283 OA
ENDROOT
BRANCH   1   5
HETATM    5  C   UNL     1       3.038   0.860   0.849  1.00  0.00     0.042 A 
HETATM    6  C   UNL     1       2.340   0.069  -0.095  1.00  0.00    -0.007 A 
HETATM    7  C   UNL     1       3.072  -0.679  -1.040  1.00  0.00     0.011 A 
HETATM    8  C   UNL     1       4.463  -0.638  -1.071  1.00  0.00     0.001 A 
HETATM    9  C   UNL     1       5.151   0.161  -0.166  1.00  0.00     0.002 A 
HETATM   10  C   UNL     1       4.443   0.904   0.780  1.00  0.00     0.030 A 
BRANCH   6  11
HETATM   11  C   UNL     1       0.827  -0.005  -0.159  1.00  0.00     0.216 C 
BRANCH  11  12
HETATM   12  O   UNL     1       0.301   1.305  -0.337  1.00  0.00    -0.347 OA
BRANCH  12  13
HETATM   13  C   UNL     1      -0.614   1.532  -1.322  1.00  0.00     0.069 A 
HETATM   14  C   UNL     1      -1.387   0.577  -1.980  1.00  0.00     0.037 A 
HETATM   15  C   UNL     1      -2.282   0.968  -2.982  1.00  0.00     0.003 A 
HETATM   16  C   UNL     1      -2.422   2.315  -3.316  1.00  0.00     0.000 A 
HETATM   17  C   UNL     1      -1.670   3.274  -2.646  1.00  0.00     0.003 A 
HETATM   18  C   UNL     1      -0.774   2.882  -1.651  1.00  0.00     0.037 A 
ENDBRANCH  12  13
ENDBRANCH  11  12
ENDBRANCH   6  11
ENDBRANCH   1   5
TORSDOF 4
