REMARK  3 active torsions:
REMARK  status: ('A' for Active; 'I' for Inactive)
REMARK    1  A    between atoms: C_2  and  O_8 
REMARK    2  A    between atoms: C_6  and  N_15 
REMARK    3  A    between atoms: O_8  and  C_9 
ROOT
HETATM    1  N   UNL     1      -4.913   1.349  -4.277  1.00  0.00    -0.333 N 
ATOM      2  HN  UNL     1      -5.815   1.825  -4.253  1.00  0.00     0.168 HD
HETATM    3  C   UNL     1      -4.596   0.637  -5.156  1.00  0.00     0.353 C 
HETATM    4  O   UNL     1      -4.286  -0.087  -6.027  1.00  0.00    -0.283 OA
ENDROOT
BRANCH   1   5
HETATM    5  C   UNL     1      -3.950   1.493  -3.259  1.00  0.00     0.049 A 
HETATM    6  C   UNL     1      -3.800   2.737  -2.645  1.00  0.00     0.119 A 
HETATM    7  N   UNL     1      -2.936   3.012  -1.638  1.00  0.00    -0.345 N 
HETATM    8  C   UNL     1      -2.180   1.989  -1.196  1.00  0.00     0.142 A 
ATOM      9  HN  UNL     1      -2.862   3.946  -1.235  1.00  0.00     0.167 HD
HETATM   10  C   UNL     1      -2.265   0.702  -1.702  1.00  0.00     0.058 A 
HETATM   11  C   UNL     1      -3.159   0.455  -2.747  1.00  0.00     0.035 A 
BRANCH   8  12
HETATM   12  O   UNL     1      -1.274   2.205  -0.179  1.00  0.00    -0.330 OA
BRANCH  12  13
HETATM   13  C   UNL     1      -0.861   3.577  -0.041  1.00  0.00     0.134 C 
HETATM   14  C   UNL     1       0.081   3.962  -1.189  1.00  0.00     0.059 C 
HETATM   15  C   UNL     1       0.786   5.277  -0.915  1.00  0.00     0.170 C 
HETATM   16  O   UNL     1       1.466   5.231   0.336  1.00  0.00    -0.391 OA
HETATM   17  C   UNL     1       0.560   5.053   1.423  1.00  0.00     0.170 C 
HETATM   18  C   UNL     1      -0.154   3.715   1.311  1.00  0.00     0.059 C 
ENDBRANCH  12  13
ENDBRANCH   8  12
ENDBRANCH   1   5
TORSDOF 3
