REMARK  2 active torsions:
REMARK  status: ('A' for Active; 'I' for Inactive)
REMARK    1  A    between atoms: C_1  and  C_8 
REMARK    2  A    between atoms: C_12  and  N_14 
ROOT
HETATM    1  N   UNL     1       0.398  -5.810   1.936  1.00  0.00    -0.334 N 
ATOM      2  HN  UNL     1       0.527  -5.499   2.899  1.00  0.00     0.168 HD
HETATM    3  C   UNL     1       0.659  -6.898   1.585  1.00  0.00     0.353 C 
HETATM    4  O   UNL     1       0.904  -7.994   1.237  1.00  0.00    -0.283 OA
ENDROOT
BRANCH   1   5
HETATM    5  C   UNL     1      -0.107  -4.964   0.927  1.00  0.00     0.035 A 
HETATM    6  C   UNL     1      -0.989  -5.378  -0.084  1.00  0.00     0.029 A 
HETATM    7  C   UNL     1      -1.471  -4.466  -1.018  1.00  0.00     0.003 A 
HETATM    8  C   UNL     1      -1.106  -3.122  -0.935  1.00  0.00     0.014 A 
HETATM    9  C   UNL     1      -0.246  -2.665   0.074  1.00  0.00    -0.006 A 
HETATM   10  C   UNL     1       0.253  -3.606   0.984  1.00  0.00     0.043 A 
BRANCH   9  11
HETATM   11  C   UNL     1       0.148  -1.248   0.098  1.00  0.00     0.062 A 
HETATM   12  C   UNL     1       0.371  -0.402  -0.980  1.00  0.00     0.050 A 
HETATM   13  C   UNL     1       0.697   0.847  -0.435  1.00  0.00     0.109 A 
HETATM   14  N   UNL     1       0.684   0.829   0.896  1.00  0.00    -0.310 N 
HETATM   15  N   UNL     1       0.335  -0.439   1.205  1.00  0.00    -0.296 N 
ATOM     16  HN  UNL     1       0.890   1.596   1.536  1.00  0.00     0.186 HD
HETATM   17  C   UNL     1       0.121  -0.744   2.602  1.00  0.00     0.178 C 
ENDBRANCH   9  11
ENDBRANCH   1   5
TORSDOF 2
