REMARK  2 active torsions:
REMARK  status: ('A' for Active; 'I' for Inactive)
REMARK    1  A    between atoms: C_3  and  C_8 
REMARK    2  A    between atoms: C_12  and  N_14 
ROOT
HETATM    1  N   UNL     1       5.290   2.425  -2.395  1.00  0.00    -0.334 N 
ATOM      2  HN  UNL     1       6.286   2.604  -2.264  1.00  0.00     0.168 HD
HETATM    3  C   UNL     1       4.825   2.182  -3.445  1.00  0.00     0.353 C 
HETATM    4  O   UNL     1       4.368   1.931  -4.499  1.00  0.00    -0.283 OA
ENDROOT
BRANCH   1   5
HETATM    5  C   UNL     1       4.367   2.451  -1.329  1.00  0.00     0.035 A 
HETATM    6  C   UNL     1       3.290   1.558  -1.190  1.00  0.00     0.043 A 
HETATM    7  C   UNL     1       2.431   1.616  -0.079  1.00  0.00    -0.006 A 
HETATM    8  C   UNL     1       2.669   2.574   0.915  1.00  0.00     0.014 A 
HETATM    9  C   UNL     1       3.747   3.451   0.804  1.00  0.00     0.003 A 
HETATM   10  C   UNL     1       4.587   3.385  -0.309  1.00  0.00     0.029 A 
BRANCH   7  11
HETATM   11  C   UNL     1       1.324   0.669   0.046  1.00  0.00     0.059 A 
HETATM   12  N   UNL     1       1.391  -0.562  -0.488  1.00  0.00    -0.299 N 
HETATM   13  N   UNL     1       0.238  -1.150  -0.131  1.00  0.00    -0.307 N 
ATOM     14  HN  UNL     1       2.149  -0.961  -1.041  1.00  0.00     0.187 HD
HETATM   15  C   UNL     1      -0.594  -0.335   0.572  1.00  0.00     0.112 A 
HETATM   16  C   UNL     1       0.012  -2.532  -0.479  1.00  0.00     0.177 C 
HETATM   17  C   UNL     1       0.080   0.854   0.709  1.00  0.00     0.050 A 
ENDBRANCH   7  11
ENDBRANCH   1   5
TORSDOF 2
