REMARK  3 active torsions:
REMARK  status: ('A' for Active; 'I' for Inactive)
REMARK    1  A    between atoms: C_5  and  O_9 
REMARK    2  A    between atoms: O_9  and  C_11 
REMARK    3  A    between atoms: C_15  and  N_17 
ROOT
HETATM    1  N   UNL     1      -5.384  -5.187   1.161  1.00  0.00    -0.334 N 
ATOM      2  HN  UNL     1      -5.024  -5.470   2.073  1.00  0.00     0.168 HD
HETATM    3  C   UNL     1      -6.267  -5.750   0.628  1.00  0.00     0.353 C 
HETATM    4  O   UNL     1      -7.163  -6.296   0.098  1.00  0.00    -0.283 OA
ENDROOT
BRANCH   1   5
HETATM    5  C   UNL     1      -4.859  -4.091   0.445  1.00  0.00     0.036 A 
HETATM    6  C   UNL     1      -5.636  -3.230  -0.351  1.00  0.00     0.029 A 
HETATM    7  C   UNL     1      -5.051  -2.171  -1.045  1.00  0.00     0.005 A 
HETATM    8  C   UNL     1      -3.685  -1.938  -0.930  1.00  0.00     0.037 A 
HETATM    9  C   UNL     1      -2.906  -2.717  -0.071  1.00  0.00     0.080 A 
HETATM   10  C   UNL     1      -3.490  -3.807   0.587  1.00  0.00     0.066 A 
BRANCH   9  11
HETATM   11  O   UNL     1      -1.555  -2.512   0.131  1.00  0.00    -0.292 OA
BRANCH  11  12
HETATM   12  C   UNL     1      -1.082  -1.206   0.100  1.00  0.00     0.164 A 
HETATM   13  C   UNL     1       0.233  -0.992  -0.282  1.00  0.00     0.144 A 
HETATM   14  N   UNL     1       0.762   0.252  -0.409  1.00  0.00    -0.370 N 
HETATM   15  C   UNL     1      -0.090   1.271  -0.139  1.00  0.00     0.112 A 
ATOM     16  HN  UNL     1       1.731   0.408  -0.688  1.00  0.00     0.164 HD
HETATM   17  C   UNL     1      -1.404   1.067   0.266  1.00  0.00     0.022 A 
HETATM   18  N   UNL     1      -1.907  -0.180   0.418  1.00  0.00    -0.338 N 
HETATM   19  C   UNL     1      -2.336   2.214   0.493  1.00  0.00     0.069 C 
ATOM     20  HN  UNL     1      -2.857  -0.339   0.754  1.00  0.00     0.168 HD
ENDBRANCH  11  12
ENDBRANCH   9  11
ENDBRANCH   1   5
TORSDOF 3
