REMARK  3 active torsions:
REMARK  status: ('A' for Active; 'I' for Inactive)
REMARK    1  A    between atoms: C_5  and  O_9 
REMARK    2  A    between atoms: O_9  and  C_11 
REMARK    3  A    between atoms: C_14  and  N_17 
ROOT
HETATM    1  N   UNL     1      -6.995  -3.528  -0.442  1.00  0.00    -0.334 N 
ATOM      2  HN  UNL     1      -7.485  -3.949   0.348  1.00  0.00     0.168 HD
HETATM    3  C   UNL     1      -7.535  -3.256  -1.450  1.00  0.00     0.353 C 
HETATM    4  O   UNL     1      -8.073  -2.969  -2.454  1.00  0.00    -0.283 OA
ENDROOT
BRANCH   1   5
HETATM    5  C   UNL     1      -5.618  -3.228  -0.409  1.00  0.00     0.034 A 
HETATM    6  C   UNL     1      -5.033  -2.125  -1.047  1.00  0.00     0.032 A 
HETATM    7  C   UNL     1      -3.661  -1.879  -0.941  1.00  0.00     0.039 A 
HETATM    8  C   UNL     1      -2.858  -2.688  -0.134  1.00  0.00     0.078 A 
HETATM    9  C   UNL     1      -3.421  -3.798   0.495  1.00  0.00     0.039 A 
HETATM   10  C   UNL     1      -4.790  -4.059   0.360  1.00  0.00     0.032 A 
BRANCH   8  11
HETATM   11  O   UNL     1      -1.505  -2.488   0.045  1.00  0.00    -0.292 OA
BRANCH  11  12
HETATM   12  C   UNL     1      -1.048  -1.179   0.087  1.00  0.00     0.164 A 
HETATM   13  C   UNL     1       0.253  -0.925  -0.318  1.00  0.00     0.144 A 
HETATM   14  N   UNL     1       0.764   0.330  -0.379  1.00  0.00    -0.370 N 
HETATM   15  C   UNL     1      -0.091   1.318  -0.018  1.00  0.00     0.112 A 
ATOM     16  HN  UNL     1       1.722   0.517  -0.675  1.00  0.00     0.164 HD
HETATM   17  C   UNL     1      -1.391   1.073   0.409  1.00  0.00     0.022 A 
HETATM   18  N   UNL     1      -1.875  -0.186   0.494  1.00  0.00    -0.338 N 
HETATM   19  C   UNL     1      -2.329   2.189   0.737  1.00  0.00     0.069 C 
ATOM     20  HN  UNL     1      -2.813  -0.378   0.846  1.00  0.00     0.168 HD
ENDBRANCH  11  12
ENDBRANCH   8  11
ENDBRANCH   1   5
TORSDOF 3
