REMARK  2 active torsions:
REMARK  status: ('A' for Active; 'I' for Inactive)
REMARK    1  A    between atoms: C_2  and  C_6 
REMARK    2  A    between atoms: C_6  and  N_12 
ROOT
HETATM    1  N   UNL     1      -1.917   2.768  -0.299  1.00  0.00    -0.354 N 
ATOM      2  HN  UNL     1      -2.293   3.261  -1.109  1.00  0.00     0.163 HD
HETATM    3  C   UNL     1      -2.624   2.226   0.465  1.00  0.00     0.349 C 
HETATM    4  O   UNL     1      -3.342   1.701   1.233  1.00  0.00    -0.284 OA
ENDROOT
BRANCH   1   5
HETATM    5  C   UNL     1      -0.451   2.710  -0.042  1.00  0.00     0.070 C 
HETATM    6  C   UNL     1      -0.076   3.547   1.209  1.00  0.00     0.063 C 
HETATM    7  C   UNL     1      -0.262   5.043   1.002  1.00  0.00     0.170 C 
HETATM    8  O   UNL     1       0.458   5.490  -0.141  1.00  0.00    -0.391 OA
HETATM    9  C   UNL     1      -0.015   4.874  -1.333  1.00  0.00     0.170 C 
HETATM   10  C   UNL     1       0.220   3.371  -1.280  1.00  0.00     0.063 C 
BRANCH   5  11
HETATM   11  C   UNL     1       0.013   1.239   0.063  1.00  0.00     0.011 A 
HETATM   12  S   UNL     1       0.121   0.435   1.587  1.00  0.00    -0.104 SA
HETATM   13  C   UNL     1       0.595  -1.037   0.872  1.00  0.00     0.050 A 
HETATM   14  C   UNL     1       0.691  -0.939  -0.495  1.00  0.00     0.008 A 
HETATM   15  C   UNL     1       0.352   0.365  -0.961  1.00  0.00     0.018 A 
ENDBRANCH   5  11
ENDBRANCH   1   5
TORSDOF 2
