REMARK  4 active torsions:
REMARK  status: ('A' for Active; 'I' for Inactive)
REMARK    1  A    between atoms: C_4  and  N_8 
REMARK    2  A    between atoms: C_6  and  C_7 
REMARK    3  A    between atoms: C_7  and  O_11 
REMARK    4  A    between atoms: O_11  and  C_12 
ROOT
HETATM    1  N   UNL     1      -0.399  -1.116   2.616  1.00  0.00    -0.334 N 
ATOM      2  HN  UNL     1      -0.367  -0.507   3.433  1.00  0.00     0.168 HD
HETATM    3  C   UNL     1      -0.591  -2.271   2.697  1.00  0.00     0.353 C 
HETATM    4  O   UNL     1      -0.803  -3.425   2.780  1.00  0.00    -0.283 OA
ENDROOT
BRANCH   1   5
HETATM    5  C   UNL     1      -0.216  -0.634   1.303  1.00  0.00     0.034 A 
HETATM    6  C   UNL     1      -0.915  -1.107   0.181  1.00  0.00     0.029 A 
HETATM    7  C   UNL     1      -0.703  -0.550  -1.082  1.00  0.00     0.003 A 
HETATM    8  C   UNL     1       0.186   0.512  -1.239  1.00  0.00     0.009 A 
HETATM    9  C   UNL     1       0.863   1.037  -0.131  1.00  0.00    -0.032 A 
HETATM   10  C   UNL     1       0.667   0.443   1.127  1.00  0.00     0.038 A 
BRANCH   9  11
HETATM   11  C   UNL     1       1.782   2.226  -0.287  1.00  0.00     0.214 C 
BRANCH  11  12
HETATM   12  O   UNL     1       3.103   1.766  -0.558  1.00  0.00    -0.347 OA
BRANCH  12  13
HETATM   13  C   UNL     1       4.076   2.722  -0.677  1.00  0.00     0.069 A 
HETATM   14  C   UNL     1       3.886   4.105  -0.614  1.00  0.00     0.037 A 
HETATM   15  C   UNL     1       4.976   4.973  -0.743  1.00  0.00     0.003 A 
HETATM   16  C   UNL     1       6.259   4.466  -0.938  1.00  0.00     0.000 A 
HETATM   17  C   UNL     1       6.454   3.089  -1.010  1.00  0.00     0.003 A 
HETATM   18  C   UNL     1       5.366   2.224  -0.882  1.00  0.00     0.037 A 
ENDBRANCH  12  13
ENDBRANCH  11  12
ENDBRANCH   9  11
ENDBRANCH   1   5
TORSDOF 4
