REMARK  0 active torsions:
REMARK  status: ('A' for Active; 'I' for Inactive)
ROOT
HETATM    1  S   UNL     1      -0.284   1.029   0.021  1.00  0.00    -0.077 SA
HETATM    2  C   UNL     1      -1.707   0.049   0.011  1.00  0.00     0.076 A 
HETATM    3  C   UNL     1       0.764  -0.317   0.007  1.00  0.00    -0.019 A 
HETATM    4  C   UNL     1      -1.347  -1.293  -0.003  1.00  0.00     0.038 A 
HETATM    5  C   UNL     1       0.063  -1.502  -0.005  1.00  0.00     0.017 A 
HETATM    6  C   UNL     1       2.243  -0.130   0.012  1.00  0.00     0.056 C 
HETATM    7  N   UNL     1      -2.907   0.698   0.018  1.00  0.00    -0.329 N 
ATOM      8  HN  UNL     1      -2.985   1.715   0.024  1.00  0.00     0.168 HD
HETATM    9  C   UNL     1      -3.841  -0.010   0.016  1.00  0.00     0.353 C 
HETATM   10  O   UNL     1      -4.776  -0.725   0.015  1.00  0.00    -0.283 OA
ENDROOT
TORSDOF 0
