REMARK  1 active torsions:
REMARK  status: ('A' for Active; 'I' for Inactive)
REMARK    1  A    between atoms: C_4  and  N_8 
ROOT
HETATM    1  N   UNL     1       3.029   2.573   0.103  1.00  0.00    -0.333 N 
ATOM      2  HN  UNL     1       3.899   2.644   0.631  1.00  0.00     0.168 HD
HETATM    3  C   UNL     1       2.568   3.481  -0.479  1.00  0.00     0.353 C 
HETATM    4  O   UNL     1       2.094   4.392  -1.051  1.00  0.00    -0.283 OA
ENDROOT
BRANCH   1   5
HETATM    5  C   UNL     1       2.289   1.376   0.017  1.00  0.00     0.051 A 
HETATM    6  C   UNL     1       0.888   1.294   0.015  1.00  0.00     0.051 A 
HETATM    7  C   UNL     1       0.264   0.047  -0.021  1.00  0.00     0.028 A 
HETATM    8  C   UNL     1       1.050  -1.094  -0.044  1.00  0.00     0.106 A 
HETATM    9 BR   UNL     1      -1.617  -0.080  -0.028  1.00  0.00    -0.050 Br
HETATM   10  N   UNL     1       2.402  -1.066  -0.035  1.00  0.00    -0.372 N 
HETATM   11  C   UNL     1       2.980   0.161   0.001  1.00  0.00     0.117 A 
ATOM     12  HN  UNL     1       2.957  -1.921  -0.054  1.00  0.00     0.164 HD
ENDBRANCH   1   5
TORSDOF 1
