REMARK  2 active torsions:
REMARK  status: ('A' for Active; 'I' for Inactive)
REMARK    1  A    between atoms: C_2  and  C_6 
REMARK    2  A    between atoms: C_9  and  N_13 
ROOT
HETATM    1  N   UNL     1      -0.596   6.552   0.176  1.00  0.00    -0.334 N 
ATOM      2  HN  UNL     1      -0.808   7.053  -0.687  1.00  0.00     0.168 HD
HETATM    3  C   UNL     1      -0.650   7.061   1.231  1.00  0.00     0.353 C 
HETATM    4  O   UNL     1      -0.723   7.565   2.292  1.00  0.00    -0.283 OA
ENDROOT
BRANCH   1   5
HETATM    5  C   UNL     1      -0.216   5.195   0.191  1.00  0.00     0.034 A 
HETATM    6  C   UNL     1      -0.600   4.269   1.170  1.00  0.00     0.030 A 
HETATM    7  C   UNL     1      -0.211   2.924   1.080  1.00  0.00     0.015 A 
HETATM    8  C   UNL     1       0.542   2.445  -0.006  1.00  0.00    -0.018 A 
HETATM    9  C   UNL     1       0.900   3.375  -0.992  1.00  0.00     0.015 A 
HETATM   10  C   UNL     1       0.537   4.726  -0.886  1.00  0.00     0.030 A 
BRANCH   8  11
HETATM   11  C   UNL     1       0.908   1.015  -0.129  1.00  0.00     0.032 A 
HETATM   12  S   UNL     1      -0.202  -0.185   0.455  1.00  0.00    -0.100 SA
HETATM   13  C   UNL     1       0.806  -1.479  -0.008  1.00  0.00     0.052 A 
HETATM   14  C   UNL     1       1.956  -1.040  -0.618  1.00  0.00     0.027 A 
HETATM   15  C   UNL     1       2.016   0.381  -0.669  1.00  0.00     0.029 A 
HETATM   16 BR   UNL     1       3.566   1.185  -1.410  1.00  0.00    -0.050 Br
ENDBRANCH   8  11
ENDBRANCH   1   5
TORSDOF 2
