REMARK  2 active torsions:
REMARK  status: ('A' for Active; 'I' for Inactive)
REMARK    1  A    between atoms: C_6  and  C_7 
REMARK    2  A    between atoms: C_7  and  N_8 
ROOT
HETATM    1  N   UNL     1       3.736  -1.180   0.067  1.00  0.00    -0.368 N 
ATOM      2  HN  UNL     1       3.358  -1.841   0.746  1.00  0.00     0.161 HD
HETATM    3  C   UNL     1       4.813  -1.275  -0.389  1.00  0.00     0.348 C 
HETATM    4  O   UNL     1       5.890  -1.359  -0.852  1.00  0.00    -0.284 OA
ENDROOT
BRANCH   1   5
HETATM    5  C   UNL     1       2.982  -0.021  -0.431  1.00  0.00     0.126 C 
BRANCH   5   6
HETATM    6  C   UNL     1       1.573  -0.033   0.182  1.00  0.00     0.007 C 
HETATM    7  C   UNL     1       0.772  -1.276  -0.236  1.00  0.00     0.032 C 
HETATM    8  C   UNL     1      -0.667  -1.185   0.254  1.00  0.00     0.168 C 
HETATM    9  O   UNL     1      -1.286   0.009  -0.220  1.00  0.00    -0.391 OA
HETATM   10  C   UNL     1      -0.636   1.180   0.269  1.00  0.00     0.168 C 
HETATM   11  C   UNL     1       0.806   1.236  -0.219  1.00  0.00     0.032 C 
ENDBRANCH   5   6
ENDBRANCH   1   5
TORSDOF 2
