REMARK  2 active torsions:
REMARK  status: ('A' for Active; 'I' for Inactive)
REMARK    1  A    between atoms: C_3  and  N_15 
REMARK    2  A    between atoms: C_6  and  N_7 
ROOT
HETATM    1  N   UNL     1      -1.192  -2.317   1.399  1.00  0.00    -0.334 N 
ATOM      2  HN  UNL     1      -0.677  -3.173   1.607  1.00  0.00     0.168 HD
HETATM    3  C   UNL     1      -2.354  -2.230   1.541  1.00  0.00     0.353 C 
HETATM    4  O   UNL     1      -3.516  -2.153   1.700  1.00  0.00    -0.283 OA
ENDROOT
BRANCH   1   5
HETATM    5  C   UNL     1      -0.562  -1.153   0.921  1.00  0.00     0.034 A 
HETATM    6  C   UNL     1      -0.925   0.161   1.252  1.00  0.00     0.032 A 
HETATM    7  C   UNL     1      -0.171   1.254   0.804  1.00  0.00     0.034 A 
HETATM    8  C   UNL     1       0.960   1.051   0.001  1.00  0.00     0.056 A 
HETATM    9  C   UNL     1       1.335  -0.255  -0.327  1.00  0.00     0.034 A 
HETATM   10  C   UNL     1       0.577  -1.340   0.126  1.00  0.00     0.032 A 
BRANCH   8  11
HETATM   11  N   UNL     1       1.751   2.168  -0.398  1.00  0.00    -0.261 N 
HETATM   12  C   UNL     1       2.620   2.305  -1.474  1.00  0.00     0.032 C 
HETATM   13  C   UNL     1       3.321   3.473  -1.249  1.00  0.00     0.052 C 
HETATM   14  C   UNL     1       2.713   1.410  -2.656  1.00  0.00     0.070 C 
HETATM   15  C   UNL     1       2.756   4.034  -0.092  1.00  0.00     0.024 C 
HETATM   16  C   UNL     1       3.145   5.294   0.586  1.00  0.00     0.070 C 
HETATM   17  N   UNL     1       1.746   3.292   0.370  1.00  0.00    -0.298 N 
ATOM     18  HN  UNL     1       1.109   3.519   1.133  1.00  0.00     0.187 HD
ENDBRANCH   8  11
ENDBRANCH   1   5
TORSDOF 2
