REMARK  0 active torsions:
REMARK  status: ('A' for Active; 'I' for Inactive)
ROOT
HETATM    1  C   UNL     1       0.735  -1.265  -0.145  1.00  0.00     0.062 C 
HETATM    2  C   UNL     1      -0.751  -1.193   0.181  1.00  0.00     0.170 C 
HETATM    3  O   UNL     1      -1.331  -0.024  -0.392  1.00  0.00    -0.391 OA
HETATM    4  C   UNL     1      -0.796   1.170   0.169  1.00  0.00     0.170 C 
HETATM    5  C   UNL     1       0.696   1.272  -0.119  1.00  0.00     0.062 C 
HETATM    6  C   UNL     1       1.491   0.009   0.328  1.00  0.00     0.063 C 
HETATM    7  C   UNL     1       5.436   0.234  -1.565  1.00  0.00     0.000 A 
HETATM    8  C   UNL     1       4.287   0.164  -2.343  1.00  0.00     0.001 A 
HETATM    9  C   UNL     1       3.035   0.069  -1.731  1.00  0.00     0.010 A 
HETATM   10  C   UNL     1       2.895   0.047  -0.328  1.00  0.00    -0.030 A 
HETATM   11  C   UNL     1       4.075   0.097   0.435  1.00  0.00     0.010 A 
HETATM   12  C   UNL     1       5.330   0.193  -0.178  1.00  0.00     0.001 A 
HETATM   13  N   UNL     1       1.591  -0.145   1.813  1.00  0.00    -0.355 N 
ATOM     14  HN  UNL     1       1.871  -1.037   2.220  1.00  0.00     0.163 HD
HETATM   15  C   UNL     1       1.345   0.770   2.505  1.00  0.00     0.349 C 
HETATM   16  O   UNL     1       1.066   1.680   3.191  1.00  0.00    -0.284 OA
ENDROOT
TORSDOF 0
