REMARK  3 active torsions:
REMARK  status: ('A' for Active; 'I' for Inactive)
REMARK    1  A    between atoms: C_1  and  N_3 
REMARK    2  A    between atoms: C_5  and  O_8 
REMARK    3  A    between atoms: C_6  and  O_9 
ROOT
HETATM    1  C   UNL     1       3.449  -1.145   0.942  1.00  0.00     0.353 C 
HETATM    2  N   UNL     1       2.999  -0.492   0.084  1.00  0.00    -0.330 N 
ATOM      3  HN  UNL     1       3.589  -0.080  -0.638  1.00  0.00     0.168 HD
HETATM    4  O   UNL     1       3.976  -1.844   1.732  1.00  0.00    -0.283 OA
ENDROOT
BRANCH   2   5
HETATM    5  C   UNL     1       1.599  -0.300   0.093  1.00  0.00     0.101 A 
HETATM    6  C   UNL     1       0.652  -1.362   0.102  1.00  0.00     0.097 A 
HETATM    7  C   UNL     1      -0.727  -1.096   0.022  1.00  0.00     0.039 A 
HETATM    8  C   UNL     1      -1.207   0.204  -0.060  1.00  0.00     0.006 A 
HETATM    9  C   UNL     1      -0.305   1.259  -0.040  1.00  0.00     0.039 A 
HETATM   10  C   UNL     1       1.078   1.021   0.018  1.00  0.00     0.097 A 
BRANCH   6  11
HETATM   11  O   UNL     1       0.919  -2.689   0.328  1.00  0.00    -0.354 OA
HETATM   12  C   UNL     1       1.881  -3.326  -0.502  1.00  0.00     0.210 C 
ENDBRANCH   6  11
BRANCH  10  13
HETATM   13  O   UNL     1       1.784   2.202   0.063  1.00  0.00    -0.354 OA
HETATM   14  C   UNL     1       3.073   2.230  -0.529  1.00  0.00     0.210 C 
ENDBRANCH  10  13
ENDBRANCH   2   5
TORSDOF 3
