REMARK  1 active torsions:
REMARK  status: ('A' for Active; 'I' for Inactive)
REMARK    1  A    between atoms: C_6  and  N_9 
ROOT
HETATM    1  N   UNL     1       3.868  -0.014  -0.054  1.00  0.00    -0.333 N 
ATOM      2  HN  UNL     1       4.346  -0.746  -0.579  1.00  0.00     0.168 HD
HETATM    3  C   UNL     1       4.445   0.813   0.547  1.00  0.00     0.353 C 
HETATM    4  O   UNL     1       5.017   1.655   1.134  1.00  0.00    -0.283 OA
ENDROOT
BRANCH   1   5
HETATM    5  C   UNL     1       2.464   0.083   0.006  1.00  0.00     0.049 A 
HETATM    6  C   UNL     1       1.707  -1.092   0.010  1.00  0.00     0.118 A 
HETATM    7  N   UNL     1       0.351  -1.148   0.022  1.00  0.00    -0.354 N 
HETATM    8  C   UNL     1      -0.291   0.035   0.015  1.00  0.00     0.103 A 
ATOM      9  HN  UNL     1      -0.152  -2.035   0.036  1.00  0.00     0.166 HD
HETATM   10  C   UNL     1       0.344   1.264  -0.002  1.00  0.00     0.044 A 
HETATM   11 CL   UNL     1      -2.001  -0.074   0.011  1.00  0.00    -0.065 Cl
HETATM   12  C   UNL     1       1.740   1.284  -0.013  1.00  0.00     0.034 A 
ENDBRANCH   1   5
TORSDOF 1
