REMARK  3 active torsions:
REMARK  status: ('A' for Active; 'I' for Inactive)
REMARK    1  A    between atoms: C_2  and  C_6 
REMARK    2  A    between atoms: C_6  and  C_7 
REMARK    3  A    between atoms: C_7  and  N_8 
ROOT
HETATM    1  N   UNL     1       0.765   5.015  -0.041  1.00  0.00    -0.368 N 
ATOM      2  HN  UNL     1      -0.205   5.330  -0.063  1.00  0.00     0.161 HD
HETATM    3  C   UNL     1       1.679   5.750  -0.031  1.00  0.00     0.348 C 
HETATM    4  O   UNL     1       2.604   6.476  -0.024  1.00  0.00    -0.284 OA
ENDROOT
BRANCH   1   5
HETATM    5  C   UNL     1       1.152   3.596  -0.019  1.00  0.00     0.127 C 
BRANCH   5   6
HETATM    6  C   UNL     1      -0.115   2.735  -0.012  1.00  0.00     0.066 C 
BRANCH   6   7
HETATM    7  C   UNL     1       0.217   1.271   0.007  1.00  0.00    -0.016 A 
HETATM    8  S   UNL     1       0.407   0.450   1.500  1.00  0.00    -0.106 SA
HETATM    9  C   UNL     1       0.751  -1.029   0.715  1.00  0.00     0.050 A 
HETATM   10  C   UNL     1       0.720  -0.906  -0.656  1.00  0.00     0.008 A 
HETATM   11  C   UNL     1       0.409   0.423  -1.066  1.00  0.00     0.015 A 
ENDBRANCH   6   7
ENDBRANCH   5   6
ENDBRANCH   1   5
TORSDOF 3
