REMARK  0 active torsions:
REMARK  status: ('A' for Active; 'I' for Inactive)
ROOT
HETATM    1  C   UNL     1      -0.198  -0.438  -1.287  1.00  0.00     0.353 C 
HETATM    2  N   UNL     1      -0.200  -0.104  -0.162  1.00  0.00    -0.332 N 
ATOM      3  HN  UNL     1       0.279   0.736   0.163  1.00  0.00     0.168 HD
HETATM    4  O   UNL     1      -0.217  -0.753  -2.420  1.00  0.00    -0.283 OA
HETATM    5  C   UNL     1      -0.920  -0.959   0.710  1.00  0.00     0.068 A 
HETATM    6  C   UNL     1      -0.492  -1.181   2.038  1.00  0.00     0.094 A 
HETATM    7  O   UNL     1       0.632  -0.717   2.673  1.00  0.00    -0.354 OA
HETATM    8  C   UNL     1      -2.142  -1.558   0.311  1.00  0.00     0.032 A 
HETATM    9  C   UNL     1      -1.263  -1.985   2.897  1.00  0.00     0.039 A 
HETATM   10  C   UNL     1       1.485   0.204   2.015  1.00  0.00     0.210 C 
HETATM   11  C   UNL     1      -2.893  -2.358   1.177  1.00  0.00     0.002 A 
HETATM   12  C   UNL     1      -2.454  -2.568   2.474  1.00  0.00     0.003 A 
ENDROOT
TORSDOF 0
