REMARK  1 active torsions:
REMARK  status: ('A' for Active; 'I' for Inactive)
REMARK    1  A    between atoms: N_2  and  C_4 
ROOT
HETATM    1  C   UNL     1       0.917   0.044   0.385  1.00  0.00     0.353 C 
HETATM    2  N   UNL     1      -0.218   0.042   0.088  1.00  0.00    -0.334 N 
ATOM      3  HN  UNL     1      -0.681   0.849  -0.329  1.00  0.00     0.168 HD
HETATM    4  O   UNL     1       2.051   0.052   0.701  1.00  0.00    -0.283 OA
ENDROOT
BRANCH   2   5
HETATM    5  C   UNL     1      -0.890  -1.171   0.356  1.00  0.00     0.035 A 
HETATM    6  C   UNL     1      -0.586  -2.037   1.422  1.00  0.00     0.036 A 
HETATM    7  C   UNL     1      -1.321  -3.211   1.640  1.00  0.00    -0.059 A 
HETATM    8  C   UNL     1      -2.391  -3.514   0.791  1.00  0.00     0.013 A 
HETATM    9  C   UNL     1      -0.973  -4.135   2.770  1.00  0.00     0.048 C 
HETATM   10  C   UNL     1      -2.730  -2.660  -0.264  1.00  0.00    -0.059 A 
HETATM   11  C   UNL     1      -1.975  -1.497  -0.470  1.00  0.00     0.036 A 
HETATM   12  C   UNL     1      -3.896  -2.993  -1.148  1.00  0.00     0.048 C 
ENDBRANCH   2   5
TORSDOF 1
