REMARK  1 active torsions:
REMARK  status: ('A' for Active; 'I' for Inactive)
REMARK    1  A    between atoms: C_1  and  N_5 
ROOT
HETATM    1  C   UNL     1       0.150   3.605  -0.532  1.00  0.00     0.353 C 
HETATM    2  N   UNL     1       0.597   2.853   0.242  1.00  0.00    -0.332 N 
ATOM      3  HN  UNL     1       1.208   3.153   1.002  1.00  0.00     0.168 HD
HETATM    4  O   UNL     1      -0.314   4.380  -1.287  1.00  0.00    -0.283 OA
ENDROOT
BRANCH   2   5
HETATM    5  C   UNL     1       0.233   1.491   0.054  1.00  0.00     0.078 A 
HETATM    6  C   UNL     1       1.254   0.511   0.005  1.00  0.00     0.064 A 
HETATM    7  C   UNL     1       0.963  -0.859  -0.035  1.00  0.00     0.050 A 
HETATM    8 CL   UNL     1       2.925   0.962   0.015  1.00  0.00    -0.082 Cl
HETATM    9  C   UNL     1      -0.360  -1.280  -0.036  1.00  0.00     0.037 A 
HETATM   10  C   UNL     1      -1.392  -0.349  -0.004  1.00  0.00     0.050 A 
HETATM   11 CL   UNL     1      -0.725  -2.959  -0.044  1.00  0.00    -0.084 Cl
HETATM   12  C   UNL     1      -1.101   1.019   0.054  1.00  0.00     0.064 A 
HETATM   13 CL   UNL     1      -2.461   2.085   0.182  1.00  0.00    -0.082 Cl
ENDBRANCH   2   5
TORSDOF 1
