REMARK  1 active torsions:
REMARK  status: ('A' for Active; 'I' for Inactive)
REMARK    1  A    between atoms: N_2  and  C_5 
ROOT
HETATM    1  C   UNL     1      -0.135   1.235   0.344  1.00  0.00     0.353 C 
HETATM    2  N   UNL     1      -0.228   0.102   0.050  1.00  0.00    -0.334 N 
ATOM      3  HN  UNL     1       0.202  -0.646   0.594  1.00  0.00     0.168 HD
HETATM    4  O   UNL     1      -0.065   2.369   0.648  1.00  0.00    -0.283 OA
ENDROOT
BRANCH   2   5
HETATM    5  C   UNL     1      -0.986  -0.141  -1.121  1.00  0.00     0.040 A 
HETATM    6  C   UNL     1      -0.642  -1.236  -1.944  1.00  0.00    -0.034 A 
HETATM    7  C   UNL     1      -1.393  -1.505  -3.106  1.00  0.00     0.028 A 
HETATM    8  C   UNL     1       0.516  -2.151  -1.643  1.00  0.00     0.050 C 
HETATM    9  C   UNL     1      -2.490  -0.716  -3.439  1.00  0.00     0.011 A 
HETATM   10  C   UNL     1      -2.862   0.344  -2.623  1.00  0.00     0.021 A 
HETATM   11 BR   UNL     1      -3.487  -1.095  -4.999  1.00  0.00    -0.051 Br
HETATM   12  C   UNL     1      -2.120   0.622  -1.471  1.00  0.00     0.031 A 
ENDBRANCH   2   5
TORSDOF 1
