REMARK  0 active torsions:
REMARK  status: ('A' for Active; 'I' for Inactive)
ROOT
HETATM    1  C   UNL     1      -0.962   0.795  -0.575  1.00  0.00     0.353 C 
HETATM    2  C   UNL     1      -1.024  -1.060   0.575  1.00  0.00     0.046 A 
HETATM    3  N   UNL     1      -0.301  -0.072  -0.141  1.00  0.00    -0.333 N 
ATOM      4  HN  UNL     1       0.710  -0.112  -0.268  1.00  0.00     0.168 HD
HETATM    5  O   UNL     1      -1.618   1.645  -1.062  1.00  0.00    -0.283 OA
HETATM    6  C   UNL     1      -2.134  -1.763   0.021  1.00  0.00    -0.035 A 
HETATM    7  C   UNL     1      -0.559  -1.428   1.870  1.00  0.00    -0.031 A 
HETATM    8  C   UNL     1      -2.348  -3.079   2.054  1.00  0.00     0.001 A 
HETATM    9  C   UNL     1      -2.788  -2.748   0.787  1.00  0.00     0.009 A 
HETATM   10  C   UNL     1      -1.235  -2.433   2.591  1.00  0.00     0.009 A 
HETATM   11  C   UNL     1       0.615  -0.743   2.548  1.00  0.00     0.036 C 
HETATM   12  C   UNL     1      -2.712  -1.520  -1.352  1.00  0.00     0.050 C 
HETATM   13  C   UNL     1       1.735  -1.683   2.995  1.00  0.00     0.010 C 
ENDROOT
TORSDOF 0
