REMARK  0 active torsions:
REMARK  status: ('A' for Active; 'I' for Inactive)
ROOT
HETATM    1  C   UNL     1      -0.573  -0.600   0.824  1.00  0.00     0.353 C 
HETATM    2  N   UNL     1      -0.066  -0.105  -0.113  1.00  0.00    -0.334 N 
ATOM      3  HN  UNL     1       0.939  -0.142  -0.281  1.00  0.00     0.168 HD
HETATM    4  C   UNL     1      -3.471   2.657  -3.926  1.00  0.00    -0.024 C 
HETATM    5  C   UNL     1      -2.611   1.915  -2.885  1.00  0.00    -0.051 A 
HETATM    6  O   UNL     1      -1.081  -1.110   1.753  1.00  0.00    -0.283 OA
HETATM    7  C   UNL     1      -1.291   2.324  -2.626  1.00  0.00     0.010 A 
HETATM    8  C   UNL     1      -3.086   0.808  -2.165  1.00  0.00     0.010 A 
HETATM    9  C   UNL     1      -0.963   0.545  -0.987  1.00  0.00     0.034 A 
HETATM   10  C   UNL     1      -0.485   1.649  -1.698  1.00  0.00     0.030 A 
HETATM   11  C   UNL     1      -2.276   0.130  -1.243  1.00  0.00     0.030 A 
HETATM   12  C   UNL     1      -4.878   2.043  -4.108  1.00  0.00     0.019 C 
HETATM   13  C   UNL     1      -3.660   4.128  -3.499  1.00  0.00     0.019 C 
HETATM   14  C   UNL     1      -2.782   2.624  -5.308  1.00  0.00     0.019 C 
ENDROOT
TORSDOF 0
