REMARK  1 active torsions:
REMARK  status: ('A' for Active; 'I' for Inactive)
REMARK    1  A    between atoms: N_3  and  C_5 
ROOT
HETATM    1  C   UNL     1      -0.572   3.504  -0.573  1.00  0.00     0.353 C 
HETATM    2  N   UNL     1      -1.249   2.880   0.159  1.00  0.00    -0.333 N 
ATOM      3  HN  UNL     1      -1.854   3.321   0.851  1.00  0.00     0.168 HD
HETATM    4  O   UNL     1       0.105   4.154  -1.282  1.00  0.00    -0.283 OA
ENDROOT
BRANCH   2   5
HETATM    5  C   UNL     1      -1.165   1.472   0.012  1.00  0.00     0.057 A 
HETATM    6  C   UNL     1       0.016   0.693   0.029  1.00  0.00     0.082 A 
HETATM    7  C   UNL     1      -0.068  -0.715   0.005  1.00  0.00     0.058 A 
HETATM    8 CL   UNL     1       1.580   1.447   0.136  1.00  0.00    -0.080 Cl
HETATM    9 CL   UNL     1       1.331  -1.734   0.023  1.00  0.00    -0.082 Cl
HETATM   10  C   UNL     1      -1.312  -1.352  -0.010  1.00  0.00     0.026 A 
HETATM   11  C   UNL     1      -2.480  -0.598  -0.020  1.00  0.00     0.004 A 
HETATM   12  C   UNL     1      -2.404   0.799  -0.013  1.00  0.00     0.031 A 
ENDBRANCH   2   5
TORSDOF 1
