REMARK  1 active torsions:
REMARK  status: ('A' for Active; 'I' for Inactive)
REMARK    1  A    between atoms: N_3  and  C_5 
ROOT
HETATM    1  C   UNL     1      -0.057  -0.757  -0.897  1.00  0.00     0.353 C 
HETATM    2  N   UNL     1      -0.103  -0.011   0.009  1.00  0.00    -0.334 N 
ATOM      3  HN  UNL     1       0.369   0.893   0.002  1.00  0.00     0.168 HD
HETATM    4  O   UNL     1      -0.035  -1.499  -1.809  1.00  0.00    -0.283 OA
ENDROOT
BRANCH   2   5
HETATM    5  C   UNL     1      -0.866  -0.465   1.113  1.00  0.00     0.041 A 
HETATM    6  C   UNL     1      -0.489  -0.070   2.420  1.00  0.00    -0.013 A 
HETATM    7  C   UNL     1      -1.251  -0.519   3.519  1.00  0.00     0.042 A 
HETATM    8  C   UNL     1       0.712   0.814   2.655  1.00  0.00     0.052 C 
HETATM    9 CL   UNL     1      -0.830  -0.112   5.148  1.00  0.00    -0.084 Cl
HETATM   10  C   UNL     1      -2.385  -1.312   3.335  1.00  0.00     0.024 A 
HETATM   11  C   UNL     1      -2.782  -1.669   2.054  1.00  0.00     0.004 A 
HETATM   12  C   UNL     1      -2.033  -1.244   0.956  1.00  0.00     0.030 A 
ENDBRANCH   2   5
TORSDOF 1
