REMARK  1 active torsions:
REMARK  status: ('A' for Active; 'I' for Inactive)
REMARK    1  A    between atoms: N_2  and  C_5 
ROOT
HETATM    1  C   UNL     1       0.783   0.250   0.094  1.00  0.00     0.353 C 
HETATM    2  N   UNL     1      -0.367   0.022   0.035  1.00  0.00    -0.332 N 
ATOM      3  HN  UNL     1      -0.868  -0.067  -0.849  1.00  0.00     0.168 HD
HETATM    4  O   UNL     1       1.937   0.475   0.130  1.00  0.00    -0.283 OA
ENDROOT
BRANCH   2   5
HETATM    5  C   UNL     1      -1.001  -0.119   1.293  1.00  0.00     0.073 A 
HETATM    6  C   UNL     1      -0.682   0.609   2.455  1.00  0.00     0.143 A 
HETATM    7  F   UNL     1       0.317   1.503   2.444  1.00  0.00    -0.204 F 
HETATM    8  C   UNL     1      -1.388   0.436   3.645  1.00  0.00     0.044 A 
HETATM    9  C   UNL     1      -2.453  -0.460   3.693  1.00  0.00     0.003 A 
HETATM   10  C   UNL     1      -2.803  -1.179   2.552  1.00  0.00     0.002 A 
HETATM   11  C   UNL     1      -2.083  -1.008   1.365  1.00  0.00     0.033 A 
ENDBRANCH   2   5
TORSDOF 1
