REMARK  3 active torsions:
REMARK  status: ('A' for Active; 'I' for Inactive)
REMARK    1  A    between atoms: C_1  and  O_5 
REMARK    2  A    between atoms: N_3  and  C_10 
REMARK    3  A    between atoms: O_5  and  C_11 
ROOT
HETATM    1  C   UNL     1       2.701   6.758   1.034  1.00  0.00     0.353 C 
HETATM    2  N   UNL     1       1.684   6.277   1.369  1.00  0.00    -0.334 N 
ATOM      3  HN  UNL     1       1.008   6.759   1.962  1.00  0.00     0.168 HD
HETATM    4  O   UNL     1       3.731   7.232   0.716  1.00  0.00    -0.283 OA
ENDROOT
BRANCH   2   5
HETATM    5  C   UNL     1       1.484   4.971   0.876  1.00  0.00     0.034 A 
HETATM    6  C   UNL     1       2.482   3.982   0.842  1.00  0.00     0.032 A 
HETATM    7  C   UNL     1       2.211   2.693   0.366  1.00  0.00     0.039 A 
HETATM    8  C   UNL     1       0.944   2.375  -0.113  1.00  0.00     0.078 A 
HETATM    9  C   UNL     1      -0.073   3.326  -0.017  1.00  0.00     0.039 A 
HETATM   10  C   UNL     1       0.195   4.610   0.469  1.00  0.00     0.032 A 
BRANCH   8  11
HETATM   11  O   UNL     1       0.566   1.171  -0.621  1.00  0.00    -0.255 OA
BRANCH  11  12
HETATM   12  C   UNL     1       1.507   0.401  -1.362  1.00  0.00     0.530 C 
HETATM   13  F   UNL     1       2.694   1.008  -1.564  1.00  0.00    -0.144 F 
HETATM   14  F   UNL     1       0.976   0.125  -2.575  1.00  0.00    -0.144 F 
HETATM   15  F   UNL     1       1.723  -0.768  -0.722  1.00  0.00    -0.144 F 
ENDBRANCH  11  12
ENDBRANCH   8  11
ENDBRANCH   2   5
TORSDOF 3
