REMARK  1 active torsions:
REMARK  status: ('A' for Active; 'I' for Inactive)
REMARK    1  A    between atoms: N_1  and  N_7 
ROOT
HETATM    1  N   UNL     1       0.385   1.182  -0.624  1.00  0.00    -0.251 NA
HETATM    2  N   UNL     1      -0.879  -1.172   0.485  1.00  0.00    -0.073 N 
HETATM    3  C   UNL     1       1.182   0.205   0.136  1.00  0.00     0.135 C 
HETATM    4  C   UNL     1      -0.950   1.282  -0.009  1.00  0.00     0.135 C 
HETATM    5  C   UNL     1       0.523  -1.180   0.014  1.00  0.00     0.250 C 
HETATM    6  C   UNL     1      -1.660  -0.075  -0.128  1.00  0.00     0.250 C 
HETATM    7  C   UNL     1      -0.990  -1.207   1.952  1.00  0.00     0.269 C 
HETATM    8  H   UNL     1      -1.300  -2.043   0.162  1.00  0.00     0.279 HD
ENDROOT
BRANCH   1   9
HETATM    9  N   UNL     1       1.018   2.439  -0.587  1.00  0.00    -0.268 NA
HETATM   10  H   UNL     1       1.942   2.368  -1.013  1.00  0.00     0.137 HD
HETATM   11  H   UNL     1       1.113   2.743   0.382  1.00  0.00     0.137 HD
ENDBRANCH   1   9
TORSDOF 1
