REMARK  2 active torsions:
REMARK  status: ('A' for Active; 'I' for Inactive)
REMARK    1  A    between atoms: N_1  and  C_2 
REMARK    2  A    between atoms: C_5  and  O_8 
ROOT
HETATM    1  N   UNL     1      -1.551   0.108   0.104  1.00  0.00    -0.378 N 
HETATM    2  N   UNL     1       1.217   0.447  -0.290  1.00  0.00    -0.072 N 
HETATM    3  C   UNL     1      -0.703  -1.074   0.055  1.00  0.00     0.150 C 
HETATM    4  C   UNL     1      -1.100   1.231  -0.704  1.00  0.00     0.150 C 
HETATM    5  C   UNL     1       0.704  -0.681   0.507  1.00  0.00     0.252 C 
HETATM    6  C   UNL     1       0.312   1.606  -0.224  1.00  0.00     0.252 C 
HETATM    7  H   UNL     1       2.131   0.719   0.070  1.00  0.00     0.277 HD
HETATM    8  H   UNL     1       1.285   0.148  -1.263  1.00  0.00     0.277 HD
ENDROOT
BRANCH   1   9
HETATM    9  C   UNL     1      -2.685   0.211   0.983  1.00  0.00     0.032 A 
HETATM   10  C   UNL     1      -2.686  -0.462   2.222  1.00  0.00     0.066 A 
HETATM   11  C   UNL     1      -3.767  -0.332   3.114  1.00  0.00     0.070 A 
HETATM   12  C   UNL     1      -4.860   0.461   2.752  1.00  0.00     0.037 A 
HETATM   13  C   UNL     1      -4.873   1.129   1.527  1.00  0.00     0.005 A 
HETATM   14  C   UNL     1      -3.791   1.017   0.653  1.00  0.00     0.029 A 
BRANCH  11  15
HETATM   15  O   UNL     1      -3.779  -0.934   4.333  1.00  0.00    -0.356 OA
HETATM   16  C   UNL     1      -2.749  -1.685   4.866  1.00  0.00     0.210 C 
ENDBRANCH  11  15
ENDBRANCH   1   9
TORSDOF 2
