REMARK  3 active torsions:
REMARK  status: ('A' for Active; 'I' for Inactive)
REMARK    1  A    between atoms: C_1  and  C_6 
REMARK    2  A    between atoms: C_6  and  N_9 
REMARK    3  A    between atoms: C_10  and  O_12 
ROOT
HETATM    1  C   UNL     1      -1.579  -1.196  -0.068  1.00  0.00    -0.005 A 
HETATM    2  C   UNL     1      -0.220  -0.737  -0.075  1.00  0.00     0.003 A 
HETATM    3  N   UNL     1      -1.568   1.036  -0.095  1.00  0.00    -0.365 N 
HETATM    4  C   UNL     1      -2.378  -0.066  -0.098  1.00  0.00     0.098 A 
HETATM    5  C   UNL     1      -0.245   0.657  -0.079  1.00  0.00     0.043 A 
HETATM    6  C   UNL     1       1.036  -1.379  -0.048  1.00  0.00     0.051 A 
HETATM    7  C   UNL     1       0.916   1.435  -0.057  1.00  0.00     0.033 A 
HETATM    8  C   UNL     1       2.217  -0.623  -0.036  1.00  0.00     0.069 A 
HETATM    9  C   UNL     1       2.150   0.770  -0.036  1.00  0.00     0.039 A 
HETATM   10  H   UNL     1      -1.886   1.968  -0.103  1.00  0.00     0.165 HD
ENDROOT
BRANCH   1  11
HETATM   11  C   UNL     1      -2.059  -2.617  -0.003  1.00  0.00     0.274 C 
BRANCH  11  12
HETATM   12  N   UNL     1      -1.586  -3.277   1.228  1.00  0.00    -0.075 N 
HETATM   13  C   UNL     1      -2.101  -2.621   2.430  1.00  0.00     0.269 C 
HETATM   14  C   UNL     1      -1.974  -4.687   1.231  1.00  0.00     0.269 C 
HETATM   15  H   UNL     1      -0.568  -3.203   1.240  1.00  0.00     0.279 HD
ENDBRANCH  11  12
ENDBRANCH   1  11
BRANCH   8  16
HETATM   16  O   UNL     1       3.363  -1.372  -0.015  1.00  0.00    -0.356 OA
HETATM   17  C   UNL     1       4.595  -0.665  -0.014  1.00  0.00     0.210 C 
ENDBRANCH   8  16
TORSDOF 3
