REMARK  2 active torsions:
REMARK  status: ('A' for Active; 'I' for Inactive)
REMARK    1  A    between atoms: C_1  and  C_5 
REMARK    2  A    between atoms: C_5  and  C_7 
ROOT
HETATM    1  N   UNL     1       0.902   2.497   3.423  1.00  0.00    -0.375 N 
ATOM      2  HN  UNL     1       1.058   2.074   4.338  1.00  0.00     0.164 HD
HETATM    3  C   UNL     1       0.464   2.244   1.077  1.00  0.00    -0.033 A 
HETATM    4  C   UNL     1       0.684   1.692   2.350  1.00  0.00     0.095 A 
HETATM    5  C   UNL     1       0.917   3.852   3.307  1.00  0.00     0.087 A 
HETATM    6  C   UNL     1       0.477   3.642   0.944  1.00  0.00     0.010 A 
HETATM    7  C   UNL     1       0.703   4.448   2.064  1.00  0.00     0.018 A 
ENDROOT
BRANCH   3   8
HETATM    8  C   UNL     1       0.193   1.350  -0.109  1.00  0.00     0.153 C 
BRANCH   8   9
HETATM    9  C   UNL     1       1.215   1.511  -1.198  1.00  0.00     0.176 C 
HETATM   10  O   UNL     1       2.392   1.267  -0.977  1.00  0.00    -0.648 OA
HETATM   11  O   UNL     1       0.820   1.884  -2.435  1.00  0.00    -0.648 OA
ENDBRANCH   8   9
ENDBRANCH   3   8
TORSDOF 2
