REMARK  2 active torsions:
REMARK  status: ('A' for Active; 'I' for Inactive)
REMARK    1  A    between atoms: C_4  and  C_7 
REMARK    2  A    between atoms: N_5  and  C_7 
ROOT
HETATM    1  C   UNL     1       0.132  -1.202  -0.002  1.00  0.00     0.051 A 
HETATM    2  C   UNL     1       0.825   0.005  -0.005  1.00  0.00     0.117 A 
HETATM    3  F   UNL     1       2.165  -0.007  -0.003  1.00  0.00    -0.206 F 
HETATM    4  C   UNL     1      -1.269  -1.203  -0.003  1.00  0.00    -0.030 A 
HETATM    5  C   UNL     1      -1.240   1.234  -0.011  1.00  0.00     0.004 A 
HETATM    6  C   UNL     1       0.153   1.221  -0.009  1.00  0.00     0.042 A 
HETATM    7  C   UNL     1      -1.946   0.028  -0.010  1.00  0.00     0.009 A 
ENDROOT
BRANCH   4   8
HETATM    8  C   UNL     1      -2.040  -2.497  -0.002  1.00  0.00     0.268 C 
BRANCH   8   9
HETATM    9  N   UNL     1      -2.894  -2.604   1.175  1.00  0.00    -0.075 N 
HETATM   10  H   UNL     1      -3.402  -3.488   1.147  1.00  0.00     0.274 HD
HETATM   11  H   UNL     1      -3.559  -1.830   1.184  1.00  0.00     0.274 HD
HETATM   12  H   UNL     1      -2.319  -2.569   2.016  1.00  0.00     0.274 HD
ENDBRANCH   8   9
ENDBRANCH   4   8
TORSDOF 2
