REMARK  1 active torsions:
REMARK  status: ('A' for Active; 'I' for Inactive)
REMARK    1  A    between atoms: C_1  and  C_2 
ROOT
HETATM    1  C   UNL     1       0.218  -1.092  -0.506  1.00  0.00     0.112 C 
HETATM    2  N   UNL     1       1.061  -2.862   1.009  1.00  0.00    -0.074 N 
HETATM    3  C   UNL     1       0.736  -2.527  -0.391  1.00  0.00     0.247 C 
HETATM    4  C   UNL     1      -0.979  -0.856   0.420  1.00  0.00     0.019 C 
HETATM    5  C   UNL     1      -0.138  -2.755   1.857  1.00  0.00     0.232 C 
HETATM    6  C   UNL     1      -0.699  -1.335   1.844  1.00  0.00     0.028 C 
HETATM    7  H   UNL     1       1.773  -2.218   1.351  1.00  0.00     0.277 HD
HETATM    8  H   UNL     1       1.407  -3.821   1.046  1.00  0.00     0.277 HD
ENDROOT
BRANCH   1   9
HETATM    9  C   UNL     1       1.301  -0.055  -0.260  1.00  0.00     0.178 C 
HETATM   10  O   UNL     1       1.316   1.037  -0.814  1.00  0.00    -0.648 OA
HETATM   11  O   UNL     1       2.217  -0.396   0.674  1.00  0.00    -0.648 OA
ENDBRANCH   1   9
TORSDOF 1
