REMARK  1 active torsions:
REMARK  status: ('A' for Active; 'I' for Inactive)
REMARK    1  A    between atoms: C_3  and  C_7 
ROOT
HETATM    1  N   UNL     1       0.564   0.679  -0.860  1.00  0.00    -0.300 N 
ATOM      2  HN  UNL     1       0.910   1.179  -1.679  1.00  0.00     0.187 HD
HETATM    3  C   UNL     1      -0.313   1.120   0.060  1.00  0.00     0.059 A 
HETATM    4  N   UNL     1       0.884  -0.561  -0.465  1.00  0.00    -0.311 N 
HETATM    5  C   UNL     1      -0.536   0.112   1.041  1.00  0.00     0.050 A 
HETATM    6  C   UNL     1       0.250  -0.952   0.672  1.00  0.00     0.109 A 
HETATM    7  H   UNL     1       1.519  -1.134  -0.952  1.00  0.00     0.186 HD
ENDROOT
BRANCH   3   8
HETATM    8  C   UNL     1      -0.900   2.466  -0.014  1.00  0.00    -0.008 A 
HETATM    9  C   UNL     1      -0.566   3.332  -1.067  1.00  0.00     0.014 A 
HETATM   10  C   UNL     1      -1.112   4.617  -1.142  1.00  0.00     0.001 A 
HETATM   11  C   UNL     1      -2.002   5.054  -0.164  1.00  0.00     0.000 A 
HETATM   12  C   UNL     1      -2.346   4.208   0.887  1.00  0.00     0.001 A 
HETATM   13  C   UNL     1      -1.799   2.922   0.962  1.00  0.00     0.014 A 
ENDBRANCH   3   8
TORSDOF 1
