REMARK  1 active torsions:
REMARK  status: ('A' for Active; 'I' for Inactive)
REMARK    1  A    between atoms: C_1  and  C_2 
ROOT
HETATM    1  C   UNL     1      -0.159  -1.288  -0.005  1.00  0.00     0.071 A 
HETATM    2  C   UNL     1       0.716  -0.212   0.000  1.00  0.00     0.065 A 
HETATM    3  C   UNL     1      -1.466  -0.713  -0.001  1.00  0.00     0.045 A 
HETATM    4  O   UNL     1       0.018   0.961   0.007  1.00  0.00    -0.326 OA
HETATM    5  C   UNL     1      -1.301   0.649   0.008  1.00  0.00     0.143 A 
HETATM    6  C   UNL     1       2.187  -0.058   0.000  1.00  0.00     0.078 C 
ENDROOT
BRANCH   1   7
HETATM    7  C   UNL     1       0.190  -2.692  -0.013  1.00  0.00     0.211 C 
HETATM    8  O   UNL     1       1.321  -3.156  -0.016  1.00  0.00    -0.644 OA
HETATM    9  O   UNL     1      -0.877  -3.519  -0.017  1.00  0.00    -0.644 OA
ENDBRANCH   1   7
TORSDOF 1
