REMARK  2 active torsions:
REMARK  status: ('A' for Active; 'I' for Inactive)
REMARK    1  A    between atoms: C_2  and  C_6 
REMARK    2  A    between atoms: C_6  and  O_7 
ROOT
HETATM    1  O   UNL     1      -0.045   0.997   0.008  1.00  0.00    -0.318 OA
HETATM    2  C   UNL     1       0.687  -0.157  -0.006  1.00  0.00     0.076 A 
HETATM    3  C   UNL     1      -1.360   0.634  -0.005  1.00  0.00     0.049 A 
HETATM    4  C   UNL     1      -1.474  -0.739  -0.028  1.00  0.00     0.035 A 
HETATM    5  C   UNL     1      -0.155  -1.249  -0.028  1.00  0.00     0.037 A 
HETATM    6  C   UNL     1      -2.348   1.731   0.013  1.00  0.00     0.076 C 
ENDROOT
BRANCH   2   7
HETATM    7  C   UNL     1       2.160  -0.012   0.010  1.00  0.00     0.229 C 
BRANCH   7   8
HETATM    8  O   UNL     1       2.522   0.660   1.210  1.00  0.00    -0.394 OA
HETATM    9  H   UNL     1       2.091   1.529   1.236  1.00  0.00     0.209 HD
ENDBRANCH   7   8
ENDBRANCH   2   7
TORSDOF 2
