REMARK  1 active torsions:
REMARK  status: ('A' for Active; 'I' for Inactive)
REMARK    1  A    between atoms: C_5  and  C_6 
ROOT
HETATM    1  N   UNL     1      -1.396   0.032   0.002  1.00  0.00    -0.364 N 
ATOM      2  HN  UNL     1      -2.416   0.059  -0.000  1.00  0.00     0.165 HD
HETATM    3  N   UNL     1       1.438  -0.014   0.009  1.00  0.00    -0.372 N 
ATOM      4  HN  UNL     1       2.458  -0.034   0.012  1.00  0.00     0.164 HD
HETATM    5  C   UNL     1      -0.708  -1.137   0.002  1.00  0.00     0.046 A 
HETATM    6  C   UNL     1       0.686  -1.145   0.006  1.00  0.00     0.117 A 
HETATM    7  C   UNL     1      -0.649   1.160   0.005  1.00  0.00     0.105 A 
HETATM    8  C   UNL     1       0.735   1.138   0.008  1.00  0.00     0.104 A 
ENDROOT
BRANCH   5   9
HETATM    9  C   UNL     1      -1.479  -2.388  -0.001  1.00  0.00     0.021 C 
HETATM   10  C   UNL     1      -2.818  -2.450  -0.007  1.00  0.00     0.013 C 
ENDBRANCH   5   9
TORSDOF 1
