REMARK  0 active torsions:
REMARK  status: ('A' for Active; 'I' for Inactive)
ROOT
HETATM    1  N   UNL     1       0.671   1.180  -0.004  1.00  0.00    -0.058 N 
HETATM    2  C   UNL     1       1.434  -0.048   0.301  1.00  0.00     0.126 C 
HETATM    3  C   UNL     1      -0.774   1.193   0.312  1.00  0.00     0.126 C 
HETATM    4  C   UNL     1      -0.727  -1.294   0.170  1.00  0.00     0.131 C 
HETATM    5  C   UNL     1      -1.489  -0.055  -0.222  1.00  0.00     0.116 C 
HETATM    6  C   UNL     1       0.730  -1.315  -0.205  1.00  0.00     0.116 C 
HETATM    7  O   UNL     1      -1.288  -2.274   0.655  1.00  0.00    -0.298 OA
HETATM    8  C   UNL     1      -1.037   1.372   1.819  1.00  0.00     0.046 C 
HETATM    9  C   UNL     1       2.789   0.074  -0.435  1.00  0.00     0.046 C 
HETATM   10  C   UNL     1       1.762  -0.165   1.802  1.00  0.00     0.046 C 
HETATM   11  C   UNL     1      -1.373   2.432  -0.390  1.00  0.00     0.046 C 
HETATM   12  H   UNL     1       0.765   1.355  -1.004  1.00  0.00     0.279 HD
HETATM   13  H   UNL     1       1.073   1.890   0.608  1.00  0.00     0.279 HD
ENDROOT
TORSDOF 0
