REMARK  5 active torsions:
REMARK  status: ('A' for Active; 'I' for Inactive)
REMARK    1  A    between atoms: N_1  and  C_3 
REMARK    2  A    between atoms: N_2  and  C_15 
REMARK    3  A    between atoms: C_3  and  C_8 
REMARK    4  A    between atoms: C_15  and  C_17 
REMARK    5  A    between atoms: O_16  and  C_17 
ROOT
HETATM    1  N   UNL     1      -1.457   0.022   0.591  1.00  0.00    -0.064 N 
HETATM    2  N   UNL     1       1.365  -0.120  -0.606  1.00  0.00    -0.066 N 
HETATM    3  C   UNL     1      -0.875  -1.221   0.045  1.00  0.00     0.263 C 
HETATM    4  C   UNL     1      -0.791   1.175  -0.053  1.00  0.00     0.263 C 
HETATM    5  C   UNL     1       0.675  -1.279   0.008  1.00  0.00     0.262 C 
HETATM    6  C   UNL     1       0.760   1.129  -0.097  1.00  0.00     0.262 C 
HETATM    7  H   UNL     1      -2.455   0.028   0.380  1.00  0.00     0.280 HD
HETATM    8  H   UNL     1       2.348  -0.121  -0.335  1.00  0.00     0.280 HD
ENDROOT
BRANCH   1   9
HETATM    9  C   UNL     1      -1.372   0.105   2.059  1.00  0.00     0.273 C 
BRANCH   9  10
HETATM   10  C   UNL     1      -2.330  -0.811   2.807  1.00  0.00    -0.032 A 
HETATM   11  C   UNL     1      -1.846  -1.701   3.781  1.00  0.00     0.012 A 
HETATM   12  C   UNL     1      -2.729  -2.447   4.571  1.00  0.00     0.043 A 
HETATM   13  C   UNL     1      -4.099  -2.310   4.385  1.00  0.00     0.116 A 
HETATM   14  C   UNL     1      -4.604  -1.452   3.417  1.00  0.00     0.043 A 
HETATM   15  F   UNL     1      -4.944  -3.002   5.164  1.00  0.00    -0.206 F 
HETATM   16  C   UNL     1      -3.718  -0.704   2.628  1.00  0.00     0.012 A 
ENDBRANCH   9  10
ENDBRANCH   1   9
BRANCH   2  17
HETATM   17  C   UNL     1       1.374  -0.210  -2.083  1.00  0.00     0.260 C 
BRANCH  17  18
HETATM   18  C   UNL     1       2.410   0.731  -2.726  1.00  0.00     0.192 C 
BRANCH  18  19
HETATM   19  O   UNL     1       3.706   0.484  -2.185  1.00  0.00    -0.399 OA
HETATM   20  H   UNL     1       4.349   1.082  -2.598  1.00  0.00     0.209 HD
ENDBRANCH  18  19
ENDBRANCH  17  18
ENDBRANCH   2  17
TORSDOF 5
