REMARK  2 active torsions:
REMARK  status: ('A' for Active; 'I' for Inactive)
REMARK    1  A    between atoms: C_3  and  C_7 
REMARK    2  A    between atoms: C_10  and  N_11 
ROOT
HETATM    1  C   UNL     1       2.028  -2.431   0.003  1.00  0.00    -0.009 A 
HETATM    2  C   UNL     1       2.989  -2.632   1.002  1.00  0.00     0.016 A 
HETATM    3  C   UNL     1       1.973  -3.344  -1.058  1.00  0.00     0.016 A 
HETATM    4  C   UNL     1       3.762  -4.668  -0.080  1.00  0.00     0.025 A 
HETATM    5  C   UNL     1       3.859  -3.727   0.947  1.00  0.00     0.030 A 
HETATM    6  C   UNL     1       2.844  -4.439  -1.106  1.00  0.00     0.030 A 
ENDROOT
BRANCH   1   7
HETATM    7  C   UNL     1       1.127  -1.283   0.020  1.00  0.00     0.049 A 
HETATM    8  N   UNL     1       0.591  -0.771  -1.154  1.00  0.00    -0.353 N 
HETATM    9  C   UNL     1      -0.167   0.271  -0.889  1.00  0.00     0.047 A 
ATOM     10  HN  UNL     1       0.760  -1.148  -2.087  1.00  0.00     0.166 HD
HETATM   11  S   UNL     1      -0.310   0.679   0.774  1.00  0.00    -0.087 SA
HETATM   12  C   UNL     1      -0.877   1.081  -1.915  1.00  0.00     0.076 C 
HETATM   13  C   UNL     1       0.725  -0.628   1.169  1.00  0.00     0.081 A 
ENDBRANCH   1   7
BRANCH   4  14
HETATM   14  N   UNL     1       4.724  -5.676  -0.202  1.00  0.00    -0.399 N 
HETATM   15  H   UNL     1       4.654  -6.338  -0.927  1.00  0.00     0.156 HD
HETATM   16  H   UNL     1       5.471  -5.724   0.438  1.00  0.00     0.156 HD
ENDBRANCH   4  14
TORSDOF 2
