REMARK  1 active torsions:
REMARK  status: ('A' for Active; 'I' for Inactive)
REMARK       I    between atoms: C_1  and  N_2 
REMARK    1  A    between atoms: C_1  and  C_3 
ROOT
HETATM    1  C   UNL     1       0.800   0.122  -0.041  1.00  0.00     0.260 C 
HETATM    2  N   UNL     1       0.142   1.113   0.713  1.00  0.00    -0.346 N 
HETATM    3  O   UNL     1       1.764   0.421  -0.747  1.00  0.00    -0.267 OA
HETATM    4  N   UNL     1      -2.274   2.900   1.243  1.00  0.00    -0.074 N 
HETATM    5  C   UNL     1       0.582   2.496   0.584  1.00  0.00     0.128 C 
HETATM    6  C   UNL     1      -0.849   0.866   1.766  1.00  0.00     0.153 C 
HETATM    7  C   UNL     1      -0.303   3.347  -0.319  1.00  0.00     0.047 C 
HETATM    8  C   UNL     1      -1.817   3.274  -0.093  1.00  0.00     0.234 C 
HETATM    9  C   UNL     1      -2.238   1.447   1.451  1.00  0.00     0.252 C 
HETATM   10  H   UNL     1      -1.670   3.346   1.934  1.00  0.00     0.277 HD
HETATM   11  H   UNL     1      -3.241   3.208   1.342  1.00  0.00     0.277 HD
ENDROOT
BRANCH   1  12
HETATM   12  C   UNL     1       0.317  -1.253   0.039  1.00  0.00     0.072 A 
HETATM   13  S   UNL     1       1.462  -2.531   0.145  1.00  0.00    -0.097 SA
HETATM   14  C   UNL     1       0.233  -3.715   0.264  1.00  0.00     0.050 A 
HETATM   15  C   UNL     1      -1.024  -3.165   0.179  1.00  0.00     0.009 A 
HETATM   16  C   UNL     1      -0.972  -1.752  -0.005  1.00  0.00     0.025 A 
ENDBRANCH   1  12
TORSDOF 1
