REMARK  6 active torsions:
REMARK  status: ('A' for Active; 'I' for Inactive)
REMARK    1  A    between atoms: C_1  and  C_2 
REMARK    2  A    between atoms: C_5  and  N_12 
REMARK    3  A    between atoms: N_12  and  C_16 
REMARK    4  A    between atoms: N_14  and  C_17 
REMARK    5  A    between atoms: C_15  and  C_16 
REMARK    6  A    between atoms: C_15  and  C_17 
ROOT
HETATM    1  C   UNL     1       0.535  -0.410  -1.313  1.00  0.00     0.065 A 
HETATM    2  N   UNL     1       0.665  -1.856  -3.252  1.00  0.00    -0.350 N 
ATOM      3  HN  UNL     1       1.099  -2.651  -3.721  1.00  0.00     0.166 HD
HETATM    4  C   UNL     1      -0.345  -1.173  -3.841  1.00  0.00     0.123 A 
HETATM    5  C   UNL     1      -0.498   0.303  -1.926  1.00  0.00     0.045 A 
HETATM    6  C   UNL     1      -0.934  -0.070  -3.198  1.00  0.00     0.078 A 
HETATM    7  C   UNL     1       1.087  -1.461  -2.026  1.00  0.00     0.106 A 
HETATM    8 CL   UNL     1      -2.229   0.821  -3.917  1.00  0.00    -0.080 Cl
ENDROOT
BRANCH   4   9
HETATM    9  N   UNL     1      -0.850  -1.621  -5.058  1.00  0.00    -0.375 N 
HETATM   10  H   UNL     1      -1.447  -1.042  -5.584  1.00  0.00     0.161 HD
BRANCH   9  11
HETATM   11  C   UNL     1      -0.499  -2.941  -5.556  1.00  0.00     0.123 C 
BRANCH  11  12
HETATM   12  C   UNL     1       0.363  -2.898  -6.815  1.00  0.00     0.047 C 
BRANCH  12  13
HETATM   13  C   UNL     1       1.780  -2.402  -6.551  1.00  0.00     0.231 C 
BRANCH  13  14
HETATM   14  N   UNL     1       2.570  -2.485  -7.779  1.00  0.00    -0.079 N 
HETATM   15  H   UNL     1       3.517  -2.152  -7.598  1.00  0.00     0.274 HD
HETATM   16  H   UNL     1       2.139  -1.906  -8.500  1.00  0.00     0.274 HD
HETATM   17  H   UNL     1       2.605  -3.453  -8.097  1.00  0.00     0.274 HD
ENDBRANCH  13  14
ENDBRANCH  12  13
ENDBRANCH  11  12
ENDBRANCH   9  11
ENDBRANCH   4   9
BRANCH   1  18
HETATM   18  C   UNL     1       1.041  -0.083   0.056  1.00  0.00     0.418 C 
HETATM   19  F   UNL     1       0.381   0.952   0.646  1.00  0.00    -0.166 F 
HETATM   20  F   UNL     1       2.356   0.265   0.055  1.00  0.00    -0.166 F 
HETATM   21  F   UNL     1       0.931  -1.133   0.913  1.00  0.00    -0.166 F 
ENDBRANCH   1  18
TORSDOF 6
