REMARK  2 active torsions:
REMARK  status: ('A' for Active; 'I' for Inactive)
REMARK    1  A    between atoms: N_1  and  C_2 
REMARK    2  A    between atoms: C_5  and  N_6 
ROOT
HETATM    1  C   UNL     1       2.476  -0.025   1.058  1.00  0.00     0.030 A 
HETATM    2  C   UNL     1       2.650   0.925   2.073  1.00  0.00     0.031 A 
HETATM    3  C   UNL     1       3.456  -1.024   0.967  1.00  0.00     0.031 A 
HETATM    4  C   UNL     1       4.735  -0.087   2.806  1.00  0.00     0.025 A 
HETATM    5  C   UNL     1       3.745   0.881   2.949  1.00  0.00     0.031 A 
HETATM    6  C   UNL     1       4.555  -1.069   1.837  1.00  0.00     0.031 A 
ENDROOT
BRANCH   1   7
HETATM    7  N   UNL     1       1.395   0.004   0.197  1.00  0.00    -0.381 N 
HETATM    8  C   UNL     1       0.745   1.253  -0.199  1.00  0.00     0.123 C 
HETATM    9  C   UNL     1      -0.705   1.265   0.278  1.00  0.00     0.020 C 
HETATM   10  C   UNL     1      -1.450   0.015  -0.190  1.00  0.00     0.003 C 
HETATM   11  C   UNL     1      -0.704  -1.251   0.225  1.00  0.00     0.020 C 
HETATM   12  C   UNL     1       0.750  -1.231  -0.251  1.00  0.00     0.123 C 
ENDBRANCH   1   7
BRANCH   4  13
HETATM   13  N   UNL     1       5.753  -0.209   3.758  1.00  0.00    -0.399 N 
HETATM   14  H   UNL     1       6.449  -0.897   3.649  1.00  0.00     0.156 HD
HETATM   15  H   UNL     1       5.774   0.393   4.536  1.00  0.00     0.156 HD
ENDBRANCH   4  13
TORSDOF 2
