REMARK  2 active torsions:
REMARK  status: ('A' for Active; 'I' for Inactive)
REMARK    1  A    between atoms: C_1  and  S_2 
REMARK    2  A    between atoms: S_2  and  N_9 
ROOT
HETATM    1  C   UNL     1       0.721  -1.611   0.006  1.00  0.00     0.105 A 
HETATM    2  C   UNL     1       1.235  -0.338  -0.025  1.00  0.00     0.099 A 
HETATM    3  C   UNL     1      -0.711  -1.597  -0.009  1.00  0.00     0.058 A 
HETATM    4  S   UNL     1       0.031   0.863  -0.054  1.00  0.00    -0.064 SA
HETATM    5  C   UNL     1      -1.189  -0.312  -0.034  1.00  0.00     0.077 A 
HETATM    6 CL   UNL     1       2.881   0.164  -0.042  1.00  0.00    -0.075 Cl
HETATM    7 CL   UNL     1      -2.836   0.170  -0.045  1.00  0.00    -0.076 Cl
ENDROOT
BRANCH   1   8
HETATM    8  S   UNL     1       1.665  -3.045   0.062  1.00  0.00     0.241 S 
HETATM    9  O   UNL     1       2.508  -2.892   1.222  1.00  0.00    -0.206 OA
HETATM   10  O   UNL     1       0.731  -4.134  -0.084  1.00  0.00    -0.206 OA
BRANCH   8  11
HETATM   11  N   UNL     1       2.676  -3.080  -1.276  1.00  0.00    -0.225 NA
HETATM   12  H   UNL     1       3.355  -2.321  -1.209  1.00  0.00     0.136 HD
HETATM   13  H   UNL     1       2.122  -2.966  -2.124  1.00  0.00     0.136 HD
ENDBRANCH   8  11
ENDBRANCH   1   8
TORSDOF 2
