REMARK  3 active torsions:
REMARK  status: ('A' for Active; 'I' for Inactive)
REMARK    1  A    between atoms: C_1  and  O_2 
REMARK    2  A    between atoms: O_2  and  C_5 
REMARK    3  A    between atoms: C_9  and  N_13 
ROOT
HETATM    1  N   UNL     1      -1.507   3.666  -1.084  1.00  0.00    -0.344 N 
ATOM      2  HN  UNL     1      -0.852   3.765  -1.859  1.00  0.00     0.167 HD
HETATM    3  C   UNL     1      -1.297   2.799  -0.072  1.00  0.00     0.148 C 
HETATM    4  C   UNL     1      -2.647   4.397  -1.003  1.00  0.00     0.119 C 
HETATM    5  C   UNL     1      -3.596   4.292   0.017  1.00  0.00     0.041 C 
HETATM    6  C   UNL     1      -2.093   2.727   1.063  1.00  0.00     0.059 C 
HETATM    7  C   UNL     1      -3.247   3.506   1.111  1.00  0.00     0.035 C 
ENDROOT
BRANCH   3   8
HETATM    8  O   UNL     1      -0.265   1.873  -0.132  1.00  0.00    -0.290 OA
BRANCH   8   9
HETATM    9  C   UNL     1       0.283   1.550  -1.355  1.00  0.00     0.121 A 
HETATM   10  C   UNL     1       1.684   1.466  -1.403  1.00  0.00     0.069 A 
HETATM   11 CL   UNL     1       2.658   1.837  -0.019  1.00  0.00    -0.081 Cl
HETATM   12  C   UNL     1       2.345   1.035  -2.560  1.00  0.00     0.027 A 
HETATM   13  C   UNL     1       1.613   0.697  -3.693  1.00  0.00     0.003 A 
HETATM   14  C   UNL     1       0.222   0.758  -3.657  1.00  0.00     0.027 A 
HETATM   15  C   UNL     1      -0.447   1.147  -2.486  1.00  0.00     0.069 A 
HETATM   16 CL   UNL     1      -2.170   0.965  -2.505  1.00  0.00    -0.081 Cl
ENDBRANCH   8   9
ENDBRANCH   3   8
BRANCH   5  17
HETATM   17  N   UNL     1      -4.739   5.097   0.057  1.00  0.00    -0.398 N 
HETATM   18  H   UNL     1      -4.979   5.651  -0.722  1.00  0.00     0.156 HD
HETATM   19  H   UNL     1      -5.304   5.111   0.863  1.00  0.00     0.156 HD
ENDBRANCH   5  17
TORSDOF 3
