REMARK  3 active torsions:
REMARK  status: ('A' for Active; 'I' for Inactive)
REMARK    1  A    between atoms: C_1  and  C_2 
REMARK    2  A    between atoms: C_1  and  C_5 
REMARK    3  A    between atoms: C_6  and  N_7 
ROOT
HETATM    1  C   UNL     1       0.295  -1.303  -0.125  1.00  0.00     0.017 A 
HETATM    2  C   UNL     1       0.452  -2.222   0.922  1.00  0.00     0.044 A 
HETATM    3  C   UNL     1      -0.259  -3.424   0.926  1.00  0.00     0.026 A 
HETATM    4  C   UNL     1      -0.615  -1.567  -1.153  1.00  0.00     0.015 A 
HETATM    5  C   UNL     1      -1.305  -2.777  -1.171  1.00  0.00     0.003 A 
HETATM    6  C   UNL     1      -1.098  -3.711  -0.154  1.00  0.00     0.029 A 
ENDROOT
BRANCH   1   7
HETATM    7  C   UNL     1       1.083  -0.044  -0.189  1.00  0.00     0.192 C 
HETATM    8  O   UNL     1       0.575   0.949  -0.703  1.00  0.00    -0.287 OA
BRANCH   7   9
HETATM    9  C   UNL     1       2.473   0.039   0.339  1.00  0.00     0.015 A 
HETATM   10  C   UNL     1       2.935   1.279   0.795  1.00  0.00     0.015 A 
HETATM   11  C   UNL     1       4.232   1.404   1.298  1.00  0.00     0.001 A 
HETATM   12  C   UNL     1       5.072   0.292   1.349  1.00  0.00     0.000 A 
HETATM   13  C   UNL     1       4.625  -0.941   0.878  1.00  0.00     0.001 A 
HETATM   14  C   UNL     1       3.335  -1.066   0.358  1.00  0.00     0.015 A 
ENDBRANCH   7   9
ENDBRANCH   1   7
BRANCH   3  15
HETATM   15  N   UNL     1       0.057  -4.421   1.857  1.00  0.00    -0.399 N 
HETATM   16  H   UNL     1       0.649  -4.215   2.616  1.00  0.00     0.156 HD
HETATM   17  H   UNL     1      -0.311  -5.328   1.751  1.00  0.00     0.156 HD
ENDBRANCH   3  15
TORSDOF 3
