REMARK  2 active torsions:
REMARK  status: ('A' for Active; 'I' for Inactive)
REMARK    1  A    between atoms: N_1  and  C_2 
REMARK    2  A    between atoms: C_6  and  N_7 
ROOT
HETATM    1  C   UNL     1      -2.616   0.050  -0.942  1.00  0.00     0.030 A 
HETATM    2  C   UNL     1      -2.774   0.999  -1.959  1.00  0.00     0.031 A 
HETATM    3  C   UNL     1      -3.637  -0.905  -0.805  1.00  0.00     0.031 A 
HETATM    4  C   UNL     1      -4.894   0.056  -2.644  1.00  0.00     0.025 A 
HETATM    5  C   UNL     1      -3.868   0.985  -2.815  1.00  0.00     0.031 A 
HETATM    6  C   UNL     1      -4.751  -0.908  -1.649  1.00  0.00     0.031 A 
ENDROOT
BRANCH   1   7
HETATM    7  N   UNL     1      -1.509   0.045  -0.132  1.00  0.00    -0.377 N 
HETATM    8  C   UNL     1      -0.756   1.267   0.174  1.00  0.00     0.149 C 
HETATM    9  C   UNL     1       0.694   1.153  -0.311  1.00  0.00     0.187 C 
HETATM   10  O   UNL     1       1.326  -0.040   0.183  1.00  0.00    -0.388 OA
HETATM   11  C   UNL     1       0.610  -1.204  -0.266  1.00  0.00     0.187 C 
HETATM   12  C   UNL     1      -0.843  -1.210   0.239  1.00  0.00     0.149 C 
ENDBRANCH   1   7
BRANCH   4  13
HETATM   13  N   UNL     1      -5.910  -0.055  -3.598  1.00  0.00    -0.399 N 
HETATM   14  H   UNL     1      -6.633  -0.713  -3.474  1.00  0.00     0.156 HD
HETATM   15  H   UNL     1      -5.904   0.524  -4.394  1.00  0.00     0.156 HD
ENDBRANCH   4  13
TORSDOF 2
