REMARK  3 active torsions:
REMARK  status: ('A' for Active; 'I' for Inactive)
REMARK    1  A    between atoms: C_1  and  O_2 
REMARK    2  A    between atoms: O_2  and  C_3 
REMARK    3  A    between atoms: C_6  and  N_8 
ROOT
HETATM    1  C   UNL     1       0.381  -1.015  -0.054  1.00  0.00     0.174 C 
HETATM    2  N   UNL     1       1.226  -0.145  -0.661  1.00  0.00    -0.345 N 
ATOM      3  HN  UNL     1       2.107  -0.454  -1.072  1.00  0.00     0.167 HD
HETATM    4  C   UNL     1      -0.909  -0.684   0.391  1.00  0.00     0.077 C 
HETATM    5  C   UNL     1       0.846   1.146  -0.695  1.00  0.00     0.090 C 
HETATM    6  C   UNL     1      -1.249   0.671   0.345  1.00  0.00     0.035 C 
HETATM    7  C   UNL     1      -0.363   1.599  -0.200  1.00  0.00     0.019 C 
ENDROOT
BRANCH   1   8
HETATM    8  O   UNL     1       0.792  -2.339   0.117  1.00  0.00    -0.288 OA
BRANCH   8   9
HETATM    9  C   UNL     1       2.153  -2.559   0.138  1.00  0.00     0.116 A 
HETATM   10  C   UNL     1       3.039  -1.806   0.914  1.00  0.00     0.150 A 
HETATM   11  F   UNL     1       2.591  -0.848   1.739  1.00  0.00    -0.203 F 
HETATM   12  C   UNL     1       4.408  -2.038   0.854  1.00  0.00     0.045 A 
HETATM   13  C   UNL     1       4.901  -3.069   0.054  1.00  0.00     0.003 A 
HETATM   14  C   UNL     1       4.017  -3.872  -0.671  1.00  0.00     0.003 A 
HETATM   15  C   UNL     1       2.642  -3.620  -0.629  1.00  0.00     0.040 A 
ENDBRANCH   8   9
ENDBRANCH   1   8
BRANCH   4  16
HETATM   16  N   UNL     1      -1.746  -1.582   1.079  1.00  0.00    -0.396 N 
HETATM   17  H   UNL     1      -1.516  -2.538   1.117  1.00  0.00     0.156 HD
HETATM   18  H   UNL     1      -2.562  -1.253   1.522  1.00  0.00     0.156 HD
ENDBRANCH   4  16
TORSDOF 3
