REMARK  4 active torsions:
REMARK  status: ('A' for Active; 'I' for Inactive)
REMARK    1  A    between atoms: C_1  and  C_6 
REMARK    2  A    between atoms: C_2  and  C_5 
REMARK    3  A    between atoms: C_4  and  O_8 
REMARK    4  A    between atoms: C_5  and  C_6 
ROOT
HETATM    1  C   UNL     1       2.080  -1.627   2.259  1.00  0.00    -0.024 A 
HETATM    2  C   UNL     1       2.765  -0.427   2.519  1.00  0.00     0.074 A 
HETATM    3  C   UNL     1       2.809  -2.839   2.404  1.00  0.00     0.010 A 
HETATM    4  C   UNL     1       4.123  -0.486   2.903  1.00  0.00     0.037 A 
HETATM    5  C   UNL     1       4.147  -2.873   2.797  1.00  0.00     0.001 A 
HETATM    6  C   UNL     1       4.812  -1.687   3.042  1.00  0.00     0.003 A 
ENDROOT
BRANCH   1   7
HETATM    7  C   UNL     1       0.661  -1.795   1.750  1.00  0.00     0.052 C 
BRANCH   7   8
HETATM    8  C   UNL     1      -0.239  -2.655   2.650  1.00  0.00     0.118 C 
BRANCH   8   9
HETATM    9  C   UNL     1      -1.565  -2.920   1.985  1.00  0.00     0.172 C 
HETATM   10  O   UNL     1      -1.974  -2.457   0.936  1.00  0.00    -0.648 OA
HETATM   11  O   UNL     1      -2.321  -3.783   2.694  1.00  0.00    -0.648 OA
ENDBRANCH   8   9
ENDBRANCH   7   8
ENDBRANCH   1   7
BRANCH   2  12
HETATM   12  O   UNL     1       2.378   0.879   2.472  1.00  0.00    -0.355 OA
HETATM   13  C   UNL     1       1.087   1.298   2.094  1.00  0.00     0.210 C 
ENDBRANCH   2  12
TORSDOF 4
