REMARK  4 active torsions:
REMARK  status: ('A' for Active; 'I' for Inactive)
REMARK    1  A    between atoms: C_1  and  O_8 
REMARK    2  A    between atoms: C_3  and  C_10 
REMARK    3  A    between atoms: C_4  and  O_9 
REMARK    4  A    between atoms: C_10  and  O_11 
ROOT
HETATM    1  C   UNL     1       0.123   1.179   0.026  1.00  0.00     0.123 A 
HETATM    2  C   UNL     1      -0.493  -0.102   0.011  1.00  0.00     0.078 A 
HETATM    3  C   UNL     1       0.290  -1.287  -0.011  1.00  0.00    -0.010 A 
HETATM    4  C   UNL     1       1.538   1.237   0.013  1.00  0.00     0.103 A 
HETATM    5  C   UNL     1       1.685  -1.185  -0.039  1.00  0.00     0.014 A 
HETATM    6  C   UNL     1       2.295   0.058  -0.020  1.00  0.00     0.040 A 
HETATM    7 CL   UNL     1      -2.218  -0.330  -0.002  1.00  0.00    -0.081 Cl
ENDROOT
BRANCH   3   8
HETATM    8  C   UNL     1      -0.296  -2.679  -0.059  1.00  0.00     0.204 C 
BRANCH   8   9
HETATM    9  O   UNL     1      -0.501  -3.079  -1.406  1.00  0.00    -0.396 OA
HETATM   10  H   UNL     1      -1.117  -2.465  -1.835  1.00  0.00     0.209 HD
ENDBRANCH   8   9
ENDBRANCH   3   8
BRANCH   1  11
HETATM   11  O   UNL     1      -0.484   2.404   0.037  1.00  0.00    -0.351 OA
HETATM   12  C   UNL     1      -1.882   2.600   0.080  1.00  0.00     0.210 C 
ENDBRANCH   1  11
BRANCH   4  13
HETATM   13  O   UNL     1       2.363   2.336   0.021  1.00  0.00    -0.353 OA
HETATM   14  C   UNL     1       1.818   3.645   0.046  1.00  0.00     0.210 C 
ENDBRANCH   4  13
TORSDOF 4
