REMARK  2 active torsions:
REMARK  status: ('A' for Active; 'I' for Inactive)
REMARK    1  A    between atoms: C_3  and  C_4 
REMARK    2  A    between atoms: C_4  and  O_10 
ROOT
HETATM    1  N   UNL     1       2.458  -0.598   0.009  1.00  0.00    -0.360 N 
ATOM      2  HN  UNL     1       3.356  -1.081   0.010  1.00  0.00     0.165 HD
HETATM    3  C   UNL     1       2.376   0.757   0.013  1.00  0.00     0.108 A 
HETATM    4  C   UNL     1       1.168   1.450   0.008  1.00  0.00     0.048 A 
HETATM    5  C   UNL     1      -0.031   0.730   0.001  1.00  0.00    -0.022 A 
HETATM    6  C   UNL     1       1.283  -1.275   0.004  1.00  0.00     0.100 A 
HETATM    7  C   UNL     1       0.017  -0.678   0.001  1.00  0.00    -0.011 A 
HETATM    8  C   UNL     1      -1.277   1.377  -0.005  1.00  0.00     0.012 A 
HETATM    9  C   UNL     1      -1.184  -1.411  -0.001  1.00  0.00     0.013 A 
HETATM   10  C   UNL     1      -2.461   0.639  -0.010  1.00  0.00     0.001 A 
HETATM   11  C   UNL     1      -2.415  -0.753  -0.007  1.00  0.00     0.001 A 
ENDROOT
BRANCH   3  12
HETATM   12  C   UNL     1       3.639   1.558   0.024  1.00  0.00     0.309 C 
HETATM   13  O   UNL     1       3.649   2.783   0.029  1.00  0.00    -0.258 OA
BRANCH  12  14
HETATM   14  O   UNL     1       4.743   0.768   0.029  1.00  0.00    -0.321 OA
HETATM   15  C   UNL     1       5.968   1.500   0.043  1.00  0.00     0.213 C 
ENDBRANCH  12  14
ENDBRANCH   3  12
TORSDOF 2
