REMARK  3 active torsions:
REMARK  status: ('A' for Active; 'I' for Inactive)
REMARK    1  A    between atoms: C_3  and  N_8 
REMARK    2  A    between atoms: C_4  and  C_7 
REMARK    3  A    between atoms: C_11  and  O_14 
ROOT
HETATM    1  N   UNL     1      -0.657  -0.750   1.170  1.00  0.00    -0.336 N 
ATOM      2  HN  UNL     1      -0.849  -1.115   2.103  1.00  0.00     0.168 HD
HETATM    3  C   UNL     1       0.070   0.307   0.913  1.00  0.00     0.142 A 
HETATM    4  C   UNL     1      -1.129  -1.301  -0.013  1.00  0.00     0.051 A 
HETATM    5  S   UNL     1       0.264   0.690  -0.750  1.00  0.00    -0.064 SA
HETATM    6  C   UNL     1      -0.720  -0.648  -1.158  1.00  0.00     0.083 A 
ENDROOT
BRANCH   4   7
HETATM    7  C   UNL     1      -1.978  -2.485  -0.020  1.00  0.00    -0.009 A 
HETATM    8  C   UNL     1      -2.898  -2.709  -1.058  1.00  0.00     0.016 A 
HETATM    9  C   UNL     1      -3.708  -3.843  -1.054  1.00  0.00     0.037 A 
HETATM   10  C   UNL     1      -3.602  -4.759  -0.016  1.00  0.00     0.065 A 
HETATM   11  C   UNL     1      -2.698  -4.561   1.023  1.00  0.00     0.037 A 
HETATM   12  C   UNL     1      -1.887  -3.422   1.019  1.00  0.00     0.016 A 
BRANCH  10  13
HETATM   13  O   UNL     1      -4.412  -5.854  -0.057  1.00  0.00    -0.361 OA
HETATM   14  H   UNL     1      -4.369  -6.495   0.626  1.00  0.00     0.217 HD
ENDBRANCH  10  13
ENDBRANCH   4   7
BRANCH   3  15
HETATM   15  N   UNL     1       0.640   1.061   1.860  1.00  0.00    -0.380 N 
HETATM   16  H   UNL     1       0.522   0.832   2.810  1.00  0.00     0.158 HD
HETATM   17  H   UNL     1       1.179   1.845   1.606  1.00  0.00     0.158 HD
ENDBRANCH   3  15
TORSDOF 3
