REMARK  2 active torsions:
REMARK  status: ('A' for Active; 'I' for Inactive)
REMARK    1  A    between atoms: S_1  and  C_2 
REMARK    2  A    between atoms: S_1  and  N_9 
ROOT
HETATM    1  C   UNL     1       0.337   0.241   1.751  1.00  0.00     0.077 A 
HETATM    2  C   UNL     1       0.008  -0.905   2.480  1.00  0.00     0.048 A 
HETATM    3  C   UNL     1       0.228   1.512   2.321  1.00  0.00     0.048 A 
HETATM    4  C   UNL     1      -0.440  -0.766   3.791  1.00  0.00     0.037 A 
HETATM    5  C   UNL     1      -0.221   1.628   3.633  1.00  0.00     0.037 A 
HETATM    6  C   UNL     1      -0.556   0.495   4.374  1.00  0.00     0.047 A 
HETATM    7 CL   UNL     1      -0.848  -2.167   4.702  1.00  0.00    -0.084 Cl
HETATM    8 CL   UNL     1      -0.358   3.186   4.349  1.00  0.00    -0.084 Cl
ENDROOT
BRANCH   1   9
HETATM    9  S   UNL     1       0.957   0.076   0.106  1.00  0.00     0.239 S 
HETATM   10  O   UNL     1       1.510  -1.246  -0.056  1.00  0.00    -0.206 OA
HETATM   11  O   UNL     1       1.680   1.273  -0.247  1.00  0.00    -0.206 OA
BRANCH   9  12
HETATM   12  N   UNL     1      -0.462   0.105  -0.788  1.00  0.00    -0.225 NA
HETATM   13  H   UNL     1      -1.015  -0.725  -0.575  1.00  0.00     0.136 HD
HETATM   14  H   UNL     1      -0.236   0.118  -1.782  1.00  0.00     0.136 HD
ENDBRANCH   9  12
ENDBRANCH   1   9
TORSDOF 2
