REMARK  1 active torsions:
REMARK  status: ('A' for Active; 'I' for Inactive)
REMARK    1  A    between atoms: C_4  and  N_6 
ROOT
HETATM    1  C   UNL     1       1.283  -0.735   0.071  1.00  0.00     0.092 A 
HETATM    2  C   UNL     1       2.527  -1.446   0.131  1.00  0.00     0.103 C 
HETATM    3  N   UNL     1       3.513  -2.055   0.218  1.00  0.00    -0.191 NA
HETATM    4  C   UNL     1       0.065  -1.447   0.108  1.00  0.00     0.048 A 
HETATM    5  C   UNL     1       1.271   0.668   0.014  1.00  0.00     0.057 A 
HETATM    6 CL   UNL     1       2.727   1.601  -0.049  1.00  0.00    -0.083 Cl
HETATM    7  C   UNL     1      -1.143   0.668  -0.007  1.00  0.00     0.004 A 
HETATM    8  C   UNL     1      -1.136  -0.727   0.021  1.00  0.00     0.030 A 
HETATM    9  C   UNL     1       0.061   1.366  -0.011  1.00  0.00     0.025 A 
ENDROOT
BRANCH   4  10
HETATM   10  N   UNL     1       0.003  -2.848  -0.004  1.00  0.00    -0.398 N 
HETATM   11  H   UNL     1       0.828  -3.383   0.053  1.00  0.00     0.156 HD
HETATM   12  H   UNL     1      -0.864  -3.293  -0.139  1.00  0.00     0.156 HD
ENDBRANCH   4  10
TORSDOF 1
