REMARK  2 active torsions:
REMARK  status: ('A' for Active; 'I' for Inactive)
REMARK    1  A    between atoms: C_1  and  C_2 
REMARK    2  A    between atoms: C_1  and  O_8 
ROOT
HETATM    1  C   UNL     1      -1.030   0.037  -0.601  1.00  0.00     0.088 C 
HETATM    2  N   UNL     1       1.796   0.018   0.241  1.00  0.00    -0.075 N 
HETATM    3  C   UNL     1      -0.135   1.293  -0.580  1.00  0.00     0.070 C 
HETATM    4  C   UNL     1      -0.143  -1.223  -0.661  1.00  0.00     0.070 C 
HETATM    5  C   UNL     1       0.977   1.207   0.460  1.00  0.00     0.235 C 
HETATM    6  C   UNL     1       0.979  -1.188   0.378  1.00  0.00     0.235 C 
HETATM    7  H   UNL     1       2.195   0.051  -0.698  1.00  0.00     0.277 HD
HETATM    8  H   UNL     1       2.544  -0.005   0.934  1.00  0.00     0.277 HD
ENDROOT
BRANCH   1   9
HETATM    9  C   UNL     1      -2.085   0.047  -1.721  1.00  0.00    -0.024 A 
HETATM   10  C   UNL     1      -2.217   1.112  -2.631  1.00  0.00     0.012 A 
HETATM   11  C   UNL     1      -3.200   1.097  -3.627  1.00  0.00     0.024 A 
HETATM   12  C   UNL     1      -4.072   0.022  -3.728  1.00  0.00     0.034 A 
HETATM   13  C   UNL     1      -3.973  -1.043  -2.838  1.00  0.00     0.024 A 
HETATM   14 CL   UNL     1      -5.283   0.015  -4.949  1.00  0.00    -0.084 Cl
HETATM   15  C   UNL     1      -2.991  -1.026  -1.840  1.00  0.00     0.012 A 
ENDBRANCH   1   9
BRANCH   1  16
HETATM   16  O   UNL     1      -1.751   0.010   0.644  1.00  0.00    -0.385 OA
HETATM   17  H   UNL     1      -2.318   0.794   0.706  1.00  0.00     0.211 HD
ENDBRANCH   1  16
TORSDOF 2
