REMARK  1 active torsions:
REMARK  status: ('A' for Active; 'I' for Inactive)
REMARK    1  A    between atoms: C_3  and  O_7 
ROOT
HETATM    1  C   UNL     1      -0.384   0.641   0.008  1.00  0.00    -0.018 A 
HETATM    2  C   UNL     1      -0.117  -0.729  -0.003  1.00  0.00    -0.043 A 
HETATM    3  C   UNL     1       0.649   1.561   0.014  1.00  0.00     0.072 A 
HETATM    4  C   UNL     1       1.192  -1.209  -0.002  1.00  0.00    -0.055 A 
HETATM    5  C   UNL     1       1.966   1.108   0.011  1.00  0.00     0.037 A 
HETATM    6  C   UNL     1       2.234  -0.270   0.005  1.00  0.00     0.010 A 
HETATM    7  C   UNL     1      -1.849   0.927   0.005  1.00  0.00     0.042 A 
HETATM    8  C   UNL     1      -1.380  -1.528  -0.029  1.00  0.00     0.040 A 
HETATM    9  C   UNL     1      -2.488  -0.468   0.021  1.00  0.00     0.009 A 
HETATM   10  C   UNL     1       1.480  -2.680  -0.007  1.00  0.00     0.049 C 
ENDROOT
BRANCH   3  11
HETATM   11  O   UNL     1       0.353   2.889   0.017  1.00  0.00    -0.360 OA
HETATM   12  H   UNL     1      -0.540   3.170   0.019  1.00  0.00     0.217 HD
ENDBRANCH   3  11
TORSDOF 1
