REMARK  4 active torsions:
REMARK  status: ('A' for Active; 'I' for Inactive)
REMARK    1  A    between atoms: C_1  and  C_4 
REMARK    2  A    between atoms: C_1  and  O_7 
REMARK    3  A    between atoms: C_3  and  C_4 
REMARK    4  A    between atoms: C_6  and  O_8 
ROOT
HETATM    1  C   UNL     1       0.664   1.307  -2.081  1.00  0.00    -0.046 A 
HETATM    2  C   UNL     1      -0.078   2.441  -1.722  1.00  0.00     0.044 A 
HETATM    3  C   UNL     1       0.160   3.674  -2.333  1.00  0.00     0.068 A 
HETATM    4  C   UNL     1       1.869   2.639  -3.706  1.00  0.00     0.003 A 
HETATM    5  C   UNL     1       1.630   1.411  -3.089  1.00  0.00     0.008 A 
HETATM    6  C   UNL     1       1.138   3.765  -3.325  1.00  0.00     0.037 A 
ENDROOT
BRANCH   1   7
HETATM    7  C   UNL     1       0.424  -0.001  -1.372  1.00  0.00     0.149 C 
BRANCH   7   8
HETATM    8  C   UNL     1      -0.664  -0.831  -2.005  1.00  0.00     0.262 C 
HETATM    9  O   UNL     1      -1.847  -0.757  -1.717  1.00  0.00    -0.265 OA
BRANCH   8  10
HETATM   10  O   UNL     1      -0.133  -1.662  -2.949  1.00  0.00    -0.326 OA
HETATM   11  C   UNL     1      -1.098  -2.479  -3.612  1.00  0.00     0.213 C 
ENDBRANCH   8  10
ENDBRANCH   7   8
ENDBRANCH   1   7
BRANCH   3  12
HETATM   12  O   UNL     1      -0.485   4.844  -2.037  1.00  0.00    -0.356 OA
HETATM   13  C   UNL     1      -1.480   4.775  -1.021  1.00  0.00     0.210 C 
ENDBRANCH   3  12
TORSDOF 4
