REMARK  1 active torsions:
REMARK  status: ('A' for Active; 'I' for Inactive)
REMARK    1  A    between atoms: C_4  and  N_6 
ROOT
HETATM    1  C   UNL     1       1.252  -0.717   0.071  1.00  0.00     0.109 A 
HETATM    2  C   UNL     1       2.520  -1.376   0.129  1.00  0.00     0.105 C 
HETATM    3  N   UNL     1       3.532  -1.943   0.211  1.00  0.00    -0.191 NA
HETATM    4  C   UNL     1       0.045  -1.442   0.100  1.00  0.00     0.049 A 
HETATM    5  C   UNL     1       1.221   0.679   0.023  1.00  0.00     0.139 A 
HETATM    6  F   UNL     1       2.363   1.383   0.001  1.00  0.00    -0.204 F 
HETATM    7  C   UNL     1      -1.180   0.668  -0.018  1.00  0.00     0.005 A 
HETATM    8  C   UNL     1      -1.162  -0.729   0.008  1.00  0.00     0.031 A 
HETATM    9  C   UNL     1       0.017   1.375  -0.010  1.00  0.00     0.044 A 
ENDROOT
BRANCH   4  10
HETATM   10  N   UNL     1      -0.000  -2.842  -0.015  1.00  0.00    -0.398 N 
HETATM   11  H   UNL     1       0.829  -3.368   0.045  1.00  0.00     0.156 HD
HETATM   12  H   UNL     1      -0.862  -3.297  -0.157  1.00  0.00     0.156 HD
ENDBRANCH   4  10
TORSDOF 1
