REMARK  1 active torsions:
REMARK  status: ('A' for Active; 'I' for Inactive)
REMARK    1  A    between atoms: N_1  and  C_2 
ROOT
HETATM    1  C   UNL     1       2.479  -0.071   1.047  1.00  0.00     0.051 A 
HETATM    2  N   UNL     1       3.568  -2.980  -0.755  1.00  0.00    -0.191 NA
HETATM    3  C   UNL     1       3.528  -2.101   0.004  1.00  0.00     0.102 C 
HETATM    4  C   UNL     1       3.504  -1.049   0.982  1.00  0.00     0.071 A 
HETATM    5  C   UNL     1       2.658   0.946   2.013  1.00  0.00     0.031 A 
HETATM    6  C   UNL     1       4.610  -1.004   1.859  1.00  0.00     0.025 A 
HETATM    7  C   UNL     1       3.767   0.996   2.867  1.00  0.00     0.002 A 
HETATM    8  C   UNL     1       4.743   0.015   2.794  1.00  0.00     0.002 A 
ENDROOT
BRANCH   1   9
HETATM    9  N   UNL     1       1.338  -0.057   0.253  1.00  0.00    -0.380 N 
HETATM   10  C   UNL     1       0.647  -1.275  -0.187  1.00  0.00     0.123 C 
HETATM   11  C   UNL     1      -0.820  -1.225   0.239  1.00  0.00     0.020 C 
HETATM   12  C   UNL     1      -1.506   0.063  -0.206  1.00  0.00     0.003 C 
HETATM   13  C   UNL     1      -0.712   1.287   0.245  1.00  0.00     0.020 C 
HETATM   14  C   UNL     1       0.741   1.199  -0.222  1.00  0.00     0.123 C 
ENDBRANCH   1   9
TORSDOF 1
