REMARK  0 active torsions:
REMARK  status: ('A' for Active; 'I' for Inactive)
ROOT
HETATM    1  N   UNL     1       2.426  -0.729   0.061  1.00  0.00    -0.286 N 
ATOM      2  HN  UNL     1       3.318  -1.224   0.072  1.00  0.00     0.188 HD
HETATM    3  N   UNL     1       2.383   0.635   0.058  1.00  0.00    -0.265 N 
HETATM    4  C   UNL     1       1.303  -1.382   0.049  1.00  0.00     0.129 A 
HETATM    5  C   UNL     1       1.246   1.407   0.047  1.00  0.00     0.271 A 
HETATM    6  C   UNL     1      -0.015  -0.717   0.030  1.00  0.00     0.019 A 
HETATM    7  C   UNL     1      -0.031   0.675   0.021  1.00  0.00     0.047 A 
HETATM    8  O   UNL     1       1.281   2.632   0.056  1.00  0.00    -0.266 OA
HETATM    9 CL   UNL     1       1.480  -3.103   0.054  1.00  0.00    -0.062 Cl
HETATM   10  C   UNL     1      -1.245   1.370  -0.015  1.00  0.00     0.018 A 
HETATM   11  C   UNL     1      -1.221  -1.427   0.009  1.00  0.00     0.016 A 
HETATM   12  C   UNL     1      -2.447   0.661  -0.045  1.00  0.00     0.001 A 
HETATM   13  C   UNL     1      -2.434  -0.734  -0.030  1.00  0.00     0.001 A 
HETATM   14  H   UNL     1       3.246   1.110   0.064  1.00  0.00     0.190 HD
ENDROOT
TORSDOF 0
