REMARK  4 active torsions:
REMARK  status: ('A' for Active; 'I' for Inactive)
REMARK    1  A    between atoms: C_3  and  C_7 
REMARK    2  A    between atoms: C_5  and  C_8 
REMARK    3  A    between atoms: C_8  and  C_11 
REMARK    4  A    between atoms: O_10  and  C_11 
ROOT
HETATM    1  N   UNL     1      -1.448   0.620  -0.029  1.00  0.00    -0.337 N 
ATOM      2  HN  UNL     1      -2.336   1.119  -0.076  1.00  0.00     0.168 HD
HETATM    3  C   UNL     1      -1.253  -0.685  -0.000  1.00  0.00     0.158 A 
HETATM    4  O   UNL     1       0.069  -1.048   0.040  1.00  0.00    -0.296 OA
HETATM    5  C   UNL     1      -0.176   1.156   0.018  1.00  0.00     0.043 A 
HETATM    6  C   UNL     1       0.752   0.138   0.042  1.00  0.00     0.074 A 
HETATM    7  C   UNL     1       2.221   0.052   0.055  1.00  0.00     0.079 C 
ENDROOT
BRANCH   3   8
HETATM    8  C   UNL     1      -2.238  -1.763  -0.036  1.00  0.00     0.015 A 
HETATM    9  C   UNL     1      -3.597  -1.453  -0.198  1.00  0.00     0.016 A 
HETATM   10  C   UNL     1      -4.561  -2.462  -0.251  1.00  0.00     0.001 A 
HETATM   11  C   UNL     1      -4.177  -3.796  -0.139  1.00  0.00     0.000 A 
HETATM   12  C   UNL     1      -2.834  -4.122   0.032  1.00  0.00     0.001 A 
HETATM   13  C   UNL     1      -1.868  -3.112   0.083  1.00  0.00     0.016 A 
ENDBRANCH   3   8
BRANCH   5  14
HETATM   14  C   UNL     1       0.003   2.635   0.008  1.00  0.00     0.085 C 
BRANCH  14  15
HETATM   15  C   UNL     1      -0.547   3.265  -1.272  1.00  0.00     0.170 C 
BRANCH  15  16
HETATM   16  O   UNL     1      -1.962   3.118  -1.365  1.00  0.00    -0.400 OA
HETATM   17  H   UNL     1      -2.276   3.527  -2.186  1.00  0.00     0.209 HD
ENDBRANCH  15  16
ENDBRANCH  14  15
ENDBRANCH   5  14
TORSDOF 4
