REMARK  0 active torsions:
REMARK  status: ('A' for Active; 'I' for Inactive)
ROOT
HETATM    1  C   UNL     1      -0.006   0.707   0.044  1.00  0.00     0.040 A 
HETATM    2  N   UNL     1      -1.220   1.379  -0.015  1.00  0.00    -0.389 N 
HETATM    3  C   UNL     1       0.027  -0.703  -0.017  1.00  0.00    -0.031 A 
HETATM    4  C   UNL     1       1.211   1.417   0.088  1.00  0.00    -0.035 A 
HETATM    5  C   UNL     1       2.447  -0.676  -0.023  1.00  0.00     0.001 A 
HETATM    6  C   UNL     1      -2.430   0.663  -0.357  1.00  0.00     0.120 C 
HETATM    7  C   UNL     1       1.251  -1.384  -0.058  1.00  0.00     0.009 A 
HETATM    8  C   UNL     1       2.427   0.714   0.056  1.00  0.00     0.009 A 
HETATM    9  C   UNL     1      -1.256  -1.500  -0.066  1.00  0.00     0.042 C 
HETATM   10  C   UNL     1       1.237   2.920   0.151  1.00  0.00     0.050 C 
HETATM   11  C   UNL     1      -2.457  -0.669   0.373  1.00  0.00     0.024 C 
HETATM   12  H   UNL     1      -1.258   2.344   0.176  1.00  0.00     0.159 HD
ENDROOT
TORSDOF 0
