REMARK  1 active torsions:
REMARK  status: ('A' for Active; 'I' for Inactive)
REMARK    1  A    between atoms: N_4  and  O_11 
ROOT
HETATM    1  C   UNL     1       0.765   1.077  -0.548  1.00  0.00     0.040 C 
HETATM    2  N   UNL     1      -1.308  -0.137  -0.139  1.00  0.00    -0.066 N 
HETATM    3  C   UNL     1      -0.744   1.191  -0.495  1.00  0.00     0.289 C 
HETATM    4  N   UNL     1       1.542   2.071  -0.807  1.00  0.00    -0.275 N 
ATOM      5  HN  UNL     1       2.551   1.923  -0.843  1.00  0.00     0.193 HD
HETATM    6  C   UNL     1       1.290  -0.315  -0.312  1.00  0.00     0.038 C 
HETATM    7  C   UNL     1       0.607  -1.196  -1.376  1.00  0.00     0.038 C 
HETATM    8  C   UNL     1       0.796  -0.795   1.069  1.00  0.00     0.038 C 
HETATM    9  C   UNL     1      -0.738  -0.553   1.173  1.00  0.00     0.236 C 
HETATM   10  C   UNL     1      -0.936  -1.143  -1.169  1.00  0.00     0.236 C 
HETATM   11  H   UNL     1      -2.325  -0.076  -0.086  1.00  0.00     0.280 HD
ENDROOT
BRANCH   4  12
HETATM   12  O   UNL     1       1.057   3.275  -1.026  1.00  0.00    -0.290 OA
HETATM   13  H   UNL     1       1.636   3.987  -1.214  1.00  0.00     0.244 HD
ENDBRANCH   4  12
TORSDOF 1
