REMARK  4 active torsions:
REMARK  status: ('A' for Active; 'I' for Inactive)
REMARK    1  A    between atoms: C_1  and  C_2 
REMARK    2  A    between atoms: C_1  and  N_3 
REMARK    3  A    between atoms: C_1  and  C_7 
REMARK    4  A    between atoms: N_4  and  C_7 
ROOT
HETATM    1  C   UNL     1       1.069  -0.028   0.067  1.00  0.00     0.315 C 
ENDROOT
BRANCH   1   2
HETATM    2  C   UNL     1       1.801   0.548  -1.122  1.00  0.00     0.026 A 
HETATM    3  S   UNL     1       3.493   0.833  -1.032  1.00  0.00    -0.103 SA
HETATM    4  C   UNL     1       3.567   1.322  -2.668  1.00  0.00     0.050 A 
HETATM    5  C   UNL     1       2.334   1.278  -3.278  1.00  0.00     0.008 A 
HETATM    6  C   UNL     1       1.316   0.830  -2.389  1.00  0.00     0.018 A 
ENDBRANCH   1   2
BRANCH   1   7
HETATM    7  N   UNL     1       0.433  -1.350  -0.311  1.00  0.00    -0.047 N 
HETATM    8  C   UNL     1       1.352  -2.417  -0.749  1.00  0.00     0.263 C 
HETATM    9  C   UNL     1       2.042  -3.182   0.397  1.00  0.00     0.195 C 
HETATM   10  O   UNL     1       1.105  -3.676   1.363  1.00  0.00    -0.388 OA
HETATM   11  C   UNL     1       0.286  -2.622   1.870  1.00  0.00     0.195 C 
HETATM   12  C   UNL     1      -0.468  -1.935   0.724  1.00  0.00     0.263 C 
HETATM   13  H   UNL     1      -0.115  -1.047  -1.117  1.00  0.00     0.282 HD
ENDBRANCH   1   7
BRANCH   1  14
HETATM   14  C   UNL     1      -0.079   0.882   0.474  1.00  0.00    -0.038 C 
BRANCH  14  15
HETATM   15  N   UNL     1      -1.031   1.636   0.812  1.00  0.00    -0.368 N 
ATOM     16  HN2 UNL     1      -0.269   1.006   0.562  1.00  0.00     0.165 HD
ATOM     17  HN1 UNL     1      -1.801   2.246   1.085  1.00  0.00     0.165 HD
ENDBRANCH  14  15
ENDBRANCH   1  14
TORSDOF 4
