REMARK  1 active torsions:
REMARK  status: ('A' for Active; 'I' for Inactive)
REMARK    1  A    between atoms: C_2  and  O_10 
ROOT
HETATM    1  C   UNL     1      -0.002  -0.765   0.019  1.00  0.00     0.080 A 
HETATM    2  C   UNL     1       1.249  -1.370   0.033  1.00  0.00     0.156 A 
HETATM    3  N   UNL     1       2.425  -0.729   0.034  1.00  0.00    -0.332 N 
ATOM      4  HN  UNL     1       3.320  -1.218   0.041  1.00  0.00     0.168 HD
HETATM    5  N   UNL     1       1.190   1.316   0.007  1.00  0.00    -0.351 N 
ATOM      6  HN  UNL     1       1.201   2.336  -0.001  1.00  0.00     0.166 HD
HETATM    7  C   UNL     1       2.328   0.604   0.025  1.00  0.00     0.182 A 
HETATM    8  C   UNL     1      -1.247  -1.429   0.016  1.00  0.00     0.133 A 
HETATM    9  C   UNL     1       0.039   0.631  -0.000  1.00  0.00     0.050 A 
HETATM   10  F   UNL     1      -1.312  -2.768   0.051  1.00  0.00    -0.205 F 
HETATM   11  C   UNL     1      -2.402   0.670  -0.056  1.00  0.00     0.005 A 
HETATM   12  C   UNL     1      -2.440  -0.718  -0.025  1.00  0.00     0.043 A 
HETATM   13  C   UNL     1      -1.166   1.326  -0.037  1.00  0.00     0.030 A 
ENDROOT
BRANCH   2  14
HETATM   14  O   UNL     1       1.395  -2.720   0.026  1.00  0.00    -0.345 OA
HETATM   15  H   UNL     1       0.638  -3.273   0.025  1.00  0.00     0.219 HD
ENDBRANCH   2  14
TORSDOF 1
