REMARK  1 active torsions:
REMARK  status: ('A' for Active; 'I' for Inactive)
REMARK    1  A    between atoms: C_5  and  N_9 
ROOT
HETATM    1  N   UNL     1      -0.712   1.195   0.013  1.00  0.00    -0.359 N 
ATOM      2  HN  UNL     1      -1.204   2.088   0.051  1.00  0.00     0.165 HD
HETATM    3  N   UNL     1       0.641  -1.287  -0.068  1.00  0.00    -0.349 N 
ATOM      4  HN  UNL     1       1.139  -2.177  -0.094  1.00  0.00     0.167 HD
HETATM    5  C   UNL     1      -0.704  -1.221  -0.081  1.00  0.00     0.121 A 
HETATM    6  C   UNL     1      -1.377   0.009  -0.045  1.00  0.00     0.049 A 
HETATM    7  C   UNL     1       0.639   1.123   0.017  1.00  0.00     0.021 A 
HETATM    8  C   UNL     1       1.292  -0.101  -0.019  1.00  0.00     0.114 A 
HETATM    9  C   UNL     1      -2.874   0.079  -0.071  1.00  0.00     0.072 C 
HETATM   10  C   UNL     1       1.412   2.403   0.045  1.00  0.00     0.069 C 
ENDROOT
BRANCH   5  11
HETATM   11  N   UNL     1      -1.363  -2.447  -0.172  1.00  0.00    -0.384 N 
HETATM   12  H   UNL     1      -2.346  -2.477  -0.187  1.00  0.00     0.157 HD
HETATM   13  H   UNL     1      -0.843  -3.282  -0.222  1.00  0.00     0.157 HD
ENDBRANCH   5  11
TORSDOF 1
