REMARK  0 active torsions:
REMARK  status: ('A' for Active; 'I' for Inactive)
ROOT
HETATM    1  N   UNL     1       2.824   0.820   0.035  1.00  0.00    -0.071 N 
HETATM    2  C   UNL     1      -0.229   0.824  -0.138  1.00  0.00    -0.026 A 
HETATM    3  C   UNL     1      -0.289  -0.826  -0.064  1.00  0.00    -0.049 A 
HETATM    4  C   UNL     1       1.377   1.753  -0.116  1.00  0.00     0.271 A 
HETATM    5  C   UNL     1       2.915  -0.902   0.112  1.00  0.00     0.237 A 
HETATM    6  C   UNL     1       1.246  -1.853   0.036  1.00  0.00     0.066 A 
HETATM    7  C   UNL     1      -1.442   1.495  -0.204  1.00  0.00     0.009 A 
HETATM    8  C   UNL     1      -1.543  -1.416  -0.077  1.00  0.00     0.007 A 
HETATM    9  C   UNL     1      -2.645   0.781  -0.192  1.00  0.00     0.001 A 
HETATM   10  C   UNL     1      -2.695  -0.623  -0.132  1.00  0.00     0.001 A 
HETATM   11  H   UNL     1       3.267   1.150   0.892  1.00  0.00     0.277 HD
HETATM   12  H   UNL     1       3.228   0.974  -0.888  1.00  0.00     0.277 HD
ENDROOT
TORSDOF 0
