REMARK  3 active torsions:
REMARK  status: ('A' for Active; 'I' for Inactive)
REMARK       I    between atoms: C_1  and  N_2 
REMARK    1  A    between atoms: N_2  and  C_4 
REMARK    2  A    between atoms: C_5  and  C_11 
REMARK    3  A    between atoms: C_11  and  C_12 
ROOT
HETATM    1  C   UNL     1      -1.007   0.708   0.807  1.00  0.00     0.034 A 
HETATM    2  C   UNL     1      -3.818   0.814   1.070  1.00  0.00    -0.058 A 
HETATM    3  C   UNL     1      -1.767  -0.460   0.771  1.00  0.00     0.030 A 
HETATM    4  C   UNL     1      -1.658   1.929   1.021  1.00  0.00     0.030 A 
HETATM    5  C   UNL     1      -3.052   1.982   1.145  1.00  0.00     0.009 A 
HETATM    6  C   UNL     1      -3.159  -0.409   0.903  1.00  0.00     0.009 A 
ENDROOT
BRANCH   1   7
HETATM    7  N   UNL     1       0.394   0.732   0.639  1.00  0.00    -0.328 N 
HETATM    8  C   UNL     1       1.190  -0.306   0.193  1.00  0.00     0.218 C 
HETATM    9  O   UNL     1       0.814  -1.415  -0.179  1.00  0.00    -0.274 OA
HETATM   10  C   UNL     1       2.654   0.050   0.137  1.00  0.00     0.117 C 
HETATM   11  H   UNL     1       0.851   1.575   0.864  1.00  0.00     0.169 HD
ENDBRANCH   1   7
BRANCH   2  12
HETATM   12  C   UNL     1      -5.322   0.852   1.174  1.00  0.00     0.038 C 
BRANCH  12  13
HETATM   13  C   UNL     1      -6.020   1.626   0.050  1.00  0.00     0.000 C 
HETATM   14  C   UNL     1      -5.754   1.058  -1.337  1.00  0.00     0.005 C 
ENDBRANCH  12  13
ENDBRANCH   2  12
TORSDOF 3
