REMARK  2 active torsions:
REMARK  status: ('A' for Active; 'I' for Inactive)
REMARK    1  A    between atoms: C_1  and  N_4 
REMARK    2  A    between atoms: C_2  and  N_5 
ROOT
HETATM    1  C   UNL     1       1.270  -0.744   0.097  1.00  0.00     0.058 A 
HETATM    2  C   UNL     1       0.034  -1.446   0.126  1.00  0.00     0.052 A 
HETATM    3  C   UNL     1       1.260   0.660  -0.060  1.00  0.00    -0.034 A 
HETATM    4  C   UNL     1      -1.173   0.660   0.009  1.00  0.00     0.003 A 
HETATM    5  C   UNL     1      -1.169  -0.731   0.057  1.00  0.00     0.031 A 
HETATM    6  C   UNL     1       0.034   1.348  -0.053  1.00  0.00     0.009 A 
HETATM    7  C   UNL     1       2.501   1.490  -0.264  1.00  0.00     0.050 C 
ENDROOT
BRANCH   1   8
HETATM    8  N   UNL     1       2.485  -1.465   0.020  1.00  0.00    -0.397 N 
HETATM    9  H   UNL     1       2.485  -2.443   0.131  1.00  0.00     0.156 HD
HETATM   10  H   UNL     1       3.331  -0.988  -0.144  1.00  0.00     0.156 HD
ENDBRANCH   1   8
BRANCH   2  11
HETATM   11  N   UNL     1      -0.024  -2.849   0.006  1.00  0.00    -0.397 N 
HETATM   12  H   UNL     1       0.803  -3.381   0.050  1.00  0.00     0.156 HD
HETATM   13  H   UNL     1      -0.892  -3.296  -0.122  1.00  0.00     0.156 HD
ENDBRANCH   2  11
TORSDOF 2
