REMARK  2 active torsions:
REMARK  status: ('A' for Active; 'I' for Inactive)
REMARK    1  A    between atoms: C_2  and  O_4 
REMARK    2  A    between atoms: O_4  and  C_5 
ROOT
HETATM    1  C   UNL     1      -0.241   0.674   0.032  1.00  0.00    -0.017 A 
HETATM    2  C   UNL     1       0.856   1.527   0.052  1.00  0.00     0.086 A 
HETATM    3  C   UNL     1      -0.061  -0.712   0.010  1.00  0.00    -0.043 A 
HETATM    4  C   UNL     1       1.214  -1.279  -0.001  1.00  0.00    -0.055 A 
HETATM    5  C   UNL     1       2.139   0.981   0.005  1.00  0.00     0.038 A 
HETATM    6  C   UNL     1       2.314  -0.412  -0.008  1.00  0.00     0.010 A 
HETATM    7  C   UNL     1      -1.688   1.040   0.020  1.00  0.00     0.042 A 
HETATM    8  C   UNL     1      -1.368  -1.438  -0.019  1.00  0.00     0.040 A 
HETATM    9  C   UNL     1      -2.410  -0.315   0.032  1.00  0.00     0.009 A 
HETATM   10  C   UNL     1       1.410  -2.764  -0.011  1.00  0.00     0.049 C 
ENDROOT
BRANCH   2  11
HETATM   11  O   UNL     1       0.610   2.914   0.037  1.00  0.00    -0.279 OA
BRANCH  11  12
HETATM   12  C   UNL     1       1.491   3.817   0.638  1.00  0.00     0.260 C 
HETATM   13  O   UNL     1       2.506   3.554   1.269  1.00  0.00    -0.265 OA
HETATM   14  C   UNL     1       0.995   5.214   0.406  1.00  0.00     0.126 C 
ENDBRANCH  11  12
ENDBRANCH   2  11
TORSDOF 2
