REMARK  2 active torsions:
REMARK  status: ('A' for Active; 'I' for Inactive)
REMARK    1  A    between atoms: N_1  and  C_2 
REMARK    2  A    between atoms: C_3  and  N_5 
ROOT
HETATM    1  C   UNL     1      -2.600   0.120  -1.027  1.00  0.00     0.056 A 
HETATM    2  C   UNL     1      -2.876   1.092  -2.027  1.00  0.00     0.052 A 
HETATM    3  C   UNL     1      -3.595  -0.847  -0.792  1.00  0.00     0.031 A 
HETATM    4  C   UNL     1      -4.142   1.155  -2.631  1.00  0.00     0.031 A 
HETATM    5  C   UNL     1      -4.820  -0.835  -1.468  1.00  0.00     0.002 A 
HETATM    6  C   UNL     1      -5.099   0.178  -2.378  1.00  0.00     0.002 A 
ENDROOT
BRANCH   1   7
HETATM    7  N   UNL     1      -1.370   0.051  -0.389  1.00  0.00    -0.375 N 
HETATM    8  C   UNL     1      -0.808  -1.210   0.113  1.00  0.00     0.149 C 
HETATM    9  C   UNL     1       0.703  -1.197  -0.183  1.00  0.00     0.187 C 
HETATM   10  O   UNL     1       1.357  -0.053   0.399  1.00  0.00    -0.388 OA
HETATM   11  C   UNL     1       0.765   1.174  -0.075  1.00  0.00     0.187 C 
HETATM   12  C   UNL     1      -0.742   1.226   0.243  1.00  0.00     0.149 C 
ENDBRANCH   1   7
BRANCH   2  13
HETATM   13  N   UNL     1      -1.932   2.096  -2.363  1.00  0.00    -0.397 N 
HETATM   14  H   UNL     1      -1.034   2.082  -1.958  1.00  0.00     0.156 HD
HETATM   15  H   UNL     1      -2.174   2.806  -3.000  1.00  0.00     0.156 HD
ENDBRANCH   2  13
TORSDOF 2
