REMARK  4 active torsions:
REMARK  status: ('A' for Active; 'I' for Inactive)
REMARK    1  A    between atoms: C_1  and  C_3 
REMARK    2  A    between atoms: C_3  and  C_10 
REMARK    3  A    between atoms: C_4  and  C_11 
REMARK    4  A    between atoms: C_10  and  C_11 
ROOT
HETATM    1  C   UNL     1      -0.154   2.574  -0.048  1.00  0.00     0.166 C 
HETATM    2  O   UNL     1      -0.761   2.245   0.972  1.00  0.00    -0.292 OA
ENDROOT
BRANCH   1   3
HETATM    3  C   UNL     1      -0.515   2.062  -1.367  1.00  0.00     0.050 A 
HETATM    4  S   UNL     1      -0.089   2.888  -2.808  1.00  0.00    -0.098 SA
HETATM    5  C   UNL     1      -0.957   1.790  -3.782  1.00  0.00     0.050 A 
HETATM    6  C   UNL     1      -1.530   0.783  -3.039  1.00  0.00     0.009 A 
HETATM    7  C   UNL     1      -1.250   0.924  -1.648  1.00  0.00     0.023 A 
ENDBRANCH   1   3
BRANCH   1   8
HETATM    8  C   UNL     1       0.997   3.577   0.042  1.00  0.00     0.095 C 
BRANCH   8   9
HETATM    9  C   UNL     1       1.683   3.569   1.401  1.00  0.00     0.121 C 
BRANCH   9  10
HETATM   10  C   UNL     1       2.202   2.202   1.762  1.00  0.00     0.172 C 
HETATM   11  O   UNL     1       2.240   1.217   1.052  1.00  0.00    -0.648 OA
HETATM   12  O   UNL     1       2.680   2.167   3.021  1.00  0.00    -0.648 OA
ENDBRANCH   9  10
ENDBRANCH   8   9
ENDBRANCH   1   8
TORSDOF 4
