REMARK  1 active torsions:
REMARK  status: ('A' for Active; 'I' for Inactive)
REMARK    1  A    between atoms: C_1  and  C_6 
ROOT
HETATM    1  C   UNL     1       0.738  -1.573  -0.002  1.00  0.00     0.040 A 
HETATM    2  C   UNL     1       1.210  -0.274   0.000  1.00  0.00     0.090 A 
HETATM    3  S   UNL     1      -0.018   0.908  -0.001  1.00  0.00    -0.065 SA
HETATM    4  C   UNL     1      -1.215  -0.279  -0.003  1.00  0.00     0.077 A 
HETATM    5  C   UNL     1      -0.711  -1.552  -0.004  1.00  0.00     0.048 A 
HETATM    6 CL   UNL     1       2.827   0.322   0.005  1.00  0.00    -0.075 Cl
HETATM    7 CL   UNL     1      -2.870   0.173  -0.002  1.00  0.00    -0.076 Cl
ENDROOT
BRANCH   1   8
HETATM    8  C   UNL     1       1.501  -2.829  -0.001  1.00  0.00     0.158 C 
HETATM    9  O   UNL     1       0.900  -3.906  -0.005  1.00  0.00    -0.293 OA
HETATM   10  C   UNL     1       3.006  -2.837   0.004  1.00  0.00     0.097 C 
ENDBRANCH   1   8
TORSDOF 1
