REMARK  3 active torsions:
REMARK  status: ('A' for Active; 'I' for Inactive)
REMARK    1  A    between atoms: O_1  and  C_2 
REMARK    2  A    between atoms: O_1  and  C_4 
REMARK    3  A    between atoms: C_3  and  O_9 
ROOT
HETATM    1  C   UNL     1       0.806   0.123  -0.073  1.00  0.00     0.076 A 
HETATM    2  C   UNL     1      -1.976   0.007  -0.048  1.00  0.00     0.065 A 
HETATM    3  C   UNL     1       0.053   1.291  -0.237  1.00  0.00     0.040 A 
HETATM    4  C   UNL     1       0.155  -1.109   0.036  1.00  0.00     0.040 A 
HETATM    5  C   UNL     1      -1.238  -1.166   0.049  1.00  0.00     0.039 A 
HETATM    6  C   UNL     1      -1.342   1.237  -0.196  1.00  0.00     0.039 A 
ENDROOT
BRANCH   1   7
HETATM    7  O   UNL     1       2.182   0.078  -0.077  1.00  0.00    -0.311 OA
BRANCH   7   8
HETATM    8  C   UNL     1       2.910   1.114   0.460  1.00  0.00     0.076 A 
HETATM    9  C   UNL     1       2.505   1.885   1.554  1.00  0.00     0.037 A 
HETATM   10  C   UNL     1       3.311   2.931   2.007  1.00  0.00     0.003 A 
HETATM   11  C   UNL     1       4.546   3.174   1.407  1.00  0.00     0.000 A 
HETATM   12  C   UNL     1       4.981   2.363   0.359  1.00  0.00     0.003 A 
HETATM   13  C   UNL     1       4.165   1.335  -0.113  1.00  0.00     0.037 A 
ENDBRANCH   7   8
ENDBRANCH   1   7
BRANCH   2  14
HETATM   14  O   UNL     1      -3.335  -0.090   0.003  1.00  0.00    -0.361 OA
HETATM   15  H   UNL     1      -3.741  -0.928   0.104  1.00  0.00     0.217 HD
ENDBRANCH   2  14
TORSDOF 3
