REMARK  3 active torsions:
REMARK  status: ('A' for Active; 'I' for Inactive)
REMARK    1  A    between atoms: C_2  and  C_7 
REMARK    2  A    between atoms: C_6  and  C_9 
REMARK    3  A    between atoms: C_7  and  C_9 
ROOT
HETATM    1  N   UNL     1      -1.470   1.089  -0.235  1.00  0.00    -0.365 N 
HETATM    2  C   UNL     1      -1.565  -1.137  -0.117  1.00  0.00    -0.030 A 
HETATM    3  C   UNL     1      -2.317   0.014  -0.253  1.00  0.00     0.096 A 
HETATM    4  C   UNL     1      -0.192  -0.728  -0.067  1.00  0.00    -0.002 A 
HETATM    5  C   UNL     1      -0.167   0.665  -0.120  1.00  0.00     0.042 A 
HETATM    6  C   UNL     1       1.038  -1.415   0.024  1.00  0.00     0.014 A 
HETATM    7  C   UNL     1       1.019   1.408  -0.067  1.00  0.00     0.030 A 
HETATM    8  C   UNL     1       2.234  -0.690   0.070  1.00  0.00     0.001 A 
HETATM    9  C   UNL     1       2.222   0.702   0.029  1.00  0.00     0.002 A 
HETATM   10  H   UNL     1      -1.753   2.030  -0.294  1.00  0.00     0.165 HD
ENDROOT
BRANCH   2  11
HETATM   11  C   UNL     1      -2.101  -2.535  -0.058  1.00  0.00     0.051 C 
BRANCH  11  12
HETATM   12  C   UNL     1      -1.833  -3.215   1.283  1.00  0.00     0.118 C 
BRANCH  12  13
HETATM   13  C   UNL     1      -2.458  -4.579   1.325  1.00  0.00     0.172 C 
HETATM   14  O   UNL     1      -3.080  -5.140   0.438  1.00  0.00    -0.648 OA
HETATM   15  O   UNL     1      -2.258  -5.191   2.509  1.00  0.00    -0.648 OA
ENDBRANCH  12  13
ENDBRANCH  11  12
ENDBRANCH   2  11
TORSDOF 3
