REMARK  4 active torsions:
REMARK  status: ('A' for Active; 'I' for Inactive)
REMARK    1  A    between atoms: C_3  and  C_4 
REMARK    2  A    between atoms: C_4  and  C_7 
REMARK    3  A    between atoms: O_5  and  C_7 
REMARK    4  A    between atoms: O_5  and  C_9 
ROOT
HETATM    1  N   UNL     1      -0.862   0.128   1.111  1.00  0.00    -0.369 N 
ATOM      2  HN  UNL     1      -1.648   0.226   1.753  1.00  0.00     0.165 HD
HETATM    3  C   UNL     1      -0.590   1.079   0.182  1.00  0.00     0.011 A 
HETATM    4  C   UNL     1      -0.053  -0.953   1.154  1.00  0.00     0.088 A 
HETATM    5  C   UNL     1       0.497   0.978  -0.686  1.00  0.00     0.025 A 
HETATM    6  C   UNL     1       1.033  -1.136   0.316  1.00  0.00     0.017 A 
HETATM    7  C   UNL     1       1.315  -0.147  -0.616  1.00  0.00     0.003 A 
ENDROOT
BRANCH   3   8
HETATM    8  C   UNL     1      -1.511   2.271   0.148  1.00  0.00     0.083 C 
BRANCH   8   9
HETATM    9  C   UNL     1      -2.251   2.461  -1.181  1.00  0.00     0.173 C 
BRANCH   9  10
HETATM   10  O   UNL     1      -3.008   1.333  -1.621  1.00  0.00    -0.391 OA
BRANCH  10  11
HETATM   11  C   UNL     1      -4.110   1.009  -0.777  1.00  0.00     0.163 C 
HETATM   12  C   UNL     1      -4.891  -0.120  -1.423  1.00  0.00     0.033 C 
ENDBRANCH  10  11
ENDBRANCH   9  10
ENDBRANCH   8   9
ENDBRANCH   3   8
TORSDOF 4
