REMARK  1 active torsions:
REMARK  status: ('A' for Active; 'I' for Inactive)
REMARK    1  A    between atoms: C_2  and  C_5 
ROOT
HETATM    1  C   UNL     1      -0.034   0.704   0.026  1.00  0.00     0.103 A 
HETATM    2  C   UNL     1      -2.453   0.730   0.039  1.00  0.00     0.012 A 
HETATM    3  C   UNL     1      -1.233   1.416   0.070  1.00  0.00     0.054 A 
HETATM    4  C   UNL     1      -0.040  -0.691  -0.027  1.00  0.00     0.102 A 
HETATM    5  O   UNL     1       1.117   1.451   0.049  1.00  0.00    -0.346 OA
HETATM    6  O   UNL     1       1.102  -1.448  -0.052  1.00  0.00    -0.346 OA
HETATM    7  C   UNL     1      -2.455  -0.671  -0.031  1.00  0.00     0.018 A 
HETATM    8  C   UNL     1      -1.251  -1.380  -0.067  1.00  0.00     0.040 A 
HETATM    9  C   UNL     1       2.255   0.676  -0.339  1.00  0.00     0.202 C 
HETATM   10  C   UNL     1       2.247  -0.683   0.342  1.00  0.00     0.202 C 
ENDROOT
BRANCH   2  11
HETATM   11  C   UNL     1      -3.762   1.448   0.074  1.00  0.00     0.155 C 
HETATM   12  O   UNL     1      -4.812   0.809   0.048  1.00  0.00    -0.293 OA
HETATM   13  C   UNL     1      -3.765   2.954   0.140  1.00  0.00     0.096 C 
ENDBRANCH   2  11
TORSDOF 1
