REMARK  2 active torsions:
REMARK  status: ('A' for Active; 'I' for Inactive)
REMARK    1  A    between atoms: C_1  and  C_4 
REMARK    2  A    between atoms: C_3  and  O_5 
ROOT
HETATM    1  C   UNL     1       1.208  -0.426  -0.036  1.00  0.00    -0.021 A 
HETATM    2  C   UNL     1       0.620   0.420  -1.007  1.00  0.00     0.074 A 
HETATM    3  C   UNL     1       0.324  -1.055   0.870  1.00  0.00     0.010 A 
HETATM    4  C   UNL     1      -0.778   0.605  -1.038  1.00  0.00     0.037 A 
HETATM    5  C   UNL     1      -1.063  -0.854   0.835  1.00  0.00     0.001 A 
HETATM    6  C   UNL     1      -1.613  -0.017  -0.118  1.00  0.00     0.003 A 
ENDROOT
BRANCH   1   7
HETATM    7  C   UNL     1       2.716  -0.647   0.113  1.00  0.00     0.024 C 
HETATM    8  C   UNL     1       3.386  -1.380  -1.065  1.00  0.00     0.037 C 
HETATM    9  C   UNL     1       3.486  -2.895  -0.913  1.00  0.00     0.233 C 
HETATM   10  N   UNL     1       4.035  -3.304   0.378  1.00  0.00    -0.075 N 
HETATM   11  C   UNL     1       3.255  -2.763   1.483  1.00  0.00     0.233 C 
HETATM   12  H   UNL     1       4.029  -4.322   0.434  1.00  0.00     0.277 HD
HETATM   13  H   UNL     1       4.987  -2.943   0.450  1.00  0.00     0.277 HD
HETATM   14  C   UNL     1       3.225  -1.237   1.449  1.00  0.00     0.037 C 
ENDBRANCH   1   7
BRANCH   2  15
HETATM   15  O   UNL     1       1.221   1.060  -2.059  1.00  0.00    -0.355 OA
HETATM   16  C   UNL     1       2.462   1.718  -1.866  1.00  0.00     0.210 C 
ENDBRANCH   2  15
TORSDOF 2
