REMARK  2 active torsions:
REMARK  status: ('A' for Active; 'I' for Inactive)
REMARK    1  A    between atoms: C_1  and  C_8 
REMARK    2  A    between atoms: C_6  and  O_7 
ROOT
HETATM    1  C   UNL     1      -1.963   0.030   0.210  1.00  0.00     0.093 C 
HETATM    2  C   UNL     1      -1.243  -1.252  -0.240  1.00  0.00     0.016 C 
HETATM    3  C   UNL     1      -1.189   1.286  -0.223  1.00  0.00     0.016 C 
HETATM    4  C   UNL     1       0.222  -1.273   0.185  1.00  0.00     0.032 C 
HETATM    5  C   UNL     1       0.279   1.241   0.188  1.00  0.00     0.032 C 
HETATM    6  C   UNL     1       0.959  -0.032  -0.311  1.00  0.00     0.118 C 
ENDROOT
BRANCH   1   7
HETATM    7  C   UNL     1      -3.417   0.065  -0.277  1.00  0.00     0.391 C 
HETATM    8  F   UNL     1      -3.749  -1.038  -0.981  1.00  0.00    -0.171 F 
HETATM    9  F   UNL     1      -4.263   0.135   0.778  1.00  0.00    -0.171 F 
HETATM   10  F   UNL     1      -3.669   1.135  -1.062  1.00  0.00    -0.171 F 
ENDBRANCH   1   7
BRANCH   6  11
HETATM   11  O   UNL     1       2.311  -0.064   0.131  1.00  0.00    -0.396 OA
HETATM   12  H   UNL     1       2.334  -0.066   1.101  1.00  0.00     0.210 HD
ENDBRANCH   6  11
TORSDOF 2
