REMARK  2 active torsions:
REMARK  status: ('A' for Active; 'I' for Inactive)
REMARK    1  A    between atoms: C_1  and  C_6 
REMARK    2  A    between atoms: C_2  and  C_6 
ROOT
HETATM    1  C   UNL     1       0.710   0.754   1.150  1.00  0.00    -0.030 C 
HETATM    2  C   UNL     1       0.249  -1.521   0.132  1.00  0.00    -0.013 C 
HETATM    3  C   UNL     1      -1.528   0.268   0.059  1.00  0.00    -0.013 C 
HETATM    4  C   UNL     1       0.524   0.480  -1.374  1.00  0.00    -0.013 C 
HETATM    5  C   UNL     1      -0.812   1.017   1.185  1.00  0.00     0.014 C 
HETATM    6  C   UNL     1       1.246   1.228  -0.232  1.00  0.00     0.014 C 
HETATM    7  C   UNL     1       0.974  -0.767   1.258  1.00  0.00     0.014 C 
HETATM    8  C   UNL     1      -0.987   0.753  -1.288  1.00  0.00     0.009 C 
HETATM    9  C   UNL     1      -1.259  -1.237   0.226  1.00  0.00     0.009 C 
HETATM   10  C   UNL     1       0.771  -1.031  -1.226  1.00  0.00     0.009 C 
ENDROOT
BRANCH   1  11
HETATM   11  C   UNL     1       1.412   1.513   2.294  1.00  0.00     0.122 C 
BRANCH  11  12
HETATM   12  C   UNL     1       0.932   1.137   3.669  1.00  0.00     0.173 C 
HETATM   13  O   UNL     1       1.387   0.229   4.354  1.00  0.00    -0.648 OA
HETATM   14  O   UNL     1      -0.142   1.825   4.086  1.00  0.00    -0.648 OA
ENDBRANCH  11  12
ENDBRANCH   1  11
TORSDOF 2
