REMARK  1 active torsions:
REMARK  status: ('A' for Active; 'I' for Inactive)
REMARK    1  A    between atoms: C_7  and  N_8 
ROOT
HETATM    1  C   UNL     1      -0.122  -0.721   0.049  1.00  0.00     0.104 A 
HETATM    2  C   UNL     1      -1.203  -1.531  -0.306  1.00  0.00     0.068 A 
HETATM    3  C   UNL     1      -0.320   0.636   0.302  1.00  0.00     0.102 A 
HETATM    4  O   UNL     1       1.094  -1.331   0.202  1.00  0.00    -0.348 OA
HETATM    5  O   UNL     1       0.687   1.471   0.701  1.00  0.00    -0.348 OA
HETATM    6  C   UNL     1      -1.596   1.184   0.198  1.00  0.00     0.042 A 
HETATM    7  C   UNL     1      -2.491  -0.995  -0.402  1.00  0.00     0.028 A 
HETATM    8  C   UNL     1      -2.667   0.376  -0.191  1.00  0.00     0.032 A 
HETATM    9  C   UNL     1       2.682   0.470  -0.299  1.00  0.00     0.053 C 
HETATM   10  C   UNL     1       2.051  -0.844  -0.740  1.00  0.00     0.178 C 
HETATM   11  C   UNL     1       1.675   1.611  -0.322  1.00  0.00     0.178 C 
ENDROOT
BRANCH   7  12
HETATM   12  N   UNL     1      -3.538  -1.766  -0.922  1.00  0.00    -0.399 N 
HETATM   13  H   UNL     1      -3.412  -2.731  -1.071  1.00  0.00     0.156 HD
HETATM   14  H   UNL     1      -4.400  -1.343  -1.140  1.00  0.00     0.156 HD
ENDBRANCH   7  12
TORSDOF 1
