REMARK  1 active torsions:
REMARK  status: ('A' for Active; 'I' for Inactive)
REMARK    1  A    between atoms: N_7  and  O_11 
ROOT
HETATM    1  N   UNL     1       1.235   2.789  -2.433  1.00  0.00    -0.066 N 
HETATM    2  C   UNL     1       1.904   2.383  -1.146  1.00  0.00     0.193 C 
HETATM    3  C   UNL     1       1.011   4.193  -2.253  1.00  0.00     0.193 C 
HETATM    4  C   UNL     1       0.045   3.875   0.020  1.00  0.00     0.013 C 
HETATM    5  C   UNL     1       0.844   2.534  -0.001  1.00  0.00     0.087 C 
HETATM    6  C   UNL     1      -0.077   4.626  -1.281  1.00  0.00     0.087 C 
HETATM    7  N   UNL     1      -0.365   4.466   1.072  1.00  0.00    -0.277 N 
ATOM      8  HN  UNL     1      -0.274   4.021   1.985  1.00  0.00     0.193 HD
HETATM    9  C   UNL     1       3.042   3.380  -1.006  1.00  0.00     0.036 C 
HETATM   10  C   UNL     1       2.406   4.658  -1.561  1.00  0.00     0.036 C 
HETATM   11  C   UNL     1       1.567   2.655  -3.913  1.00  0.00     0.270 C 
HETATM   12  H   UNL     1       0.590   1.999  -2.442  1.00  0.00     0.280 HD
ENDROOT
BRANCH   7  13
HETATM   13  O   UNL     1      -0.914   5.672   0.959  1.00  0.00    -0.290 OA
HETATM   14  H   UNL     1      -1.220   6.121   1.722  1.00  0.00     0.244 HD
ENDBRANCH   7  13
TORSDOF 1
