REMARK  3 active torsions:
REMARK  status: ('A' for Active; 'I' for Inactive)
REMARK    1  A    between atoms: C_3  and  C_6 
REMARK    2  A    between atoms: C_6  and  C_10 
REMARK    3  A    between atoms: O_7  and  C_10 
ROOT
HETATM    1  N   UNL     1      -1.524   1.077  -0.122  1.00  0.00    -0.365 N 
HETATM    2  C   UNL     1      -2.360  -0.008  -0.140  1.00  0.00     0.096 A 
HETATM    3  C   UNL     1      -1.588  -1.152  -0.079  1.00  0.00    -0.028 A 
HETATM    4  C   UNL     1      -0.219  -0.726  -0.039  1.00  0.00    -0.002 A 
HETATM    5  C   UNL     1      -0.211   0.669  -0.068  1.00  0.00     0.042 A 
HETATM    6  C   UNL     1       1.018  -1.403   0.013  1.00  0.00     0.014 A 
HETATM    7  C   UNL     1       0.968   1.420  -0.041  1.00  0.00     0.030 A 
HETATM    8  C   UNL     1       2.207  -0.668   0.032  1.00  0.00     0.001 A 
HETATM    9  C   UNL     1       2.181   0.725   0.007  1.00  0.00     0.002 A 
HETATM   10  H   UNL     1      -1.821   2.015  -0.146  1.00  0.00     0.165 HD
ENDROOT
BRANCH   3  11
HETATM   11  C   UNL     1      -2.082  -2.567  -0.056  1.00  0.00     0.067 C 
BRANCH  11  12
HETATM   12  C   UNL     1      -2.223  -3.179  -1.450  1.00  0.00     0.168 C 
BRANCH  12  13
HETATM   13  O   UNL     1      -0.968  -3.290  -2.115  1.00  0.00    -0.401 OA
HETATM   14  H   UNL     1      -1.101  -3.681  -2.993  1.00  0.00     0.209 HD
ENDBRANCH  12  13
ENDBRANCH  11  12
ENDBRANCH   3  11
TORSDOF 3
