REMARK  1 active torsions:
REMARK  status: ('A' for Active; 'I' for Inactive)
REMARK    1  A    between atoms: C_1  and  C_6 
ROOT
HETATM    1  C   UNL     1      -0.758   1.953  -0.057  1.00  0.00     0.128 A 
HETATM    2  C   UNL     1       0.357   0.942  -0.024  1.00  0.00    -0.029 A 
HETATM    3  C   UNL     1      -1.567  -0.333  -0.053  1.00  0.00     0.161 A 
HETATM    4  C   UNL     1      -0.112  -0.366  -0.041  1.00  0.00     0.017 A 
HETATM    5  C   UNL     1      -2.043   1.098  -0.026  1.00  0.00     0.104 A 
HETATM    6  O   UNL     1      -2.274  -1.325  -0.057  1.00  0.00    -0.292 OA
HETATM    7  C   UNL     1       1.723   1.180   0.013  1.00  0.00     0.009 A 
HETATM    8  C   UNL     1       0.726  -1.466  -0.032  1.00  0.00     0.016 A 
HETATM    9  C   UNL     1       2.595   0.086   0.023  1.00  0.00     0.001 A 
HETATM   10  C   UNL     1       2.100  -1.229  -0.001  1.00  0.00     0.001 A 
ENDROOT
BRANCH   1  11
HETATM   11  C   UNL     1      -0.723   2.844  -1.279  1.00  0.00     0.182 C 
HETATM   12  O   UNL     1       0.107   2.850  -2.175  1.00  0.00    -0.647 OA
HETATM   13  O   UNL     1      -1.730   3.743  -1.300  1.00  0.00    -0.647 OA
ENDBRANCH   1  11
TORSDOF 1
