REMARK  1 active torsions:
REMARK  status: ('A' for Active; 'I' for Inactive)
REMARK    1  A    between atoms: C_3  and  N_7 
ROOT
HETATM    1  N   UNL     1      -1.059  -1.017   0.038  1.00  0.00    -0.342 N 
ATOM      2  HN  UNL     1      -1.256  -2.018   0.036  1.00  0.00     0.167 HD
HETATM    3  C   UNL     1      -2.059  -0.120   0.073  1.00  0.00     0.099 A 
HETATM    4  C   UNL     1       0.208  -0.564   0.005  1.00  0.00     0.043 A 
HETATM    5  C   UNL     1       0.521   0.812  -0.000  1.00  0.00    -0.009 A 
HETATM    6  C   UNL     1      -0.540   1.721   0.028  1.00  0.00     0.017 A 
HETATM    7  C   UNL     1      -1.847   1.248   0.073  1.00  0.00     0.049 A 
HETATM    8  C   UNL     1       1.261  -1.471  -0.018  1.00  0.00     0.030 A 
HETATM    9  C   UNL     1       1.860   1.238  -0.024  1.00  0.00     0.013 A 
HETATM   10  C   UNL     1       2.595  -1.052  -0.037  1.00  0.00     0.002 A 
HETATM   11  C   UNL     1       2.895   0.305  -0.039  1.00  0.00     0.001 A 
ENDROOT
BRANCH   3  12
HETATM   12  N   UNL     1      -3.352  -0.631   0.165  1.00  0.00    -0.385 N 
HETATM   13  H   UNL     1      -3.498  -1.605   0.164  1.00  0.00     0.157 HD
HETATM   14  H   UNL     1      -4.120  -0.018   0.231  1.00  0.00     0.157 HD
ENDBRANCH   3  12
TORSDOF 1
