REMARK  2 active torsions:
REMARK  status: ('A' for Active; 'I' for Inactive)
REMARK    1  A    between atoms: C_3  and  C_7 
REMARK    2  A    between atoms: O_6  and  C_7 
ROOT
HETATM    1  N   UNL     1       0.080   0.738  -0.381  1.00  0.00    -0.066 N 
HETATM    2  C   UNL     1       0.053  -0.637   0.159  1.00  0.00     0.194 C 
HETATM    3  C   UNL     1      -1.191  -1.401  -0.352  1.00  0.00     0.040 C 
HETATM    4  C   UNL     1      -1.144   1.499  -0.053  1.00  0.00     0.235 C 
HETATM    5  C   UNL     1       1.252   1.483   0.121  1.00  0.00     0.235 C 
HETATM    6  C   UNL     1      -2.475   0.764  -0.259  1.00  0.00     0.028 C 
HETATM    7  C   UNL     1      -2.434  -0.688   0.201  1.00  0.00     0.010 C 
HETATM    8  C   UNL     1       1.346  -1.399  -0.157  1.00  0.00     0.034 C 
HETATM    9  C   UNL     1       2.571   0.776  -0.187  1.00  0.00     0.028 C 
HETATM   10  C   UNL     1       2.574  -0.650   0.349  1.00  0.00     0.004 C 
HETATM   11  H   UNL     1       0.139   0.641  -1.395  1.00  0.00     0.280 HD
ENDROOT
BRANCH   3  12
HETATM   12  C   UNL     1      -1.248  -1.544  -1.884  1.00  0.00     0.170 C 
BRANCH  12  13
HETATM   13  O   UNL     1      -2.405  -2.299  -2.238  1.00  0.00    -0.400 OA
HETATM   14  H   UNL     1      -2.446  -2.393  -3.203  1.00  0.00     0.209 HD
ENDBRANCH  12  13
ENDBRANCH   3  12
TORSDOF 2
