REMARK  3 active torsions:
REMARK  status: ('A' for Active; 'I' for Inactive)
REMARK    1  A    between atoms: C_3  and  C_5 
REMARK    2  A    between atoms: N_4  and  C_7 
REMARK    3  A    between atoms: C_5  and  C_7 
ROOT
HETATM    1  N   UNL     1       0.205   0.967  -1.034  1.00  0.00    -0.369 N 
ATOM      2  HN  UNL     1       0.272   1.661  -1.779  1.00  0.00     0.165 HD
HETATM    3  C   UNL     1      -0.674   1.116  -0.013  1.00  0.00     0.010 A 
HETATM    4  C   UNL     1       0.989  -0.133  -1.030  1.00  0.00     0.088 A 
HETATM    5  C   UNL     1      -0.780   0.185   1.018  1.00  0.00     0.025 A 
HETATM    6  C   UNL     1       0.943  -1.106  -0.048  1.00  0.00     0.017 A 
HETATM    7  C   UNL     1       0.040  -0.941   0.995  1.00  0.00     0.003 A 
ENDROOT
BRANCH   3   8
HETATM    8  C   UNL     1      -1.525   2.362  -0.014  1.00  0.00     0.084 C 
BRANCH   8   9
HETATM    9  C   UNL     1      -2.411   2.443  -1.262  1.00  0.00     0.237 C 
BRANCH   9  10
HETATM   10  N   UNL     1      -3.271   3.636  -1.211  1.00  0.00    -0.079 N 
HETATM   11  C   UNL     1      -4.089   3.736  -2.412  1.00  0.00     0.267 C 
HETATM   12  H   UNL     1      -2.685   4.468  -1.136  1.00  0.00     0.276 HD
HETATM   13  H   UNL     1      -3.887   3.561  -0.402  1.00  0.00     0.276 HD
ENDBRANCH   9  10
ENDBRANCH   8   9
ENDBRANCH   3   8
TORSDOF 3
