REMARK  1 active torsions:
REMARK  status: ('A' for Active; 'I' for Inactive)
REMARK    1  A    between atoms: N_1  and  C_7 
ROOT
HETATM    1  N   UNL     1       0.867  -0.716   0.055  1.00  0.00    -0.240 N 
HETATM    2  C   UNL     1      -0.442  -1.173  -0.118  1.00  0.00     0.123 C 
HETATM    3  N   UNL     1       0.891   0.619   0.324  1.00  0.00    -0.297 N 
ATOM      4  HN  UNL     1       1.686   1.180   0.630  1.00  0.00     0.187 HD
HETATM    5  C   UNL     1      -1.237  -0.053  -0.133  1.00  0.00     0.076 C 
HETATM    6  C   UNL     1      -0.362   1.029   0.097  1.00  0.00     0.026 C 
HETATM    7  N   UNL     1      -0.811  -2.480  -0.205  1.00  0.00    -0.384 N 
HETATM    8  C   UNL     1      -0.691   2.475   0.105  1.00  0.00     0.070 C 
HETATM    9  H   UNL     1      -0.126  -3.187  -0.181  1.00  0.00     0.157 HD
HETATM   10  H   UNL     1      -1.762  -2.719  -0.292  1.00  0.00     0.157 HD
ENDROOT
BRANCH   1  11
HETATM   11  C   UNL     1       2.078  -1.454  -0.031  1.00  0.00     0.058 A 
HETATM   12  C   UNL     1       2.173  -2.565  -0.881  1.00  0.00     0.031 A 
HETATM   13  C   UNL     1       3.365  -3.284  -0.959  1.00  0.00     0.002 A 
HETATM   14  C   UNL     1       4.458  -2.906  -0.182  1.00  0.00     0.000 A 
HETATM   15  C   UNL     1       4.372  -1.794   0.656  1.00  0.00     0.002 A 
HETATM   16  C   UNL     1       3.190  -1.052   0.718  1.00  0.00     0.031 A 
ENDBRANCH   1  11
TORSDOF 1
