REMARK  1 active torsions:
REMARK  status: ('A' for Active; 'I' for Inactive)
REMARK    1  A    between atoms: C_1  and  C_2 
ROOT
HETATM    1  C   UNL     1       0.576  -0.473   1.274  1.00  0.00     0.094 C 
HETATM    2  C   UNL     1       0.952  -1.403   4.023  1.00  0.00     0.127 C 
HETATM    3  O   UNL     1       1.404  -1.791   5.098  1.00  0.00    -0.298 OA
HETATM    4  C   UNL     1       0.955  -1.931   1.578  1.00  0.00     0.021 C 
HETATM    5  C   UNL     1       1.143   0.454   2.362  1.00  0.00     0.021 C 
HETATM    6  C   UNL     1       0.492  -2.376   2.960  1.00  0.00     0.079 C 
HETATM    7  C   UNL     1       0.680   0.060   3.758  1.00  0.00     0.079 C 
ENDROOT
BRANCH   1   8
HETATM    8  C   UNL     1       1.033  -0.047  -0.127  1.00  0.00     0.391 C 
HETATM    9  F   UNL     1       1.643  -1.051  -0.793  1.00  0.00    -0.171 F 
HETATM   10  F   UNL     1       1.892   0.994  -0.090  1.00  0.00    -0.171 F 
HETATM   11  F   UNL     1      -0.032   0.337  -0.867  1.00  0.00    -0.171 F 
ENDBRANCH   1   8
TORSDOF 1
