REMARK  3 active torsions:
REMARK  status: ('A' for Active; 'I' for Inactive)
REMARK    1  A    between atoms: N_1  and  C_9 
REMARK    2  A    between atoms: C_9  and  C_16 
REMARK    3  A    between atoms: O_14  and  C_16 
ROOT
HETATM    1  N   UNL     1      -1.182   1.388   0.057  1.00  0.00    -0.370 N 
HETATM    2  C   UNL     1       0.037   0.692   0.015  1.00  0.00     0.038 A 
HETATM    3  C   UNL     1      -2.398   0.667  -0.401  1.00  0.00     0.026 C 
HETATM    4  C   UNL     1       0.074  -0.726  -0.012  1.00  0.00    -0.028 A 
HETATM    5  C   UNL     1      -1.206  -1.549  -0.015  1.00  0.00     0.019 C 
HETATM    6  C   UNL     1      -2.424  -0.688   0.326  1.00  0.00     0.039 C 
HETATM    7  C   UNL     1       1.312  -1.398  -0.092  1.00  0.00     0.010 A 
HETATM    8  C   UNL     1       1.281   1.356   0.001  1.00  0.00     0.036 A 
HETATM    9  C   UNL     1       2.510   0.683  -0.038  1.00  0.00    -0.060 A 
HETATM   10  C   UNL     1       2.522  -0.703  -0.090  1.00  0.00     0.007 A 
HETATM   11  C   UNL     1      -2.367   0.514  -1.938  1.00  0.00     0.038 C 
HETATM   12  C   UNL     1      -3.719   1.386  -0.052  1.00  0.00     0.038 C 
HETATM   13  C   UNL     1      -1.175  -2.750   0.939  1.00  0.00     0.015 C 
HETATM   14  C   UNL     1       3.789   1.469  -0.013  1.00  0.00     0.048 C 
ENDROOT
BRANCH   1  15
HETATM   15  C   UNL     1      -1.241   2.812   0.452  1.00  0.00     0.150 C 
BRANCH  15  16
HETATM   16  C   UNL     1      -1.393   2.984   1.976  1.00  0.00     0.183 C 
BRANCH  16  17
HETATM   17  O   UNL     1      -0.326   2.389   2.709  1.00  0.00    -0.399 OA
HETATM   18  H   UNL     1      -0.470   2.525   3.658  1.00  0.00     0.209 HD
ENDBRANCH  16  17
ENDBRANCH  15  16
ENDBRANCH   1  15
TORSDOF 3
