REMARK  3 active torsions:
REMARK  status: ('A' for Active; 'I' for Inactive)
REMARK    1  A    between atoms: C_1  and  C_4 
REMARK    2  A    between atoms: C_1  and  C_5 
REMARK    3  A    between atoms: C_1  and  N_6 
ROOT
HETATM    1  C   UNL     1       0.073  -0.204   0.392  1.00  0.00     0.266 C 
ENDROOT
BRANCH   1   2
HETATM    2  C   UNL     1       0.933  -1.004   1.358  1.00  0.00     0.044 A 
HETATM    3  N   UNL     1       2.193  -1.372   0.986  1.00  0.00    -0.367 N 
HETATM    4  C   UNL     1       3.004  -2.108   1.789  1.00  0.00     0.088 A 
ATOM      5  HN  UNL     1       2.539  -1.084   0.071  1.00  0.00     0.165 HD
HETATM    6  C   UNL     1       2.564  -2.494   3.054  1.00  0.00     0.017 A 
HETATM    7  C   UNL     1       1.289  -2.118   3.476  1.00  0.00     0.003 A 
HETATM    8  C   UNL     1       0.462  -1.373   2.627  1.00  0.00     0.027 A 
ENDBRANCH   1   2
BRANCH   1   9
HETATM    9  C   UNL     1      -0.121  -0.888  -0.962  1.00  0.00    -0.022 A 
HETATM   10  C   UNL     1       0.312  -2.213  -1.228  1.00  0.00     0.009 A 
HETATM   11  C   UNL     1       0.133  -2.776  -2.493  1.00  0.00     0.001 A 
HETATM   12  C   UNL     1      -0.472  -2.043  -3.511  1.00  0.00     0.000 A 
HETATM   13  C   UNL     1      -0.913  -0.743  -3.267  1.00  0.00     0.001 A 
HETATM   14  C   UNL     1      -0.748  -0.171  -2.002  1.00  0.00     0.009 A 
ENDBRANCH   1   9
BRANCH   1  15
HETATM   15  N   UNL     1       0.666   1.122   0.200  1.00  0.00    -0.066 N 
HETATM   16  H   UNL     1       1.590   1.023  -0.219  1.00  0.00     0.275 HD
HETATM   17  H   UNL     1       0.749   1.590   1.102  1.00  0.00     0.275 HD
HETATM   18  H   UNL     1       0.070   1.674  -0.417  1.00  0.00     0.275 HD
ENDBRANCH   1  15
TORSDOF 3
