REMARK  1 active torsions:
REMARK  status: ('A' for Active; 'I' for Inactive)
REMARK    1  A    between atoms: C_4  and  O_7 
ROOT
HETATM    1  C   UNL     1       0.718   1.266  -0.285  1.00  0.00    -0.048 C 
HETATM    2  C   UNL     1       1.445  -0.011   0.193  1.00  0.00     0.011 C 
HETATM    3  C   UNL     1      -0.749   1.238   0.199  1.00  0.00     0.011 C 
HETATM    4  C   UNL     1      -0.740  -1.290   0.262  1.00  0.00     0.118 C 
HETATM    5  C   UNL     1      -1.486  -0.040  -0.197  1.00  0.00     0.032 C 
HETATM    6  C   UNL     1       0.717  -1.298  -0.195  1.00  0.00     0.032 C 
HETATM    7  C   UNL     1       1.420   2.500   0.312  1.00  0.00     0.015 C 
HETATM    8  C   UNL     1       0.782   1.384  -1.821  1.00  0.00     0.015 C 
ENDROOT
BRANCH   4   9
HETATM    9  O   UNL     1      -1.400  -2.449  -0.239  1.00  0.00    -0.396 OA
HETATM   10  H   UNL     1      -1.390  -2.433  -1.209  1.00  0.00     0.210 HD
ENDBRANCH   4   9
TORSDOF 1
