REMARK  2 active torsions:
REMARK  status: ('A' for Active; 'I' for Inactive)
REMARK    1  A    between atoms: C_2  and  C_6 
REMARK    2  A    between atoms: C_6  and  O_7 
ROOT
HETATM    1  C   UNL     1       0.249  -0.628   0.020  1.00  0.00     0.083 A 
HETATM    2  C   UNL     1      -0.882  -1.428   0.010  1.00  0.00    -0.001 A 
HETATM    3  O   UNL     1       1.542  -1.090   0.089  1.00  0.00    -0.350 OA
HETATM    4  C   UNL     1       0.172   0.761  -0.006  1.00  0.00    -0.022 A 
HETATM    5  C   UNL     1       2.340   0.075  -0.222  1.00  0.00     0.180 C 
HETATM    6  C   UNL     1      -2.122  -0.776  -0.067  1.00  0.00     0.012 A 
HETATM    7  C   UNL     1      -2.205   0.629  -0.096  1.00  0.00     0.001 A 
HETATM    8  C   UNL     1       1.534   1.329   0.108  1.00  0.00     0.068 C 
HETATM    9  C   UNL     1      -1.048   1.408  -0.051  1.00  0.00     0.010 A 
ENDROOT
BRANCH   2  10
HETATM   10  C   UNL     1      -0.788  -2.927   0.073  1.00  0.00     0.205 C 
BRANCH  10  11
HETATM   11  O   UNL     1      -1.489  -3.448   1.199  1.00  0.00    -0.396 OA
HETATM   12  H   UNL     1      -1.099  -3.095   2.014  1.00  0.00     0.209 HD
ENDBRANCH  10  11
ENDBRANCH   2  10
TORSDOF 2
