REMARK  3 active torsions:
REMARK  status: ('A' for Active; 'I' for Inactive)
REMARK    1  A    between atoms: C_1  and  C_8 
REMARK    2  A    between atoms: C_4  and  C_7 
REMARK    3  A    between atoms: C_8  and  O_9 
ROOT
HETATM    1  C   UNL     1      -0.015  -1.299  -0.016  1.00  0.00     0.026 A 
HETATM    2  N   UNL     1      -1.334   0.560  -0.023  1.00  0.00    -0.260 N 
ATOM      3  HN  UNL     1      -2.142   1.182  -0.019  1.00  0.00     0.195 HD
HETATM    4  C   UNL     1      -1.357  -0.785  -0.011  1.00  0.00     0.076 A 
HETATM    5  O   UNL     1      -0.012   0.935  -0.042  1.00  0.00    -0.242 OA
HETATM    6  C   UNL     1       0.775  -0.168  -0.027  1.00  0.00     0.083 A 
HETATM    7  C   UNL     1       2.227   0.085  -0.012  1.00  0.00     0.079 C 
ENDROOT
BRANCH   4   8
HETATM    8  C   UNL     1      -2.635  -1.506   0.031  1.00  0.00    -0.007 A 
HETATM    9  C   UNL     1      -2.775  -2.785  -0.528  1.00  0.00     0.014 A 
HETATM   10  C   UNL     1      -3.984  -3.476  -0.455  1.00  0.00     0.001 A 
HETATM   11  C   UNL     1      -5.082  -2.892   0.161  1.00  0.00     0.000 A 
HETATM   12  C   UNL     1      -4.972  -1.613   0.708  1.00  0.00     0.001 A 
HETATM   13  C   UNL     1      -3.757  -0.925   0.643  1.00  0.00     0.014 A 
ENDBRANCH   4   8
BRANCH   1  14
HETATM   14  C   UNL     1       0.455  -2.707   0.001  1.00  0.00     0.207 C 
BRANCH  14  15
HETATM   15  O   UNL     1      -0.054  -3.438   1.109  1.00  0.00    -0.396 OA
HETATM   16  H   UNL     1       0.255  -3.031   1.934  1.00  0.00     0.209 HD
ENDBRANCH  14  15
ENDBRANCH   1  14
TORSDOF 3
