REMARK  1 active torsions:
REMARK  status: ('A' for Active; 'I' for Inactive)
REMARK    1  A    between atoms: C_1  and  C_2 
ROOT
HETATM    1  C   UNL     1       0.361   0.326   1.211  1.00  0.00     0.041 A 
HETATM    2  C   UNL     1      -0.739  -0.441   1.621  1.00  0.00     0.028 A 
HETATM    3  C   UNL     1      -1.392  -0.072   2.784  1.00  0.00    -0.022 A 
HETATM    4  C   UNL     1      -0.962   1.018   3.525  1.00  0.00     0.075 A 
HETATM    5  O   UNL     1      -1.713   1.249   4.647  1.00  0.00    -0.350 OA
HETATM    6  C   UNL     1       0.784   1.441   1.965  1.00  0.00     0.021 A 
HETATM    7  C   UNL     1       0.122   1.784   3.147  1.00  0.00     0.038 A 
HETATM    8  C   UNL     1      -2.886   0.425   4.444  1.00  0.00     0.180 C 
HETATM    9  C   UNL     1      -2.539  -0.705   3.473  1.00  0.00     0.068 C 
ENDROOT
BRANCH   1  10
HETATM   10  C   UNL     1       1.031  -0.041  -0.062  1.00  0.00     0.209 C 
HETATM   11  O   UNL     1       0.443  -0.551  -0.996  1.00  0.00    -0.644 OA
HETATM   12  O   UNL     1       2.357   0.211  -0.062  1.00  0.00    -0.644 OA
ENDBRANCH   1  10
TORSDOF 1
