REMARK  3 active torsions:
REMARK  status: ('A' for Active; 'I' for Inactive)
REMARK       I    between atoms: N_1  and  C_2 
REMARK    1  A    between atoms: N_1  and  C_3 
REMARK    2  A    between atoms: C_2  and  O_5 
REMARK    3  A    between atoms: O_5  and  C_10 
ROOT
HETATM    1  N   UNL     1       1.384  -0.584   1.659  1.00  0.00    -0.297 N 
HETATM    2  C   UNL     1       0.455  -0.224   0.729  1.00  0.00     0.366 C 
HETATM    3  O   UNL     1       0.823   0.335  -0.300  1.00  0.00    -0.238 OA
HETATM    4  H   UNL     1       2.296  -0.260   1.480  1.00  0.00     0.171 HD
ENDROOT
BRANCH   1   5
HETATM    5  C   UNL     1       1.251  -1.326   2.802  1.00  0.00     0.078 A 
HETATM    6  S   UNL     1       2.620  -1.208   3.809  1.00  0.00    -0.084 SA
HETATM    7  C   UNL     1       1.927  -2.249   4.975  1.00  0.00     0.052 A 
HETATM    8  C   UNL     1       0.699  -2.722   4.568  1.00  0.00     0.010 A 
HETATM    9  C   UNL     1       0.292  -2.168   3.309  1.00  0.00     0.038 A 
ENDBRANCH   1   5
BRANCH   2  10
HETATM   10  O   UNL     1      -0.838  -0.439   1.070  1.00  0.00    -0.294 OA
BRANCH  10  11
HETATM   11  C   UNL     1      -1.892   0.105   0.217  1.00  0.00     0.061 C 
HETATM   12  C   UNL     1      -1.844  -0.502  -1.195  1.00  0.00     0.046 C 
HETATM   13  C   UNL     1      -3.212  -0.295   0.895  1.00  0.00     0.046 C 
HETATM   14  C   UNL     1      -1.834   1.640   0.158  1.00  0.00     0.046 C 
ENDBRANCH  10  11
ENDBRANCH   2  10
TORSDOF 3
