REMARK  1 active torsions:
REMARK  status: ('A' for Active; 'I' for Inactive)
REMARK    1  A    between atoms: C_1  and  C_5 
ROOT
HETATM    1  C   UNL     1       1.672  -1.139  -0.000  1.00  0.00     0.059 A 
HETATM    2  C   UNL     1       0.290  -0.690   0.000  1.00  0.00     0.000 A 
HETATM    3  C   UNL     1       2.545  -0.066   0.001  1.00  0.00     0.069 A 
HETATM    4  S   UNL     1       1.757   1.440   0.001  1.00  0.00    -0.100 SA
HETATM    5  C   UNL     1       0.202   0.707   0.000  1.00  0.00     0.016 A 
HETATM    6  C   UNL     1      -0.929  -1.422  -0.000  1.00  0.00     0.037 A 
HETATM    7  C   UNL     1      -1.039   1.377   0.000  1.00  0.00     0.021 A 
HETATM    8  C   UNL     1      -2.158  -0.757  -0.001  1.00  0.00     0.035 A 
HETATM    9  C   UNL     1      -2.216   0.627  -0.000  1.00  0.00     0.025 A 
HETATM   10 CL   UNL     1      -3.618  -1.670  -0.001  1.00  0.00    -0.084 Cl
ENDROOT
BRANCH   1  11
HETATM   11  C   UNL     1       2.121  -2.524  -0.001  1.00  0.00     0.210 C 
HETATM   12  O   UNL     1       1.402  -3.512  -0.001  1.00  0.00    -0.644 OA
HETATM   13  O   UNL     1       3.466  -2.681  -0.002  1.00  0.00    -0.644 OA
ENDBRANCH   1  11
TORSDOF 1
