REMARK  2 active torsions:
REMARK  status: ('A' for Active; 'I' for Inactive)
REMARK    1  A    between atoms: C_1  and  C_7 
REMARK    2  A    between atoms: C_7  and  O_8 
ROOT
HETATM    1  C   UNL     1      -0.008   1.098  -0.010  1.00  0.00     0.021 A 
HETATM    2  N   UNL     1      -0.702  -1.076  -0.003  1.00  0.00    -0.265 N 
ATOM      3  HN  UNL     1      -1.290  -1.910  -0.001  1.00  0.00     0.194 HD
HETATM    4  O   UNL     1       0.678  -1.030  -0.003  1.00  0.00    -0.242 OA
HETATM    5  C   UNL     1       1.089   0.264  -0.006  1.00  0.00     0.083 A 
HETATM    6  C   UNL     1      -1.109   0.199  -0.006  1.00  0.00     0.039 A 
HETATM    7  C   UNL     1       2.547   0.489  -0.002  1.00  0.00     0.079 C 
HETATM    8  C   UNL     1      -2.558   0.516  -0.007  1.00  0.00     0.071 C 
ENDROOT
BRANCH   1   9
HETATM    9  C   UNL     1      -0.029   2.578  -0.010  1.00  0.00     0.207 C 
BRANCH   9  10
HETATM   10  O   UNL     1      -0.689   3.095  -1.158  1.00  0.00    -0.396 OA
HETATM   11  H   UNL     1      -0.218   2.811  -1.957  1.00  0.00     0.209 HD
ENDBRANCH   9  10
ENDBRANCH   1   9
TORSDOF 2
