REMARK  2 active torsions:
REMARK  status: ('A' for Active; 'I' for Inactive)
REMARK    1  A    between atoms: C_6  and  C_11 
REMARK    2  A    between atoms: N_9  and  C_11 
ROOT
HETATM    1  C   UNL     1       0.080   0.795  -0.335  1.00  0.00    -0.022 A 
HETATM    2  C   UNL     1       0.188  -0.563  -0.386  1.00  0.00     0.075 A 
HETATM    3  O   UNL     1       1.457  -0.965  -0.515  1.00  0.00    -0.350 OA
HETATM    4  C   UNL     1      -1.157   1.428  -0.214  1.00  0.00     0.019 A 
HETATM    5  C   UNL     1      -0.935  -1.385  -0.320  1.00  0.00     0.038 A 
HETATM    6  C   UNL     1      -2.320   0.629  -0.161  1.00  0.00    -0.032 A 
HETATM    7  C   UNL     1      -2.199  -0.781  -0.210  1.00  0.00     0.011 A 
HETATM    8  C   UNL     1       2.300   0.127  -0.650  1.00  0.00     0.180 C 
HETATM    9  C   UNL     1       1.436   1.383  -0.389  1.00  0.00     0.068 C 
ENDROOT
BRANCH   6  10
HETATM   10  C   UNL     1      -3.675   1.279  -0.078  1.00  0.00     0.268 C 
BRANCH  10  11
HETATM   11  N   UNL     1      -3.782   2.097   1.125  1.00  0.00    -0.075 N 
HETATM   12  H   UNL     1      -4.706   2.527   1.163  1.00  0.00     0.274 HD
HETATM   13  H   UNL     1      -3.068   2.826   1.105  1.00  0.00     0.274 HD
HETATM   14  H   UNL     1      -3.646   1.511   1.949  1.00  0.00     0.274 HD
ENDBRANCH  10  11
ENDBRANCH   6  10
TORSDOF 2
