REMARK  2 active torsions:
REMARK  status: ('A' for Active; 'I' for Inactive)
REMARK    1  A    between atoms: C_2  and  C_7 
REMARK    2  A    between atoms: C_7  and  O_8 
ROOT
HETATM    1  C   UNL     1       0.253  -0.705   0.082  1.00  0.00     0.110 A 
HETATM    2  C   UNL     1       1.468  -1.410   0.163  1.00  0.00     0.001 A 
HETATM    3  C   UNL     1       0.260   0.694  -0.065  1.00  0.00     0.102 A 
HETATM    4  O   UNL     1      -0.891  -1.462   0.161  1.00  0.00    -0.348 OA
HETATM    5  O   UNL     1      -0.849   1.504  -0.118  1.00  0.00    -0.348 OA
HETATM    6  C   UNL     1      -2.782   0.032  -0.087  1.00  0.00     0.053 C 
HETATM    7  C   UNL     1       2.676  -0.701   0.050  1.00  0.00     0.012 A 
HETATM    8  C   UNL     1      -1.912  -1.030  -0.735  1.00  0.00     0.178 C 
HETATM    9  C   UNL     1      -1.948   1.049   0.671  1.00  0.00     0.178 C 
HETATM   10  C   UNL     1       2.679   0.680  -0.138  1.00  0.00     0.003 A 
HETATM   11  C   UNL     1       1.473   1.374  -0.198  1.00  0.00     0.040 A 
ENDROOT
BRANCH   2  12
HETATM   12  C   UNL     1       1.517  -2.905   0.350  1.00  0.00     0.205 C 
BRANCH  12  13
HETATM   13  O   UNL     1       2.177  -3.516  -0.754  1.00  0.00    -0.396 OA
HETATM   14  H   UNL     1       1.693  -3.318  -1.571  1.00  0.00     0.209 HD
ENDBRANCH  12  13
ENDBRANCH   2  12
TORSDOF 2
