REMARK  2 active torsions:
REMARK  status: ('A' for Active; 'I' for Inactive)
REMARK    1  A    between atoms: C_7  and  C_12 
REMARK    2  A    between atoms: O_9  and  C_12 
ROOT
HETATM    1  C   UNL     1      -0.031   0.705   0.020  1.00  0.00     0.102 A 
HETATM    2  C   UNL     1      -0.036  -0.691  -0.037  1.00  0.00     0.102 A 
HETATM    3  O   UNL     1       1.120   1.452   0.045  1.00  0.00    -0.346 OA
HETATM    4  C   UNL     1      -1.234   1.410   0.066  1.00  0.00     0.049 A 
HETATM    5  O   UNL     1       1.108  -1.448  -0.052  1.00  0.00    -0.346 OA
HETATM    6  C   UNL     1      -1.244  -1.381  -0.090  1.00  0.00     0.040 A 
HETATM    7  C   UNL     1      -2.457   0.726   0.026  1.00  0.00    -0.032 A 
HETATM    8  C   UNL     1      -2.450  -0.674  -0.057  1.00  0.00     0.012 A 
HETATM    9  C   UNL     1       2.256   0.674  -0.345  1.00  0.00     0.202 C 
HETATM   10  C   UNL     1       2.247  -0.679   0.349  1.00  0.00     0.202 C 
ENDROOT
BRANCH   7  11
HETATM   11  C   UNL     1      -3.761   1.476   0.081  1.00  0.00     0.203 C 
BRANCH  11  12
HETATM   12  O   UNL     1      -4.526   1.234  -1.092  1.00  0.00    -0.396 OA
HETATM   13  H   UNL     1      -5.362   1.724  -1.040  1.00  0.00     0.209 HD
ENDBRANCH  11  12
ENDBRANCH   7  11
TORSDOF 2
