REMARK  2 active torsions:
REMARK  status: ('A' for Active; 'I' for Inactive)
REMARK    1  A    between atoms: C_8  and  C_11 
REMARK    2  A    between atoms: N_10  and  C_11 
ROOT
HETATM    1  C   UNL     1      -0.174   0.684   0.005  1.00  0.00     0.105 A 
HETATM    2  C   UNL     1      -0.189  -0.691  -0.013  1.00  0.00     0.105 A 
HETATM    3  O   UNL     1      -1.426   1.216   0.015  1.00  0.00    -0.323 OA
HETATM    4  O   UNL     1      -1.451  -1.197  -0.011  1.00  0.00    -0.323 OA
HETATM    5  C   UNL     1      -2.227   0.017   0.070  1.00  0.00     0.352 A 
HETATM    6  C   UNL     1       1.005   1.401   0.020  1.00  0.00     0.048 A 
HETATM    7  C   UNL     1       0.974  -1.429  -0.024  1.00  0.00     0.040 A 
HETATM    8  C   UNL     1       2.214   0.686   0.028  1.00  0.00    -0.030 A 
HETATM    9  C   UNL     1       2.184  -0.729  -0.003  1.00  0.00     0.012 A 
ENDROOT
BRANCH   8  10
HETATM   10  C   UNL     1       3.535   1.412   0.070  1.00  0.00     0.268 C 
BRANCH  10  11
HETATM   11  N   UNL     1       4.298   1.052   1.260  1.00  0.00    -0.075 N 
HETATM   12  H   UNL     1       5.184   1.557   1.261  1.00  0.00     0.274 HD
HETATM   13  H   UNL     1       4.479   0.048   1.257  1.00  0.00     0.274 HD
HETATM   14  H   UNL     1       3.765   1.298   2.094  1.00  0.00     0.274 HD
ENDBRANCH  10  11
ENDBRANCH   8  10
TORSDOF 2
