REMARK  2 active torsions:
REMARK  status: ('A' for Active; 'I' for Inactive)
REMARK    1  A    between atoms: C_8  and  C_11 
REMARK    2  A    between atoms: O_10  and  C_11 
ROOT
HETATM    1  C   UNL     1      -0.180  -0.686   0.010  1.00  0.00     0.105 A 
HETATM    2  C   UNL     1      -0.176   0.690   0.014  1.00  0.00     0.105 A 
HETATM    3  O   UNL     1      -1.438  -1.201   0.017  1.00  0.00    -0.323 OA
HETATM    4  O   UNL     1      -1.431   1.211   0.019  1.00  0.00    -0.323 OA
HETATM    5  C   UNL     1      -2.224   0.008   0.084  1.00  0.00     0.352 A 
HETATM    6  C   UNL     1       0.991  -1.417  -0.002  1.00  0.00     0.049 A 
HETATM    7  C   UNL     1       0.997   1.409   0.010  1.00  0.00     0.040 A 
HETATM    8  C   UNL     1       2.209  -0.721  -0.011  1.00  0.00    -0.032 A 
HETATM    9  C   UNL     1       2.201   0.695   0.003  1.00  0.00     0.012 A 
ENDROOT
BRANCH   8  10
HETATM   10  C   UNL     1       3.514  -1.471  -0.026  1.00  0.00     0.203 C 
BRANCH  10  11
HETATM   11  O   UNL     1       4.267  -1.129  -1.183  1.00  0.00    -0.396 OA
HETATM   12  H   UNL     1       5.105  -1.618  -1.181  1.00  0.00     0.209 HD
ENDBRANCH  10  11
ENDBRANCH   8  10
TORSDOF 2
