REMARK  2 active torsions:
REMARK  status: ('A' for Active; 'I' for Inactive)
REMARK    1  A    between atoms: C_2  and  C_6 
REMARK    2  A    between atoms: C_6  and  O_7 
ROOT
HETATM    1  C   UNL     1      -0.016   0.715   0.013  1.00  0.00     0.110 A 
HETATM    2  C   UNL     1      -1.222   1.430   0.050  1.00  0.00     0.001 A 
HETATM    3  C   UNL     1      -0.029  -0.688  -0.036  1.00  0.00     0.102 A 
HETATM    4  O   UNL     1       1.153   1.436   0.036  1.00  0.00    -0.346 OA
HETATM    5  O   UNL     1       1.108  -1.456  -0.052  1.00  0.00    -0.346 OA
HETATM    6  C   UNL     1      -2.432   0.716   0.018  1.00  0.00     0.012 A 
HETATM    7  C   UNL     1      -2.440  -0.679  -0.050  1.00  0.00     0.003 A 
HETATM    8  C   UNL     1      -1.238  -1.380  -0.080  1.00  0.00     0.040 A 
HETATM    9  C   UNL     1       2.280   0.644  -0.354  1.00  0.00     0.202 C 
HETATM   10  C   UNL     1       2.257  -0.702   0.345  1.00  0.00     0.202 C 
ENDROOT
BRANCH   2  11
HETATM   11  C   UNL     1      -1.259   2.933   0.126  1.00  0.00     0.205 C 
BRANCH  11  12
HETATM   12  O   UNL     1      -1.938   3.465  -1.007  1.00  0.00    -0.396 OA
HETATM   13  H   UNL     1      -1.472   3.203  -1.816  1.00  0.00     0.209 HD
ENDBRANCH  11  12
ENDBRANCH   2  11
TORSDOF 2
