REMARK  2 active torsions:
REMARK  status: ('A' for Active; 'I' for Inactive)
REMARK    1  A    between atoms: C_3  and  C_7 
REMARK    2  A    between atoms: C_7  and  O_8 
ROOT
HETATM    1  C   UNL     1      -0.190   0.701   0.032  1.00  0.00     0.113 A 
HETATM    2  O   UNL     1      -1.455   1.205   0.051  1.00  0.00    -0.322 OA
HETATM    3  C   UNL     1       0.982   1.435   0.027  1.00  0.00     0.002 A 
HETATM    4  O   UNL     1      -1.441  -1.205   0.031  1.00  0.00    -0.323 OA
HETATM    5  C   UNL     1      -0.186  -0.678   0.022  1.00  0.00     0.105 A 
HETATM    6  C   UNL     1      -2.238  -0.006   0.080  1.00  0.00     0.352 A 
HETATM    7  C   UNL     1       2.186   0.708   0.016  1.00  0.00     0.012 A 
HETATM    8  C   UNL     1       2.187  -0.698   0.005  1.00  0.00     0.003 A 
HETATM    9  C   UNL     1       0.984  -1.406   0.005  1.00  0.00     0.040 A 
ENDROOT
BRANCH   3  10
HETATM   10  C   UNL     1       0.989   2.933   0.020  1.00  0.00     0.205 C 
BRANCH  10  11
HETATM   11  O   UNL     1       1.645   3.429   1.181  1.00  0.00    -0.396 OA
HETATM   12  H   UNL     1       1.177   3.123   1.974  1.00  0.00     0.209 HD
ENDBRANCH  10  11
ENDBRANCH   3  10
TORSDOF 2
