REMARK  2 active torsions:
REMARK  status: ('A' for Active; 'I' for Inactive)
REMARK    1  A    between atoms: C_8  and  C_11 
REMARK    2  A    between atoms: N_10  and  C_11 
ROOT
HETATM    1  C   UNL     1      -0.177   0.684  -0.006  1.00  0.00     0.105 A 
HETATM    2  C   UNL     1      -0.191  -0.693  -0.018  1.00  0.00     0.105 A 
HETATM    3  O   UNL     1      -1.432   1.211  -0.003  1.00  0.00    -0.323 OA
HETATM    4  O   UNL     1      -1.451  -1.201  -0.014  1.00  0.00    -0.323 OA
HETATM    5  C   UNL     1      -2.229   0.011   0.071  1.00  0.00     0.352 A 
HETATM    6  C   UNL     1       0.998   1.399   0.011  1.00  0.00     0.048 A 
HETATM    7  C   UNL     1       0.973  -1.427  -0.022  1.00  0.00     0.040 A 
HETATM    8  C   UNL     1       2.209   0.688   0.021  1.00  0.00    -0.030 A 
HETATM    9  C   UNL     1       2.181  -0.728   0.003  1.00  0.00     0.012 A 
ENDROOT
BRANCH   8  10
HETATM   10  C   UNL     1       3.532   1.418   0.064  1.00  0.00     0.270 C 
BRANCH  10  11
HETATM   11  N   UNL     1       4.345   1.099  -1.110  1.00  0.00    -0.075 N 
HETATM   12  C   UNL     1       5.620   1.795  -1.066  1.00  0.00     0.267 C 
HETATM   13  H   UNL     1       3.841   1.380  -1.950  1.00  0.00     0.277 HD
HETATM   14  H   UNL     1       4.524   0.095  -1.118  1.00  0.00     0.277 HD
ENDBRANCH  10  11
ENDBRANCH   8  10
TORSDOF 2
