REMARK  2 active torsions:
REMARK  status: ('A' for Active; 'I' for Inactive)
REMARK    1  A    between atoms: C_5  and  C_9 
REMARK    2  A    between atoms: O_7  and  C_9 
ROOT
HETATM    1  O   UNL     1       1.134   1.423   0.086  1.00  0.00    -0.339 OA
HETATM    2  O   UNL     1       1.079  -1.476  -0.050  1.00  0.00    -0.346 OA
HETATM    3  C   UNL     1      -0.028   0.693   0.046  1.00  0.00     0.102 A 
HETATM    4  C   UNL     1      -0.054  -0.704  -0.031  1.00  0.00     0.102 A 
HETATM    5  C   UNL     1       2.271   0.627  -0.302  1.00  0.00     0.176 C 
HETATM    6  C   UNL     1       2.222  -0.731   0.394  1.00  0.00     0.210 C 
HETATM    7  C   UNL     1      -1.222   1.410   0.096  1.00  0.00     0.039 A 
HETATM    8  C   UNL     1      -1.272  -1.377  -0.100  1.00  0.00     0.039 A 
HETATM    9  C   UNL     1      -2.443   0.733   0.042  1.00  0.00     0.003 A 
HETATM   10  C   UNL     1      -2.467  -0.658  -0.061  1.00  0.00     0.003 A 
ENDROOT
BRANCH   5  11
HETATM   11  C   UNL     1       3.534   1.406   0.067  1.00  0.00     0.198 C 
BRANCH  11  12
HETATM   12  O   UNL     1       3.605   1.654   1.469  1.00  0.00    -0.398 OA
HETATM   13  H   UNL     1       4.415   2.148   1.670  1.00  0.00     0.209 HD
ENDBRANCH  11  12
ENDBRANCH   5  11
TORSDOF 2
