REMARK  2 active torsions:
REMARK  status: ('A' for Active; 'I' for Inactive)
REMARK    1  A    between atoms: C_5  and  C_8 
REMARK    2  A    between atoms: N_7  and  C_8 
ROOT
HETATM    1  O   UNL     1       1.130   1.415   0.066  1.00  0.00    -0.339 OA
HETATM    2  O   UNL     1       1.064  -1.487  -0.083  1.00  0.00    -0.346 OA
HETATM    3  C   UNL     1      -0.033   0.686   0.030  1.00  0.00     0.102 A 
HETATM    4  C   UNL     1      -0.064  -0.709  -0.045  1.00  0.00     0.102 A 
HETATM    5  C   UNL     1       2.273   0.616  -0.294  1.00  0.00     0.178 C 
HETATM    6  C   UNL     1       2.211  -0.756   0.372  1.00  0.00     0.210 C 
HETATM    7  C   UNL     1      -1.225   1.408   0.083  1.00  0.00     0.039 A 
HETATM    8  C   UNL     1      -1.285  -1.379  -0.097  1.00  0.00     0.039 A 
HETATM    9  C   UNL     1      -2.448   0.736   0.041  1.00  0.00     0.003 A 
HETATM   10  C   UNL     1      -2.479  -0.657  -0.051  1.00  0.00     0.003 A 
ENDROOT
BRANCH   5  11
HETATM   11  C   UNL     1       3.551   1.385   0.093  1.00  0.00     0.264 C 
BRANCH  11  12
HETATM   12  N   UNL     1       3.667   1.642   1.532  1.00  0.00    -0.077 N 
HETATM   13  H   UNL     1       4.531   2.152   1.718  1.00  0.00     0.274 HD
HETATM   14  H   UNL     1       3.682   0.755   2.036  1.00  0.00     0.274 HD
HETATM   15  H   UNL     1       2.871   2.198   1.844  1.00  0.00     0.274 HD
ENDBRANCH  11  12
ENDBRANCH   5  11
TORSDOF 2
