REMARK  2 active torsions:
REMARK  status: ('A' for Active; 'I' for Inactive)
REMARK    1  A    between atoms: C_2  and  C_6 
REMARK    2  A    between atoms: C_3  and  C_7 
ROOT
HETATM    1  S   UNL     1      -1.005   0.012  -0.053  1.00  0.00    -0.081 SA
HETATM    2  C   UNL     1       0.174   1.252  -0.048  1.00  0.00     0.082 A 
HETATM    3  C   UNL     1       0.173  -1.235   0.014  1.00  0.00     0.032 A 
HETATM    4  C   UNL     1       1.451   0.724  -0.044  1.00  0.00     0.027 A 
HETATM    5  C   UNL     1       1.449  -0.701  -0.029  1.00  0.00     0.023 A 
ENDROOT
BRANCH   3   6
HETATM    6  C   UNL     1      -0.214  -2.650   0.100  1.00  0.00     0.049 A 
HETATM    7  N   UNL     1       0.670  -3.508  -0.469  1.00  0.00    -0.365 N 
HETATM    8  C   UNL     1       0.399  -4.829  -0.373  1.00  0.00     0.088 A 
ATOM      9  HN  UNL     1       1.504  -3.170  -0.949  1.00  0.00     0.165 HD
HETATM   10  C   UNL     1      -0.705  -5.346   0.284  1.00  0.00     0.017 A 
HETATM   11  C   UNL     1      -1.596  -4.454   0.866  1.00  0.00     0.004 A 
HETATM   12  C   UNL     1      -1.353  -3.086   0.771  1.00  0.00     0.031 A 
ENDBRANCH   3   6
BRANCH   2  13
HETATM   13  C   UNL     1      -0.249   2.631  -0.046  1.00  0.00     0.216 C 
HETATM   14  O   UNL     1      -1.384   3.087  -0.056  1.00  0.00    -0.643 OA
HETATM   15  O   UNL     1       0.807   3.475  -0.017  1.00  0.00    -0.643 OA
ENDBRANCH   2  13
TORSDOF 2
