REMARK  1 active torsions:
REMARK  status: ('A' for Active; 'I' for Inactive)
REMARK    1  A    between atoms: C_1  and  C_2 
ROOT
HETATM    1  C   UNL     1      -0.131   1.173  -0.010  1.00  0.00     0.151 A 
HETATM    2  O   UNL     1      -1.034   0.142  -0.012  1.00  0.00    -0.316 OA
HETATM    3  C   UNL     1       1.152   0.650   0.003  1.00  0.00     0.046 A 
HETATM    4  C   UNL     1      -0.327  -1.017  -0.002  1.00  0.00     0.143 A 
HETATM    5  C   UNL     1       1.022  -0.759   0.008  1.00  0.00     0.027 A 
ENDROOT
BRANCH   1   6
HETATM    6  C   UNL     1      -0.623   2.524  -0.021  1.00  0.00     0.234 C 
HETATM    7  O   UNL     1      -1.781   2.918  -0.033  1.00  0.00    -0.642 OA
HETATM    8  O   UNL     1       0.393   3.419  -0.019  1.00  0.00    -0.642 OA
ENDBRANCH   1   6
TORSDOF 1
