REMARK  2 active torsions:
REMARK  status: ('A' for Active; 'I' for Inactive)
REMARK    1  A    between atoms: C_1  and  C_7 
REMARK    2  A    between atoms: N_6  and  C_7 
ROOT
HETATM    1  C   UNL     1       1.112   0.663   0.015  1.00  0.00    -0.009 A 
HETATM    2  O   UNL     1      -1.062   0.056  -0.014  1.00  0.00    -0.334 OA
HETATM    3  C   UNL     1      -0.197   1.102  -0.001  1.00  0.00     0.150 A 
HETATM    4  C   UNL     1       1.026  -0.761   0.007  1.00  0.00     0.035 A 
HETATM    5  C   UNL     1      -0.312  -1.075  -0.007  1.00  0.00     0.142 A 
ENDROOT
BRANCH   1   6
HETATM    6  C   UNL     1       2.339   1.498   0.016  1.00  0.00     0.270 C 
BRANCH   6   7
HETATM    7  N   UNL     1       3.101   1.203   1.221  1.00  0.00    -0.075 N 
HETATM    8  H   UNL     1       3.949   1.771   1.235  1.00  0.00     0.274 HD
HETATM    9  H   UNL     1       3.354   0.215   1.230  1.00  0.00     0.274 HD
HETATM   10  H   UNL     1       2.535   1.417   2.042  1.00  0.00     0.274 HD
ENDBRANCH   6   7
ENDBRANCH   1   6
TORSDOF 2
