REMARK  3 active torsions:
REMARK  status: ('A' for Active; 'I' for Inactive)
REMARK    1  A    between atoms: C_1  and  C_6 
REMARK    2  A    between atoms: C_4  and  C_10 
REMARK    3  A    between atoms: N_9  and  C_10 
ROOT
HETATM    1  C   UNL     1      -0.028   1.269  -0.027  1.00  0.00     0.032 A 
HETATM    2  S   UNL     1      -1.087   0.061   0.492  1.00  0.00    -0.091 SA
HETATM    3  C   UNL     1       1.159   0.673  -0.440  1.00  0.00     0.022 A 
HETATM    4  C   UNL     1      -0.040  -1.222   0.154  1.00  0.00     0.009 A 
HETATM    5  C   UNL     1       1.155  -0.717  -0.330  1.00  0.00     0.017 A 
ENDROOT
BRANCH   1   6
HETATM    6  C   UNL     1      -0.305   2.718  -0.039  1.00  0.00     0.049 A 
HETATM    7  N   UNL     1      -1.276   3.229   0.769  1.00  0.00    -0.365 N 
HETATM    8  C   UNL     1      -1.545   4.562   0.813  1.00  0.00     0.088 A 
ATOM      9  HN  UNL     1      -1.816   2.595   1.357  1.00  0.00     0.165 HD
HETATM   10  C   UNL     1      -0.842   5.447  -0.008  1.00  0.00     0.017 A 
HETATM   11  C   UNL     1       0.139   4.948  -0.864  1.00  0.00     0.004 A 
HETATM   12  C   UNL     1       0.422   3.584  -0.876  1.00  0.00     0.031 A 
ENDBRANCH   1   6
BRANCH   4  13
HETATM   13  C   UNL     1      -0.345  -2.678   0.337  1.00  0.00     0.275 C 
BRANCH  13  14
HETATM   14  N   UNL     1      -0.182  -3.373  -0.938  1.00  0.00    -0.075 N 
HETATM   15  H   UNL     1      -0.389  -4.364  -0.814  1.00  0.00     0.274 HD
HETATM   16  H   UNL     1       0.778  -3.265  -1.265  1.00  0.00     0.274 HD
HETATM   17  H   UNL     1      -0.822  -2.976  -1.626  1.00  0.00     0.274 HD
ENDBRANCH  13  14
ENDBRANCH   4  13
TORSDOF 3
