REMARK  2 active torsions:
REMARK  status: ('A' for Active; 'I' for Inactive)
REMARK    1  A    between atoms: CA_3  and  C_6 
REMARK    2  A    between atoms: O_4  and  C_6 
ROOT
ATOM      1  N   LYS A   1      -1.356  -0.008  -0.037  1.00  0.00    -0.367 N 
ATOM      2  HN  LYS A   1      -2.376  -0.033  -0.048  1.00  0.00     0.165 HD
ATOM      3  CA  LYS A   1      -0.674   1.171  -0.020  1.00  0.00     0.032 A 
ATOM      4  CE  LYS A   1      -0.622  -1.143  -0.038  1.00  0.00     0.088 A 
ATOM      5  CB  LYS A   1       0.716   1.236  -0.004  1.00  0.00     0.027 A 
ATOM      6  CD  LYS A   1       0.762  -1.166  -0.020  1.00  0.00     0.017 A 
ATOM      7  CG  LYS A   1       1.441   0.047  -0.003  1.00  0.00     0.003 A 
ENDROOT
BRANCH   3   8
ATOM      8  C   LYS A   1      -1.495   2.441  -0.013  1.00  0.00     0.220 C 
BRANCH   8   9
ATOM      9  O   LYS A   1      -2.893   2.153  -0.032  1.00  0.00    -0.395 OA
ATOM     10  H   LYS A   1      -3.394   2.983  -0.027  1.00  0.00     0.209 HD
ENDBRANCH   8   9
ENDBRANCH   3   8
TORSDOF 2
