REMARK  2 active torsions:
REMARK  status: ('A' for Active; 'I' for Inactive)
REMARK    1  A    between atoms: C_7  and  C_11 
REMARK    2  A    between atoms: N_9  and  C_11 
ROOT
HETATM    1  N   UNL     1      -1.197   1.369  -0.011  1.00  0.00    -0.365 N 
ATOM      2  HN  UNL     1      -1.204   2.389  -0.017  1.00  0.00     0.165 HD
HETATM    3  C   UNL     1       0.003  -0.725   0.014  1.00  0.00    -0.009 A 
HETATM    4  C   UNL     1      -0.039   0.684  -0.004  1.00  0.00     0.042 A 
HETATM    5  C   UNL     1       1.237  -1.400   0.031  1.00  0.00     0.022 A 
HETATM    6  C   UNL     1       1.167   1.371  -0.013  1.00  0.00     0.031 A 
HETATM    7  C   UNL     1       2.448  -0.693   0.011  1.00  0.00    -0.032 A 
HETATM    8  C   UNL     1       2.398   0.704  -0.010  1.00  0.00     0.011 A 
HETATM    9  C   UNL     1      -2.349   0.665  -0.010  1.00  0.00     0.088 A 
HETATM   10  C   UNL     1      -1.214  -1.420   0.013  1.00  0.00     0.015 A 
HETATM   11  C   UNL     1      -2.411  -0.716  -0.001  1.00  0.00     0.018 A 
ENDROOT
BRANCH   7  12
HETATM   12  C   UNL     1       3.773  -1.420   0.035  1.00  0.00     0.270 C 
BRANCH  12  13
HETATM   13  N   UNL     1       3.952  -2.252  -1.155  1.00  0.00    -0.075 N 
HETATM   14  C   UNL     1       5.219  -2.968  -1.108  1.00  0.00     0.267 C 
HETATM   15  H   UNL     1       3.935  -1.657  -1.983  1.00  0.00     0.277 HD
HETATM   16  H   UNL     1       3.195  -2.935  -1.190  1.00  0.00     0.277 HD
ENDBRANCH  12  13
ENDBRANCH   7  12
TORSDOF 2
