REMARK  1 active torsions:
REMARK  status: ('A' for Active; 'I' for Inactive)
REMARK    1  A    between atoms: CA_3  and  C_4 
ROOT
HETATM    1  N   UNL     1      -1.193   1.389  -0.003  1.00  0.00    -0.350 N 
ATOM      2  HN  UNL     1      -1.197   2.409  -0.004  1.00  0.00     0.166 HD
HETATM    3  CA  UNL     1      -2.355   0.684  -0.001  1.00  0.00     0.110 A 
HETATM    4  C   UNL     1      -0.037   0.700  -0.003  1.00  0.00     0.043 A 
HETATM    5  C   UNL     1      -2.408  -0.703  -0.004  1.00  0.00     0.037 A 
HETATM    6  C   UNL     1       0.006  -0.711  -0.001  1.00  0.00    -0.009 A 
HETATM    7  C   UNL     1      -1.209  -1.407  -0.005  1.00  0.00     0.016 A 
HETATM    8  C   UNL     1       1.171   1.386  -0.006  1.00  0.00     0.030 A 
HETATM    9  C   UNL     1       1.240  -1.388   0.006  1.00  0.00     0.013 A 
HETATM   10  C   UNL     1       2.401   0.718  -0.000  1.00  0.00     0.002 A 
HETATM   11  C   UNL     1       2.435  -0.672   0.008  1.00  0.00     0.001 A 
ENDROOT
BRANCH   3  12
HETATM   12  C   UNL     1      -3.646   1.441   0.007  1.00  0.00     0.226 C 
HETATM   13  O   UNL     1      -4.758   0.939   0.010  1.00  0.00    -0.643 OA
HETATM   14  OXT UNL     1      -3.492   2.780   0.015  1.00  0.00    -0.643 OA
ENDBRANCH   3  12
TORSDOF 1
