REMARK  1 active torsions:
REMARK  status: ('A' for Active; 'I' for Inactive)
REMARK    1  A    between atoms: C_1  and  C_2 
ROOT
HETATM    1  C   UNL     1      -1.167  -1.494  -0.001  1.00  0.00     0.054 A 
HETATM    2  C   UNL     1       0.078  -0.799   0.002  1.00  0.00     0.008 A 
HETATM    3  N   UNL     1      -1.156   1.292  -0.004  1.00  0.00    -0.365 N 
ATOM      4  HN  UNL     1      -1.161   2.312  -0.006  1.00  0.00     0.165 HD
HETATM    5  C   UNL     1       0.001   0.614  -0.001  1.00  0.00     0.043 A 
HETATM    6  C   UNL     1      -2.308   0.601  -0.004  1.00  0.00     0.089 A 
HETATM    7  C   UNL     1      -2.368  -0.772  -0.003  1.00  0.00     0.036 A 
HETATM    8  C   UNL     1       1.375  -1.384   0.009  1.00  0.00     0.015 A 
HETATM    9  C   UNL     1       1.168   1.365  -0.002  1.00  0.00     0.030 A 
HETATM   10  C   UNL     1       2.534  -0.605   0.010  1.00  0.00     0.001 A 
HETATM   11  C   UNL     1       2.430   0.775   0.003  1.00  0.00     0.002 A 
ENDROOT
BRANCH   1  12
HETATM   12  C   UNL     1      -1.249  -2.987  -0.006  1.00  0.00     0.210 C 
HETATM   13  O   UNL     1      -0.337  -3.789  -0.016  1.00  0.00    -0.644 OA
HETATM   14  O   UNL     1      -2.524  -3.429   0.001  1.00  0.00    -0.644 OA
ENDBRANCH   1  12
TORSDOF 1
