REMARK  1 active torsions:
REMARK  status: ('A' for Active; 'I' for Inactive)
REMARK    1  A    between atoms: C_1  and  C_2 
ROOT
HETATM    1  C   UNL     1       0.215   0.543  -1.219  1.00  0.00     0.041 A 
HETATM    2  C   UNL     1      -0.940   1.304  -1.010  1.00  0.00     0.032 A 
HETATM    3  C   UNL     1      -1.656   1.824  -2.102  1.00  0.00    -0.008 A 
HETATM    4  N   UNL     1      -1.871   2.051  -4.496  1.00  0.00    -0.365 N 
ATOM      5  HN  UNL     1      -1.530   1.869  -5.440  1.00  0.00     0.165 HD
HETATM    6  C   UNL     1      -1.217   1.582  -3.422  1.00  0.00     0.042 A 
HETATM    7  C   UNL     1       0.645   0.288  -2.523  1.00  0.00     0.021 A 
HETATM    8  C   UNL     1      -0.071   0.817  -3.604  1.00  0.00     0.031 A 
HETATM    9  C   UNL     1      -2.996   2.772  -4.289  1.00  0.00     0.088 A 
HETATM   10  C   UNL     1      -2.822   2.581  -1.927  1.00  0.00     0.015 A 
HETATM   11  C   UNL     1      -3.506   3.062  -3.037  1.00  0.00     0.018 A 
ENDROOT
BRANCH   1  12
HETATM   12  C   UNL     1       0.911  -0.018  -0.036  1.00  0.00     0.209 C 
HETATM   13  O   UNL     1       0.322  -0.336   0.984  1.00  0.00    -0.644 OA
HETATM   14  O   UNL     1       2.249  -0.103  -0.176  1.00  0.00    -0.644 OA
ENDBRANCH   1  12
TORSDOF 1
