REMARK  1 active torsions:
REMARK  status: ('A' for Active; 'I' for Inactive)
REMARK    1  A    between atoms: C_1  and  C_5 
ROOT
HETATM    1  N   UNL     1      -1.139  -0.054  -3.627  1.00  0.00    -0.375 N 
ATOM      2  HN  UNL     1      -1.628  -0.065  -4.522  1.00  0.00     0.164 HD
HETATM    3  C   UNL     1       0.194  -0.026  -1.182  1.00  0.00     0.043 A 
HETATM    4  C   UNL     1      -1.540   0.746  -2.616  1.00  0.00     0.088 A 
HETATM    5  C   UNL     1      -0.064  -0.839  -3.403  1.00  0.00     0.088 A 
HETATM    6  C   UNL     1       0.632  -0.861  -2.209  1.00  0.00     0.035 A 
HETATM    7  C   UNL     1      -0.913   0.798  -1.384  1.00  0.00     0.035 A 
ENDROOT
BRANCH   3   8
HETATM    8  C   UNL     1       0.928  -0.048   0.103  1.00  0.00     0.209 C 
HETATM    9  O   UNL     1       1.918  -0.713   0.345  1.00  0.00    -0.644 OA
HETATM   10  O   UNL     1       0.380   0.759   1.028  1.00  0.00    -0.644 OA
ENDBRANCH   3   8
TORSDOF 1
