REMARK  1 active torsions:
REMARK  status: ('A' for Active; 'I' for Inactive)
REMARK    1  A    between atoms: C_1  and  C_5 
ROOT
HETATM    1  C   UNK     1       1.152  -1.319  -0.012  1.00  0.00     0.117 A 
HETATM    2  N   UNK     1      -0.240  -1.440  -0.008  1.00  0.00    -0.348 N 
ATOM      3  HN  UNK     1      -0.747  -2.325  -0.010  1.00  0.00     0.166 HD
HETATM    4  C   UNK     1       1.602  -0.010  -0.003  1.00  0.00     0.088 A 
HETATM    5  C   UNK     1      -0.804  -0.251  -0.002  1.00  0.00     0.047 A 
HETATM    6  S   UNK     1       0.282   1.080   0.008  1.00  0.00    -0.086 SA
HETATM    7  C   UNK     1      -2.273  -0.010  -0.009  1.00  0.00     0.076 C 
ENDROOT
BRANCH   1   8
HETATM    8  C   UNK     1       2.052  -2.469  -0.027  1.00  0.00     0.227 C 
HETATM    9  O   UNK     1       3.275  -2.409  -0.031  1.00  0.00    -0.643 OA
HETATM   10  O   UNK     1       1.438  -3.675  -0.041  1.00  0.00    -0.643 OA
ENDBRANCH   1   8
TORSDOF 1
