REMARK  1 active torsions:
REMARK  status: ('A' for Active; 'I' for Inactive)
REMARK    1  A    between atoms: C_9  and  N_10 
ROOT
HETATM    1  N   UNL     1       1.556   1.156   0.051  1.00  0.00    -0.359 N 
ATOM      2  HN  UNL     1       1.772   2.152   0.081  1.00  0.00     0.166 HD
HETATM    3  C   UNL     1       0.222  -0.781  -0.002  1.00  0.00     0.035 A 
HETATM    4  C   UNL     1       2.442   0.187   0.028  1.00  0.00     0.139 A 
HETATM    5  S   UNL     1       1.827  -1.410  -0.009  1.00  0.00    -0.083 SA
HETATM    6  C   UNL     1       0.281   0.613   0.028  1.00  0.00     0.049 A 
HETATM    7  C   UNL     1      -1.002  -1.473  -0.035  1.00  0.00     0.050 A 
HETATM    8  C   UNL     1      -0.925   1.338   0.014  1.00  0.00     0.033 A 
HETATM    9  C   UNL     1      -2.196  -0.740   0.004  1.00  0.00     0.027 A 
HETATM   10  C   UNL     1      -2.147   0.653  -0.022  1.00  0.00     0.031 A 
ENDROOT
BRANCH   9  11
HETATM   11  N   UNL     1      -3.421  -1.399  -0.170  1.00  0.00    -0.399 N 
HETATM   12  H   UNL     1      -3.457  -2.383  -0.152  1.00  0.00     0.156 HD
HETATM   13  H   UNL     1      -4.245  -0.878  -0.310  1.00  0.00     0.156 HD
ENDBRANCH   9  11
TORSDOF 1
