REMARK  2 active torsions:
REMARK  status: ('A' for Active; 'I' for Inactive)
REMARK    1  A    between atoms: C_3  and  C_8 
REMARK    2  A    between atoms: C_8  and  O_9 
ROOT
HETATM    1  S   UNL     1      -1.693  -0.744   0.037  1.00  0.00    -0.074 SA
HETATM    2  C   UNL     1      -0.026  -0.396   0.016  1.00  0.00     0.084 A 
HETATM    3  C   UNL     1      -2.110   0.918   0.031  1.00  0.00     0.009 A 
HETATM    4  C   UNL     1      -0.986   1.721  -0.005  1.00  0.00     0.031 A 
HETATM    5  C   UNL     1       0.234   0.970  -0.003  1.00  0.00    -0.001 A 
HETATM    6  N   UNL     1       0.887  -1.390   0.027  1.00  0.00    -0.360 N 
ATOM      7  HN  UNL     1       0.634  -2.378   0.036  1.00  0.00     0.166 HD
HETATM    8  C   UNL     1       1.588   1.361  -0.008  1.00  0.00     0.015 A 
HETATM    9  C   UNL     1       2.165  -0.957   0.025  1.00  0.00     0.089 A 
HETATM   10  C   UNL     1       2.565   0.368   0.010  1.00  0.00     0.018 A 
ENDROOT
BRANCH   3  11
HETATM   11  C   UNL     1      -3.541   1.331   0.080  1.00  0.00     0.210 C 
BRANCH  11  12
HETATM   12  O   UNL     1      -3.880   1.510   1.448  1.00  0.00    -0.396 OA
HETATM   13  H   UNL     1      -3.734   0.681   1.929  1.00  0.00     0.209 HD
ENDBRANCH  11  12
ENDBRANCH   3  11
TORSDOF 2
