REMARK  2 active torsions:
REMARK  status: ('A' for Active; 'I' for Inactive)
REMARK    1  A    between atoms: C_3  and  C_9 
REMARK    2  A    between atoms: N_8  and  C_9 
ROOT
HETATM    1  S   UNL     1      -1.676  -0.748   0.040  1.00  0.00    -0.074 SA
HETATM    2  C   UNL     1      -0.010  -0.400   0.022  1.00  0.00     0.084 A 
HETATM    3  C   UNL     1      -2.098   0.915   0.033  1.00  0.00     0.011 A 
HETATM    4  C   UNL     1      -0.971   1.716  -0.001  1.00  0.00     0.030 A 
HETATM    5  C   UNL     1       0.250   0.965  -0.001  1.00  0.00    -0.001 A 
HETATM    6  N   UNL     1       0.906  -1.393   0.040  1.00  0.00    -0.360 N 
ATOM      7  HN  UNL     1       0.654  -2.381   0.057  1.00  0.00     0.166 HD
HETATM    8  C   UNL     1       1.605   1.358  -0.010  1.00  0.00     0.015 A 
HETATM    9  C   UNL     1       2.182  -0.960   0.033  1.00  0.00     0.089 A 
HETATM   10  C   UNL     1       2.582   0.365   0.009  1.00  0.00     0.018 A 
ENDROOT
BRANCH   3  11
HETATM   11  C   UNL     1      -3.540   1.329   0.099  1.00  0.00     0.277 C 
BRANCH  11  12
HETATM   12  N   UNL     1      -3.919   2.087  -1.094  1.00  0.00    -0.075 N 
HETATM   13  C   UNL     1      -5.311   2.507  -1.017  1.00  0.00     0.267 C 
HETATM   14  H   UNL     1      -3.791   1.500  -1.918  1.00  0.00     0.277 HD
HETATM   15  H   UNL     1      -3.329   2.917  -1.156  1.00  0.00     0.277 HD
ENDBRANCH  11  12
ENDBRANCH   3  11
TORSDOF 2
