REMARK  1 active torsions:
REMARK  status: ('A' for Active; 'I' for Inactive)
REMARK    1  A    between atoms: C_1  and  C_5 
ROOT
HETATM    1  C   UNL     1      -2.121   0.940   0.025  1.00  0.00     0.084 A 
HETATM    2  S   UNL     1      -1.709  -0.723   0.011  1.00  0.00    -0.065 SA
HETATM    3  C   UNL     1      -0.041  -0.382   0.008  1.00  0.00     0.085 A 
HETATM    4  C   UNL     1      -0.990   1.736   0.002  1.00  0.00     0.040 A 
HETATM    5  C   UNL     1       0.226   0.982   0.002  1.00  0.00    -0.001 A 
HETATM    6  N   UNL     1       0.870  -1.378   0.014  1.00  0.00    -0.360 N 
ATOM      7  HN  UNL     1       0.614  -2.365   0.012  1.00  0.00     0.166 HD
HETATM    8  C   UNL     1       1.581   1.369   0.005  1.00  0.00     0.015 A 
HETATM    9  C   UNL     1       2.149  -0.951   0.023  1.00  0.00     0.089 A 
HETATM   10  C   UNL     1       2.554   0.373   0.019  1.00  0.00     0.018 A 
ENDROOT
BRANCH   1  11
HETATM   11  C   UNL     1      -3.509   1.329   0.061  1.00  0.00     0.216 C 
HETATM   12  O   UNL     1      -4.507   0.625   0.087  1.00  0.00    -0.643 OA
HETATM   13  O   UNL     1      -3.641   2.676   0.076  1.00  0.00    -0.643 OA
ENDBRANCH   1  11
TORSDOF 1
