REMARK  2 active torsions:
REMARK  status: ('A' for Active; 'I' for Inactive)
REMARK    1  A    between atoms: C_4  and  C_7 
REMARK    2  A    between atoms: C_7  and  N_8 
ROOT
HETATM    1  N   UNL     1      -0.938  -1.617   0.237  1.00  0.00    -0.351 N 
ATOM      2  HN  UNL     1      -0.937  -2.636   0.197  1.00  0.00     0.166 HD
HETATM    3  S   UNL     1      -1.699   0.808   0.267  1.00  0.00    -0.073 SA
HETATM    4  C   UNL     1      -2.052  -0.847   0.167  1.00  0.00     0.077 A 
HETATM    5  C   UNL     1       0.175  -0.851   0.367  1.00  0.00     0.050 A 
HETATM    6  C   UNL     1      -0.052   0.516   0.401  1.00  0.00     0.033 A 
HETATM    7  C   UNL     1       1.474  -1.354   0.459  1.00  0.00     0.031 A 
HETATM    8  C   UNL     1       0.987   1.434   0.528  1.00  0.00     0.021 A 
HETATM    9  C   UNL     1       2.299   0.940   0.621  1.00  0.00     0.002 A 
HETATM   10  C   UNL     1       2.541  -0.448   0.586  1.00  0.00     0.002 A 
ENDROOT
BRANCH   4  11
HETATM   11  C   UNL     1      -3.429  -1.411   0.024  1.00  0.00     0.294 C 
BRANCH  11  12
HETATM   12  N   UNL     1      -3.525  -2.190  -1.205  1.00  0.00    -0.074 N 
HETATM   13  H   UNL     1      -3.330  -1.589  -2.005  1.00  0.00     0.274 HD
HETATM   14  H   UNL     1      -4.466  -2.575  -1.291  1.00  0.00     0.274 HD
HETATM   15  H   UNL     1      -2.848  -2.952  -1.179  1.00  0.00     0.274 HD
ENDBRANCH  11  12
ENDBRANCH   4  11
TORSDOF 2
