REMARK  2 active torsions:
REMARK  status: ('A' for Active; 'I' for Inactive)
REMARK    1  A    between atoms: C_4  and  C_7 
REMARK    2  A    between atoms: C_7  and  N_9 
ROOT
HETATM    1  N   UNL     1      -1.964   0.882   0.052  1.00  0.00    -0.300 N 
ATOM      2  HN  UNL     1      -2.943   1.169   0.065  1.00  0.00     0.187 HD
HETATM    3  N   UNL     1      -1.465  -0.369   0.042  1.00  0.00    -0.296 N 
HETATM    4  C   UNL     1      -0.872   1.663   0.041  1.00  0.00     0.064 A 
HETATM    5  C   UNL     1       0.326   0.895   0.049  1.00  0.00     0.018 A 
HETATM    6  C   UNL     1      -0.094  -0.431   0.048  1.00  0.00     0.062 A 
HETATM    7  C   UNL     1      -2.371  -1.491  -0.018  1.00  0.00     0.178 C 
HETATM    8  C   UNL     1       1.705   1.178   0.028  1.00  0.00     0.016 A 
HETATM    9  C   UNL     1       0.805  -1.506   0.033  1.00  0.00     0.032 A 
HETATM   10  C   UNL     1       2.617   0.118   0.009  1.00  0.00     0.001 A 
HETATM   11  C   UNL     1       2.171  -1.203   0.013  1.00  0.00     0.002 A 
ENDROOT
BRANCH   4  12
HETATM   12  C   UNL     1      -1.009   3.154  -0.011  1.00  0.00     0.291 C 
BRANCH  12  13
HETATM   13  N   UNL     1      -0.368   3.726  -1.209  1.00  0.00    -0.074 N 
HETATM   14  C   UNL     1      -1.007   3.265  -2.439  1.00  0.00     0.267 C 
HETATM   15  H   UNL     1       0.614   3.449  -1.222  1.00  0.00     0.277 HD
HETATM   16  H   UNL     1      -0.461   4.741  -1.165  1.00  0.00     0.277 HD
ENDBRANCH  12  13
ENDBRANCH   4  12
TORSDOF 2
