REMARK  2 active torsions:
REMARK  status: ('A' for Active; 'I' for Inactive)
REMARK    1  A    between atoms: C_2  and  C_6 
REMARK    2  A    between atoms: C_6  and  O_7 
ROOT
HETATM    1  O   UNL     1      -1.579   0.948  -0.062  1.00  0.00    -0.312 OA
HETATM    2  C   UNL     1      -2.337  -0.188  -0.050  1.00  0.00     0.078 A 
HETATM    3  C   UNL     1      -1.524  -1.303  -0.024  1.00  0.00     0.049 A 
HETATM    4  C   UNL     1      -0.273   0.555  -0.034  1.00  0.00     0.086 A 
HETATM    5  C   UNL     1      -0.187  -0.832  -0.014  1.00  0.00     0.000 A 
HETATM    6  C   UNL     1       0.831   1.405  -0.029  1.00  0.00     0.038 A 
HETATM    7  C   UNL     1       1.087  -1.428   0.006  1.00  0.00     0.014 A 
HETATM    8  C   UNL     1       2.090   0.793  -0.010  1.00  0.00     0.003 A 
HETATM    9  C   UNL     1       2.218  -0.599   0.006  1.00  0.00     0.001 A 
ENDROOT
BRANCH   2  10
HETATM   10  C   UNL     1      -3.805  -0.008  -0.082  1.00  0.00     0.229 C 
BRANCH  10  11
HETATM   11  O   UNL     1      -4.203   0.025  -1.446  1.00  0.00    -0.394 OA
HETATM   12  H   UNL     1      -3.752   0.755  -1.898  1.00  0.00     0.209 HD
ENDBRANCH  10  11
ENDBRANCH   2  10
TORSDOF 2
