REMARK  2 active torsions:
REMARK  status: ('A' for Active; 'I' for Inactive)
REMARK    1  A    between atoms: C_8  and  C_11 
REMARK    2  A    between atoms: O_10  and  C_11 
ROOT
HETATM    1  C   UNL     1      -0.191  -0.806   0.009  1.00  0.00     0.000 A 
HETATM    2  C   UNL     1      -0.245   0.582  -0.007  1.00  0.00     0.085 A 
HETATM    3  C   UNL     1      -2.318  -0.108  -0.021  1.00  0.00     0.143 A 
HETATM    4  O   UNL     1      -1.539   1.006  -0.023  1.00  0.00    -0.322 OA
HETATM    5  C   UNL     1      -1.542  -1.244   0.001  1.00  0.00     0.039 A 
HETATM    6  C   UNL     1       1.070  -1.426   0.027  1.00  0.00     0.023 A 
HETATM    7  C   UNL     1       0.877   1.407  -0.009  1.00  0.00     0.039 A 
HETATM    8  C   UNL     1       2.235  -0.630   0.021  1.00  0.00    -0.034 A 
HETATM    9  C   UNL     1       2.124   0.770   0.003  1.00  0.00     0.012 A 
ENDROOT
BRANCH   8  10
HETATM   10  C   UNL     1       3.588  -1.293   0.014  1.00  0.00     0.202 C 
BRANCH  10  11
HETATM   11  O   UNL     1       3.750  -2.105   1.169  1.00  0.00    -0.396 OA
HETATM   12  H   UNL     1       4.625  -2.524   1.150  1.00  0.00     0.209 HD
ENDBRANCH  10  11
ENDBRANCH   8  10
TORSDOF 2
