REMARK  2 active torsions:
REMARK  status: ('A' for Active; 'I' for Inactive)
REMARK    1  A    between atoms: C_10  and  C_12 
REMARK    2  A    between atoms: C_12  and  O_13 
ROOT
HETATM    1  C   UNL     1      -0.157  -0.751  -0.008  1.00  0.00     0.067 A 
HETATM    2  S   UNL     1       2.137  -0.008   0.049  1.00  0.00     0.068 SA
HETATM    3  C   UNL     1      -0.151   0.754   0.015  1.00  0.00     0.067 A 
HETATM    4  N   UNL     1       1.073  -1.285   0.009  1.00  0.00    -0.310 N 
ATOM      5  HN  UNL     1       1.309  -2.277  -0.001  1.00  0.00     0.176 HD
HETATM    6  N   UNL     1       1.084   1.278   0.049  1.00  0.00    -0.310 N 
ATOM      7  HN  UNL     1       1.328   2.268   0.071  1.00  0.00     0.176 HD
HETATM    8  C   UNL     1      -1.374  -1.473  -0.044  1.00  0.00     0.041 A 
HETATM    9  C   UNL     1      -1.363   1.483   0.001  1.00  0.00     0.033 A 
HETATM   10  C   UNL     1      -2.563  -0.710  -0.057  1.00  0.00    -0.033 A 
HETATM   11  C   UNL     1      -2.544   0.715  -0.037  1.00  0.00     0.012 A 
ENDROOT
BRANCH  10  12
HETATM   12  C   UNL     1      -3.895  -1.424  -0.104  1.00  0.00     0.203 C 
BRANCH  12  13
HETATM   13  O   UNL     1      -4.672  -1.092   1.038  1.00  0.00    -0.396 OA
HETATM   14  H   UNL     1      -4.201  -1.365   1.840  1.00  0.00     0.209 HD
ENDBRANCH  12  13
ENDBRANCH  10  12
TORSDOF 2
