REMARK  2 active torsions:
REMARK  status: ('A' for Active; 'I' for Inactive)
REMARK    1  A    between atoms: C_4  and  C_7 
REMARK    2  A    between atoms: C_7  and  O_8 
ROOT
HETATM    1  N   UNL     1      -1.575   1.109   0.060  1.00  0.00    -0.342 N 
ATOM      2  HN  UNL     1      -1.908   2.073   0.086  1.00  0.00     0.167 HD
HETATM    3  N   UNL     1      -1.509  -1.110   0.031  1.00  0.00    -0.342 N 
HETATM    4  C   UNL     1      -2.308   0.006   0.033  1.00  0.00     0.106 A 
HETATM    5  C   UNL     1      -0.268   0.678   0.045  1.00  0.00     0.060 A 
HETATM    6  C   UNL     1      -0.198  -0.711   0.028  1.00  0.00     0.060 A 
HETATM    7  C   UNL     1       0.926   1.419   0.031  1.00  0.00     0.032 A 
HETATM    8  C   UNL     1       1.003  -1.423   0.009  1.00  0.00     0.032 A 
HETATM    9  C   UNL     1       2.182  -0.666  -0.003  1.00  0.00     0.002 A 
HETATM   10  C   UNL     1       2.147   0.730   0.007  1.00  0.00     0.002 A 
HETATM   11  H   UNL     1      -1.825  -2.043   0.031  1.00  0.00     0.167 HD
ENDROOT
BRANCH   4  12
HETATM   12  C   UNL     1      -3.795  -0.082  -0.003  1.00  0.00     0.240 C 
BRANCH  12  13
HETATM   13  O   UNL     1      -4.318   1.058  -0.676  1.00  0.00    -0.393 OA
HETATM   14  H   UNL     1      -4.051   1.862  -0.204  1.00  0.00     0.209 HD
ENDBRANCH  12  13
ENDBRANCH   4  12
TORSDOF 2
