REMARK  3 active torsions:
REMARK  status: ('A' for Active; 'I' for Inactive)
REMARK    1  A    between atoms: C_1  and  C_7 
REMARK    2  A    between atoms: CA_2  and  C_8 
REMARK    3  A    between atoms: C_8  and  O_9 
ROOT
HETATM    1  C   UNL     1       0.602  -1.086   0.063  1.00  0.00     0.111 A 
HETATM    2  CA  UNL     1       0.049  -0.326   1.082  1.00  0.00     0.069 A 
HETATM    3  N   UNL     1      -0.854   0.586   0.556  1.00  0.00    -0.346 N 
ATOM      4  HN  UNL     1      -1.409   1.285   1.050  1.00  0.00     0.167 HD
HETATM    5  C   UNL     1      -0.821   0.332  -0.733  1.00  0.00     0.234 A 
HETATM    6  O   UNL     1       0.028  -0.659  -1.109  1.00  0.00    -0.303 OA
ENDROOT
BRANCH   1   7
HETATM    7  C   UNL     1       1.571  -2.168  -0.033  1.00  0.00    -0.000 A 
HETATM    8  C   UNL     1       1.519  -3.088  -1.091  1.00  0.00     0.014 A 
HETATM    9  C   UNL     1       2.407  -4.167  -1.147  1.00  0.00     0.001 A 
HETATM   10  C   UNL     1       3.364  -4.338  -0.149  1.00  0.00     0.000 A 
HETATM   11  C   UNL     1       3.445  -3.421   0.895  1.00  0.00     0.001 A 
HETATM   12  C   UNL     1       2.561  -2.340   0.946  1.00  0.00     0.014 A 
ENDBRANCH   1   7
BRANCH   2  13
HETATM   13  C   UNL     1       0.287  -0.390   2.551  1.00  0.00     0.224 C 
BRANCH  13  14
HETATM   14  O   UNL     1      -0.852   0.033   3.297  1.00  0.00    -0.395 OA
HETATM   15  H   UNL     1      -1.056   0.957   3.080  1.00  0.00     0.209 HD
ENDBRANCH  13  14
ENDBRANCH   2  13
TORSDOF 3
