REMARK  3 active torsions:
REMARK  status: ('A' for Active; 'I' for Inactive)
REMARK    1  A    between atoms: C_1  and  C_5 
REMARK    2  A    between atoms: C_6  and  C_12 
REMARK    3  A    between atoms: C_12  and  N_13 
ROOT
HETATM    1  C   UNL     1       0.177  -1.174  -0.028  1.00  0.00     0.091 A 
HETATM    2  N   UNL     1       1.372  -0.610  -0.008  1.00  0.00    -0.351 N 
ATOM      3  HN  UNL     1       2.255  -1.120   0.013  1.00  0.00     0.166 HD
HETATM    4  S   UNL     1      -1.141  -0.061  -0.062  1.00  0.00    -0.081 SA
HETATM    5  C   UNL     1       1.256   0.779  -0.019  1.00  0.00     0.042 A 
HETATM    6  C   UNL     1      -0.044   1.246  -0.048  1.00  0.00     0.078 A 
ENDROOT
BRANCH   1   7
HETATM    7  C   UNL     1       0.011  -2.612  -0.010  1.00  0.00     0.038 A 
HETATM    8  S   UNL     1      -1.522  -3.391  -0.082  1.00  0.00    -0.099 SA
HETATM    9  C   UNL     1      -0.828  -4.947  -0.000  1.00  0.00     0.050 A 
HETATM   10  C   UNL     1       0.544  -4.896   0.078  1.00  0.00     0.008 A 
HETATM   11  C   UNL     1       1.025  -3.551   0.069  1.00  0.00     0.022 A 
ENDBRANCH   1   7
BRANCH   5  12
HETATM   12  C   UNL     1       2.491   1.620  -0.010  1.00  0.00     0.286 C 
BRANCH  12  13
HETATM   13  N   UNL     1       2.901   1.866  -1.389  1.00  0.00    -0.074 N 
HETATM   14  H   UNL     1       3.087   0.977  -1.853  1.00  0.00     0.274 HD
HETATM   15  H   UNL     1       3.747   2.436  -1.396  1.00  0.00     0.274 HD
HETATM   16  H   UNL     1       2.156   2.358  -1.883  1.00  0.00     0.274 HD
ENDBRANCH  12  13
ENDBRANCH   5  12
TORSDOF 3
