REMARK  2 active torsions:
REMARK  status: ('A' for Active; 'I' for Inactive)
REMARK    1  A    between atoms: C_1  and  C_6 
REMARK    2  A    between atoms: C_6  and  N_9 
ROOT
HETATM    1  C   UNL     1       0.753  -1.303  -0.001  1.00  0.00     0.089 A 
HETATM    2  N   UNL     1       1.077   0.043   0.005  1.00  0.00    -0.293 N 
HETATM    3  N   UNL     1      -0.001   0.859  -0.004  1.00  0.00    -0.303 N 
ATOM      4  HN  UNL     1      -0.010   1.879  -0.005  1.00  0.00     0.186 HD
HETATM    5  C   UNL     1      -0.637  -1.308  -0.016  1.00  0.00     0.060 A 
HETATM    6  C   UNL     1      -1.049   0.036  -0.012  1.00  0.00     0.024 A 
HETATM    7  C   UNL     1       2.359   0.708  -0.054  1.00  0.00     0.178 C 
HETATM    8  C   UNL     1      -2.425   0.583  -0.018  1.00  0.00     0.070 C 
ENDROOT
BRANCH   1   9
HETATM    9  C   UNL     1       1.605  -2.469  -0.001  1.00  0.00     0.122 C 
HETATM   10  S   UNL     1       3.069  -2.569   0.778  1.00  0.00    -0.059 SA
BRANCH   9  11
HETATM   11  N   UNL     1       1.118  -3.580  -0.633  1.00  0.00    -0.388 N 
HETATM   12  H   UNL     1       0.252  -3.540  -1.100  1.00  0.00     0.157 HD
HETATM   13  H   UNL     1       1.632  -4.419  -0.620  1.00  0.00     0.157 HD
ENDBRANCH   9  11
ENDBRANCH   1   9
TORSDOF 2
