REMARK  3 active torsions:
REMARK  status: ('A' for Active; 'I' for Inactive)
REMARK    1  A    between atoms: C_1  and  C_3 
REMARK    2  A    between atoms: C_11  and  C_13 
REMARK    3  A    between atoms: O_12  and  C_13 
ROOT
HETATM    1  C   UNL     1      -0.224   2.676  -0.036  1.00  0.00    -0.019 A 
HETATM    2  C   UNL     1       0.246   3.465  -1.096  1.00  0.00     0.013 A 
HETATM    3  C   UNL     1      -1.026   3.294   0.936  1.00  0.00     0.013 A 
HETATM    4  C   UNL     1      -1.333   4.658   0.862  1.00  0.00     0.010 A 
HETATM    5  C   UNL     1      -0.062   4.827  -1.176  1.00  0.00     0.010 A 
HETATM    6  C   UNL     1      -0.848   5.439  -0.191  1.00  0.00    -0.035 A 
ENDROOT
BRANCH   1   7
HETATM    7  C   UNL     1       0.110   1.239   0.029  1.00  0.00     0.015 A 
HETATM    8  S   UNL     1       0.281   0.438   1.544  1.00  0.00    -0.101 SA
HETATM    9  C   UNL     1       0.623  -1.061   0.807  1.00  0.00     0.050 A 
HETATM   10  C   UNL     1       0.641  -0.968  -0.564  1.00  0.00     0.008 A 
HETATM   11  C   UNL     1       0.353   0.356  -1.011  1.00  0.00     0.020 A 
ENDBRANCH   1   7
BRANCH   6  12
HETATM   12  C   UNL     1      -1.164   6.908  -0.272  1.00  0.00     0.202 C 
BRANCH  12  13
HETATM   13  O   UNL     1       0.033   7.675  -0.236  1.00  0.00    -0.396 OA
HETATM   14  H   UNL     1      -0.186   8.618  -0.289  1.00  0.00     0.209 HD
ENDBRANCH  12  13
ENDBRANCH   6  12
TORSDOF 3
