REMARK  2 active torsions:
REMARK  status: ('A' for Active; 'I' for Inactive)
REMARK    1  A    between atoms: C_4  and  C_7 
REMARK    2  A    between atoms: C_7  and  N_9 
ROOT
HETATM    1  N   UNL     1       1.046   0.064  -0.003  1.00  0.00    -0.299 N 
HETATM    2  N   UNL     1      -0.013   0.901   0.012  1.00  0.00    -0.303 N 
ATOM      3  HN  UNL     1      -0.005   1.921   0.039  1.00  0.00     0.186 HD
HETATM    4  C   UNL     1       0.693  -1.260  -0.036  1.00  0.00     0.055 A 
HETATM    5  C   UNL     1      -0.690  -1.267  -0.042  1.00  0.00     0.054 A 
HETATM    6  C   UNL     1      -1.075   0.090  -0.017  1.00  0.00     0.024 A 
HETATM    7  C   UNL     1       2.369   0.646  -0.001  1.00  0.00     0.177 C 
HETATM    8  C   UNL     1      -2.445   0.655  -0.018  1.00  0.00     0.070 C 
ENDROOT
BRANCH   4   9
HETATM    9  C   UNL     1       1.651  -2.391  -0.034  1.00  0.00     0.288 C 
BRANCH   9  10
HETATM   10  N   UNL     1       2.522  -2.318  -1.196  1.00  0.00    -0.074 N 
HETATM   11  H   UNL     1       1.960  -2.367  -2.046  1.00  0.00     0.274 HD
HETATM   12  H   UNL     1       3.180  -3.097  -1.177  1.00  0.00     0.274 HD
HETATM   13  H   UNL     1       3.037  -1.438  -1.180  1.00  0.00     0.274 HD
ENDBRANCH   9  10
ENDBRANCH   4   9
TORSDOF 2
