REMARK  1 active torsions:
REMARK  status: ('A' for Active; 'I' for Inactive)
REMARK    1  A    between atoms: C_1  and  C_5 
ROOT
HETATM    1  C   UNL     1       0.957  -1.727   0.001  1.00  0.00     0.058 A 
HETATM    2  C   UNL     1       2.080  -0.919   0.001  1.00  0.00     0.069 A 
HETATM    3  C   UNL     1      -0.259  -0.932  -0.004  1.00  0.00    -0.002 A 
HETATM    4  S   UNL     1       1.715   0.740   0.002  1.00  0.00    -0.100 SA
HETATM    5  C   UNL     1       0.022   0.439  -0.000  1.00  0.00     0.016 A 
HETATM    6  C   UNL     1      -1.628  -1.314  -0.009  1.00  0.00     0.014 A 
HETATM    7  C   UNL     1      -0.998   1.411   0.000  1.00  0.00     0.019 A 
HETATM    8  C   UNL     1      -2.645  -0.352  -0.009  1.00  0.00     0.001 A 
HETATM    9  C   UNL     1      -2.331   0.997  -0.004  1.00  0.00     0.001 A 
ENDROOT
BRANCH   1  10
HETATM   10  C   UNL     1       1.033  -3.180   0.005  1.00  0.00     0.210 C 
HETATM   11  O   UNL     1       0.085  -3.953   0.007  1.00  0.00    -0.644 OA
HETATM   12  O   UNL     1       2.294  -3.677   0.008  1.00  0.00    -0.644 OA
ENDBRANCH   1  10
TORSDOF 1
