REMARK  2 active torsions:
REMARK  status: ('A' for Active; 'I' for Inactive)
REMARK    1  A    between atoms: C_2  and  C_6 
REMARK    2  A    between atoms: C_6  and  O_7 
ROOT
HETATM    1  S   UNL     1       1.739   0.749   0.020  1.00  0.00    -0.092 SA
HETATM    2  C   UNL     1       2.117  -0.915   0.004  1.00  0.00     0.007 A 
HETATM    3  C   UNL     1       0.975  -1.688   0.005  1.00  0.00     0.029 A 
HETATM    4  C   UNL     1       0.042   0.453   0.013  1.00  0.00     0.015 A 
HETATM    5  C   UNL     1      -0.233  -0.916   0.007  1.00  0.00    -0.018 A 
HETATM    6  C   UNL     1      -0.989   1.411   0.013  1.00  0.00     0.019 A 
HETATM    7  C   UNL     1      -1.588  -1.327   0.002  1.00  0.00     0.013 A 
HETATM    8  C   UNL     1      -2.317   0.977   0.005  1.00  0.00     0.001 A 
HETATM    9  C   UNL     1      -2.616  -0.379   0.000  1.00  0.00     0.001 A 
ENDROOT
BRANCH   2  10
HETATM   10  C   UNL     1       3.536  -1.371  -0.017  1.00  0.00     0.210 C 
BRANCH  10  11
HETATM   11  O   UNL     1       3.758  -2.133   1.163  1.00  0.00    -0.396 OA
HETATM   12  H   UNL     1       3.579  -1.583   1.941  1.00  0.00     0.209 HD
ENDBRANCH  10  11
ENDBRANCH   2  10
TORSDOF 2
