REMARK  2 active torsions:
REMARK  status: ('A' for Active; 'I' for Inactive)
REMARK    1  A    between atoms: C_6  and  C_8 
REMARK    2  A    between atoms: C_8  and  O_10 
ROOT
HETATM    1  N   UNL     1      -1.190   0.823  -0.031  1.00  0.00    -0.301 N 
ATOM      2  HN  UNL     1      -1.715   1.697  -0.060  1.00  0.00     0.187 HD
HETATM    3  N   UNL     1       0.149   0.657  -0.009  1.00  0.00    -0.301 N 
HETATM    4  C   UNL     1       0.541  -0.658   0.002  1.00  0.00     0.026 A 
HETATM    5  C   UNL     1      -0.628  -1.384   0.014  1.00  0.00     0.055 A 
HETATM    6  C   UNL     1      -1.671  -0.434  -0.005  1.00  0.00     0.051 A 
HETATM    7  C   UNL     1       1.009   1.820   0.014  1.00  0.00     0.177 C 
HETATM    8  C   UNL     1       1.949  -1.124  -0.003  1.00  0.00     0.070 C 
ENDROOT
BRANCH   6   9
HETATM    9  C   UNL     1      -3.139  -0.706  -0.015  1.00  0.00     0.222 C 
BRANCH   9  10
HETATM   10  O   UNL     1      -3.787  -0.168  -1.166  1.00  0.00    -0.395 OA
HETATM   11  H   UNL     1      -3.682   0.796  -1.175  1.00  0.00     0.209 HD
ENDBRANCH   9  10
ENDBRANCH   6   9
TORSDOF 2
