REMARK  4 active torsions:
REMARK  status: ('A' for Active; 'I' for Inactive)
REMARK    1  A    between atoms: N_1  and  C_5 
REMARK    2  A    between atoms: C_4  and  C_10 
REMARK    3  A    between atoms: C_5  and  C_8 
REMARK    4  A    between atoms: O_9  and  C_10 
ROOT
HETATM    1  N   UNL     1      -1.463  -0.129  -0.295  1.00  0.00    -0.063 N 
HETATM    2  O   UNL     1       1.177   0.311   0.927  1.00  0.00    -0.380 OA
HETATM    3  C   UNL     1      -1.024   1.173   0.246  1.00  0.00     0.269 C 
HETATM    4  C   UNL     1       0.501   1.424   0.314  1.00  0.00     0.170 C 
HETATM    5  C   UNL     1       0.854  -0.940   0.313  1.00  0.00     0.196 C 
HETATM    6  C   UNL     1      -0.658  -1.205   0.303  1.00  0.00     0.261 C 
HETATM    7  H   UNL     1      -2.436  -0.249  -0.016  1.00  0.00     0.280 HD
ENDROOT
BRANCH   1   8
HETATM    8  C   UNL     1      -1.558  -0.208  -1.756  1.00  0.00     0.273 C 
BRANCH   8   9
HETATM    9  C   UNL     1      -2.601   0.742  -2.314  1.00  0.00    -0.033 A 
HETATM   10  C   UNL     1      -2.275   1.680  -3.304  1.00  0.00     0.009 A 
HETATM   11  C   UNL     1      -3.218   2.619  -3.726  1.00  0.00     0.001 A 
HETATM   12  C   UNL     1      -4.504   2.612  -3.184  1.00  0.00     0.000 A 
HETATM   13  C   UNL     1      -4.856   1.651  -2.240  1.00  0.00     0.001 A 
HETATM   14  C   UNL     1      -3.913   0.719  -1.812  1.00  0.00     0.009 A 
ENDBRANCH   8   9
ENDBRANCH   1   8
BRANCH   4  15
HETATM   15  C   UNL     1       1.179   1.824  -1.006  1.00  0.00     0.197 C 
BRANCH  15  16
HETATM   16  O   UNL     1       0.595   2.975  -1.605  1.00  0.00    -0.398 OA
HETATM   17  H   UNL     1       1.060   3.181  -2.431  1.00  0.00     0.209 HD
ENDBRANCH  15  16
ENDBRANCH   4  15
TORSDOF 4
