REMARK  2 active torsions:
REMARK  status: ('A' for Active; 'I' for Inactive)
REMARK    1  A    between atoms: C_4  and  C_7 
REMARK    2  A    between atoms: C_7  and  O_9 
ROOT
HETATM    1  N   UNL     1       1.047   0.048  -0.014  1.00  0.00    -0.298 N 
HETATM    2  N   UNL     1      -0.010   0.889  -0.016  1.00  0.00    -0.303 N 
ATOM      3  HN  UNL     1       0.003   1.909  -0.012  1.00  0.00     0.186 HD
HETATM    4  C   UNL     1       0.681  -1.274  -0.028  1.00  0.00     0.053 A 
HETATM    5  C   UNL     1      -0.698  -1.274  -0.033  1.00  0.00     0.055 A 
HETATM    6  C   UNL     1      -1.076   0.085  -0.025  1.00  0.00     0.024 A 
HETATM    7  C   UNL     1       2.374   0.619  -0.018  1.00  0.00     0.177 C 
HETATM    8  C   UNL     1      -2.445   0.652  -0.026  1.00  0.00     0.070 C 
ENDROOT
BRANCH   4   9
HETATM    9  C   UNL     1       1.634  -2.405  -0.013  1.00  0.00     0.222 C 
BRANCH   9  10
HETATM   10  O   UNL     1       2.440  -2.300  -1.175  1.00  0.00    -0.395 OA
HETATM   11  H   UNL     1       1.876  -2.328  -1.963  1.00  0.00     0.209 HD
ENDBRANCH   9  10
ENDBRANCH   4   9
TORSDOF 2
