REMARK  4 active torsions:
REMARK  status: ('A' for Active; 'I' for Inactive)
REMARK    1  A    between atoms: N_1  and  C_5 
REMARK    2  A    between atoms: C_4  and  C_10 
REMARK    3  A    between atoms: C_5  and  C_8 
REMARK    4  A    between atoms: N_9  and  C_10 
ROOT
HETATM    1  N   UNL     1      -1.459  -0.162  -0.309  1.00  0.00    -0.063 N 
HETATM    2  O   UNL     1       1.182   0.364   0.884  1.00  0.00    -0.381 OA
HETATM    3  C   UNL     1      -1.041   1.163   0.193  1.00  0.00     0.268 C 
HETATM    4  C   UNL     1       0.477   1.453   0.251  1.00  0.00     0.172 C 
HETATM    5  C   UNL     1       0.880  -0.906   0.300  1.00  0.00     0.196 C 
HETATM    6  C   UNL     1      -0.625  -1.205   0.308  1.00  0.00     0.261 C 
HETATM    7  H   UNL     1      -2.428  -0.299  -0.018  1.00  0.00     0.280 HD
ENDROOT
BRANCH   1   8
HETATM    8  C   UNL     1      -1.563  -0.277  -1.767  1.00  0.00     0.273 C 
BRANCH   8   9
HETATM    9  C   UNL     1      -2.630   0.634  -2.346  1.00  0.00    -0.033 A 
HETATM   10  C   UNL     1      -2.331   1.542  -3.370  1.00  0.00     0.009 A 
HETATM   11  C   UNL     1      -3.301   2.445  -3.816  1.00  0.00     0.001 A 
HETATM   12  C   UNL     1      -4.580   2.432  -3.267  1.00  0.00     0.000 A 
HETATM   13  C   UNL     1      -4.904   1.499  -2.287  1.00  0.00     0.001 A 
HETATM   14  C   UNL     1      -3.938   0.600  -1.834  1.00  0.00     0.009 A 
ENDBRANCH   8   9
ENDBRANCH   1   8
BRANCH   4  15
HETATM   15  C   UNL     1       1.159   1.832  -1.084  1.00  0.00     0.263 C 
BRANCH  15  16
HETATM   16  N   UNL     1       0.590   2.999  -1.755  1.00  0.00    -0.077 N 
HETATM   17  H   UNL     1       1.098   3.175  -2.621  1.00  0.00     0.274 HD
HETATM   18  H   UNL     1       0.666   3.813  -1.145  1.00  0.00     0.274 HD
HETATM   19  H   UNL     1      -0.393   2.824  -1.966  1.00  0.00     0.274 HD
ENDBRANCH  15  16
ENDBRANCH   4  15
TORSDOF 4
