REMARK  1 active torsions:
REMARK  status: ('A' for Active; 'I' for Inactive)
REMARK    1  A    between atoms: C_1  and  C_5 
ROOT
HETATM    1  C   UNL     1      -1.583  -1.248  -0.014  1.00  0.00     0.068 A 
HETATM    2  C   UNL     1      -2.378  -0.114  -0.029  1.00  0.00     0.107 A 
HETATM    3  C   UNL     1      -0.223  -0.792  -0.006  1.00  0.00     0.009 A 
HETATM    4  N   UNL     1      -1.569   0.987  -0.019  1.00  0.00    -0.364 N 
HETATM    5  C   UNL     1      -0.248   0.605  -0.014  1.00  0.00     0.043 A 
HETATM    6  C   UNL     1       1.034  -1.435   0.002  1.00  0.00     0.015 A 
HETATM    7  C   UNL     1       0.913   1.387  -0.019  1.00  0.00     0.030 A 
HETATM    8  C   UNL     1       2.205  -0.667  -0.010  1.00  0.00     0.001 A 
HETATM    9  C   UNL     1       2.143   0.723  -0.021  1.00  0.00     0.002 A 
HETATM   10  H   UNL     1      -1.885   1.919  -0.016  1.00  0.00     0.165 HD
ENDROOT
BRANCH   1  11
HETATM   11  C   UNL     1      -2.062  -2.617  -0.016  1.00  0.00     0.211 C 
HETATM   12  O   UNL     1      -1.369  -3.625   0.003  1.00  0.00    -0.644 OA
HETATM   13  O   UNL     1      -3.411  -2.736  -0.043  1.00  0.00    -0.644 OA
ENDBRANCH   1  11
TORSDOF 1
