REMARK  3 active torsions:
REMARK  status: ('A' for Active; 'I' for Inactive)
REMARK    1  A    between atoms: C_1  and  C_6 
REMARK    2  A    between atoms: C_5  and  C_11 
REMARK    3  A    between atoms: C_11  and  O_13 
ROOT
HETATM    1  C   UNK     1       0.204  -1.159  -0.025  1.00  0.00     0.086 A 
HETATM    2  N   UNK     1       1.396  -0.588  -0.060  1.00  0.00    -0.351 N 
ATOM      3  HN  UNK     1       2.281  -1.093  -0.106  1.00  0.00     0.166 HD
HETATM    4  S   UNK     1      -1.119  -0.049  -0.023  1.00  0.00    -0.081 SA
HETATM    5  C   UNK     1       1.274   0.799  -0.026  1.00  0.00     0.040 A 
HETATM    6  C   UNK     1      -0.026   1.263  -0.020  1.00  0.00     0.079 A 
ENDROOT
BRANCH   1   7
HETATM    7  C   UNK     1      -0.026  -2.611  -0.029  1.00  0.00     0.013 A 
HETATM    8  C   UNK     1      -1.160  -3.207   0.522  1.00  0.00     0.101 A 
HETATM    9  N   UNK     1      -1.406  -4.542   0.534  1.00  0.00    -0.374 N 
HETATM   10  C   UNK     1      -0.471  -5.336  -0.028  1.00  0.00     0.087 A 
ATOM     11  HN  UNK     1      -2.256  -4.926   0.947  1.00  0.00     0.164 HD
HETATM   12  C   UNK     1       0.698  -4.855  -0.595  1.00  0.00     0.018 A 
HETATM   13  C   UNK     1       0.920  -3.478  -0.588  1.00  0.00     0.017 A 
ENDBRANCH   1   7
BRANCH   5  14
HETATM   14  C   UNK     1       2.514   1.632  -0.016  1.00  0.00     0.221 C 
BRANCH  14  15
HETATM   15  O   UNK     1       3.348   1.342  -1.133  1.00  0.00    -0.395 OA
HETATM   16  H   UNK     1       3.619   0.411  -1.101  1.00  0.00     0.209 HD
ENDBRANCH  14  15
ENDBRANCH   5  14
TORSDOF 3
