REMARK  1 active torsions:
REMARK  status: ('A' for Active; 'I' for Inactive)
REMARK    1  A    between atoms: C_1  and  C_2 
ROOT
HETATM    1  C   UNL     1       0.161   1.315  -0.009  1.00  0.00     0.081 A 
HETATM    2  S   UNL     1      -1.052   0.104  -0.012  1.00  0.00    -0.095 SA
HETATM    3  C   UNL     1       1.426   0.754   0.000  1.00  0.00     0.026 A 
HETATM    4  C   UNL     1       0.107  -1.155  -0.005  1.00  0.00     0.051 A 
HETATM    5  C   UNL     1       1.395  -0.670   0.002  1.00  0.00     0.009 A 
ENDROOT
BRANCH   1   6
HETATM    6  C   UNL     1      -0.223   2.707  -0.015  1.00  0.00     0.216 C 
HETATM    7  O   UNL     1      -1.342   3.199  -0.022  1.00  0.00    -0.643 OA
HETATM    8  O   UNL     1       0.862   3.517  -0.012  1.00  0.00    -0.643 OA
ENDBRANCH   1   6
TORSDOF 1
