REMARK  2 active torsions:
REMARK  status: ('A' for Active; 'I' for Inactive)
REMARK    1  A    between atoms: C_1  and  C_7 
REMARK    2  A    between atoms: C_7  and  N_10 
ROOT
HETATM    1  C   UNL     1      -0.443   1.272   0.034  1.00  0.00     0.015 A 
HETATM    2  N   UNL     1      -0.639  -1.007  -0.016  1.00  0.00    -0.303 N 
ATOM      3  HN  UNL     1      -1.018  -1.954  -0.022  1.00  0.00     0.186 HD
HETATM    4  N   UNL     1       0.651  -0.638  -0.017  1.00  0.00    -0.300 N 
HETATM    5  C   UNL     1       0.832   0.722  -0.003  1.00  0.00     0.034 A 
HETATM    6  C   UNL     1      -1.315   0.147  -0.005  1.00  0.00     0.032 A 
HETATM    7  C   UNL     1       1.652  -1.678  -0.026  1.00  0.00     0.177 C 
HETATM    8  C   UNL     1       2.170   1.365  -0.028  1.00  0.00     0.070 C 
HETATM    9  C   UNL     1      -2.799   0.117  -0.040  1.00  0.00     0.070 C 
ENDROOT
BRANCH   1  10
HETATM   10  C   UNL     1      -0.821   2.710   0.098  1.00  0.00     0.272 C 
BRANCH  10  11
HETATM   11  N   UNL     1      -0.981   3.207  -1.261  1.00  0.00    -0.075 N 
HETATM   12  H   UNL     1      -0.104   3.094  -1.770  1.00  0.00     0.274 HD
HETATM   13  H   UNL     1      -1.234   4.195  -1.234  1.00  0.00     0.274 HD
HETATM   14  H   UNL     1      -1.717   2.680  -1.731  1.00  0.00     0.274 HD
ENDBRANCH  10  11
ENDBRANCH   1  10
TORSDOF 2
