REMARK  3 active torsions:
REMARK  status: ('A' for Active; 'I' for Inactive)
REMARK    1  A    between atoms: N_1  and  C_7 
REMARK    2  A    between atoms: C_5  and  C_8 
REMARK    3  A    between atoms: C_8  and  O_10 
ROOT
HETATM    1  N   UNL     1       1.006  -0.584  -0.065  1.00  0.00    -0.261 N 
HETATM    2  N   UNL     1      -0.243  -1.083  -0.270  1.00  0.00    -0.304 N 
ATOM      3  HN  UNL     1      -0.502  -2.051  -0.462  1.00  0.00     0.186 HD
HETATM    4  C   UNL     1       0.977   0.805   0.028  1.00  0.00     0.040 A 
HETATM    5  C   UNL     1      -0.359   1.175   0.004  1.00  0.00     0.006 A 
HETATM    6  C   UNL     1      -1.053  -0.034  -0.166  1.00  0.00     0.119 A 
HETATM    7  C   UNL     1       2.168   1.703   0.022  1.00  0.00     0.071 C 
ENDROOT
BRANCH   1   8
HETATM    8  C   UNL     1       2.122  -1.464  -0.041  1.00  0.00     0.056 A 
HETATM    9  C   UNL     1       2.072  -2.643  -0.798  1.00  0.00     0.031 A 
HETATM   10  C   UNL     1       3.199  -3.460  -0.888  1.00  0.00     0.002 A 
HETATM   11  C   UNL     1       4.364  -3.127  -0.193  1.00  0.00     0.000 A 
HETATM   12  C   UNL     1       4.391  -1.998   0.620  1.00  0.00     0.002 A 
HETATM   13  C   UNL     1       3.272  -1.168   0.701  1.00  0.00     0.031 A 
ENDBRANCH   1   8
BRANCH   5  14
HETATM   14  C   UNL     1      -0.930   2.546   0.064  1.00  0.00     0.206 C 
BRANCH  14  15
HETATM   15  O   UNL     1      -0.525   3.232   1.241  1.00  0.00    -0.396 OA
HETATM   16  H   UNL     1      -0.841   2.750   2.022  1.00  0.00     0.209 HD
ENDBRANCH  14  15
ENDBRANCH   5  14
TORSDOF 3
