REMARK  3 active torsions:
REMARK  status: ('A' for Active; 'I' for Inactive)
REMARK    1  A    between atoms: C_3  and  C_7 
REMARK    2  A    between atoms: C_5  and  C_8 
REMARK    3  A    between atoms: C_8  and  N_9 
ROOT
HETATM    1  N   UNL     1       1.406  -0.581  -0.018  1.00  0.00    -0.351 N 
ATOM      2  HN  UNL     1       2.291  -1.088   0.001  1.00  0.00     0.166 HD
HETATM    3  C   UNL     1       0.213  -1.147  -0.052  1.00  0.00     0.084 A 
HETATM    4  S   UNL     1      -1.110  -0.037  -0.018  1.00  0.00    -0.081 SA
HETATM    5  C   UNL     1       1.284   0.806  -0.012  1.00  0.00     0.042 A 
HETATM    6  C   UNL     1      -0.016   1.270  -0.009  1.00  0.00     0.078 A 
ENDROOT
BRANCH   3   7
HETATM    7  C   UNL     1      -0.032  -2.599  -0.056  1.00  0.00    -0.002 A 
HETATM    8  C   UNL     1       0.868  -3.463   0.584  1.00  0.00     0.014 A 
HETATM    9  C   UNL     1       0.632  -4.842   0.625  1.00  0.00     0.001 A 
HETATM   10  C   UNL     1      -0.500  -5.375   0.014  1.00  0.00     0.000 A 
HETATM   11  C   UNL     1      -1.392  -4.537  -0.648  1.00  0.00     0.001 A 
HETATM   12  C   UNL     1      -1.157  -3.161  -0.687  1.00  0.00     0.014 A 
ENDBRANCH   3   7
BRANCH   5  13
HETATM   13  C   UNL     1       2.515   1.653  -0.014  1.00  0.00     0.286 C 
BRANCH  13  14
HETATM   14  N   UNL     1       2.893   1.931  -1.398  1.00  0.00    -0.074 N 
HETATM   15  H   UNL     1       3.072   1.052  -1.884  1.00  0.00     0.274 HD
HETATM   16  H   UNL     1       3.736   2.505  -1.411  1.00  0.00     0.274 HD
HETATM   17  H   UNL     1       2.135   2.429  -1.864  1.00  0.00     0.274 HD
ENDBRANCH  13  14
ENDBRANCH   5  13
TORSDOF 3
