REMARK  2 active torsions:
REMARK  status: ('A' for Active; 'I' for Inactive)
REMARK    1  A    between atoms: N_1  and  C_4 
REMARK    2  A    between atoms: C_10  and  N_11 
ROOT
HETATM    1  C   UNL     1      -0.760  -2.443   0.019  1.00  0.00     0.056 A 
HETATM    2  C   UNL     1      -0.269  -3.318   0.998  1.00  0.00     0.034 A 
HETATM    3  C   UNL     1      -1.662  -2.928  -0.935  1.00  0.00     0.034 A 
HETATM    4  C   UNL     1      -1.537  -5.157   0.036  1.00  0.00     0.025 A 
HETATM    5  C   UNL     1      -0.679  -4.657   1.017  1.00  0.00     0.031 A 
HETATM    6  C   UNL     1      -2.057  -4.271  -0.909  1.00  0.00     0.031 A 
ENDROOT
BRANCH   1   7
HETATM    7  N   UNL     1      -0.352  -1.080   0.024  1.00  0.00    -0.268 N 
HETATM    8  N   UNL     1       0.560  -0.621   0.923  1.00  0.00    -0.305 N 
HETATM    9  C   UNL     1       0.706   0.671   0.631  1.00  0.00     0.109 A 
ATOM     10  HN  UNL     1       1.029  -1.149   1.659  1.00  0.00     0.186 HD
HETATM   11  C   UNL     1      -0.101   1.075  -0.440  1.00  0.00     0.038 A 
HETATM   12  C   UNL     1      -0.775  -0.064  -0.811  1.00  0.00     0.118 A 
ENDBRANCH   1   7
BRANCH   4  13
HETATM   13  N   UNL     1      -2.050  -6.454   0.139  1.00  0.00    -0.399 N 
HETATM   14  H   UNL     1      -2.655  -6.801  -0.556  1.00  0.00     0.156 HD
HETATM   15  H   UNL     1      -1.806  -7.021   0.907  1.00  0.00     0.156 HD
ENDBRANCH   4  13
TORSDOF 2
