REMARK  3 active torsions:
REMARK  status: ('A' for Active; 'I' for Inactive)
REMARK    1  A    between atoms: C_3  and  C_7 
REMARK    2  A    between atoms: C_5  and  C_8 
REMARK    3  A    between atoms: C_8  and  O_9 
ROOT
HETATM    1  N   UNK     1       1.283  -0.561   0.447  1.00  0.00    -0.351 N 
ATOM      2  HN  UNK     1       2.061  -1.052   0.888  1.00  0.00     0.166 HD
HETATM    3  C   UNK     1       0.217  -1.148  -0.071  1.00  0.00     0.084 A 
HETATM    4  S   UNK     1      -0.955  -0.056  -0.718  1.00  0.00    -0.081 SA
HETATM    5  C   UNK     1       1.195   0.822   0.306  1.00  0.00     0.040 A 
HETATM    6  C   UNK     1       0.045   1.267  -0.313  1.00  0.00     0.079 A 
ENDROOT
BRANCH   3   7
HETATM    7  C   UNK     1      -0.034  -2.602  -0.072  1.00  0.00    -0.002 A 
HETATM    8  C   UNK     1       0.478  -3.396   0.968  1.00  0.00     0.014 A 
HETATM    9  C   UNK     1       0.228  -4.773   1.009  1.00  0.00     0.001 A 
HETATM   10  C   UNK     1      -0.526  -5.378   0.006  1.00  0.00     0.000 A 
HETATM   11  C   UNK     1      -1.023  -4.611  -1.043  1.00  0.00     0.001 A 
HETATM   12  C   UNK     1      -0.775  -3.235  -1.083  1.00  0.00     0.014 A 
ENDBRANCH   3   7
BRANCH   5  13
HETATM   13  C   UNK     1       2.315   1.674   0.807  1.00  0.00     0.221 C 
BRANCH  13  14
HETATM   14  O   UNK     1       3.552   1.332   0.192  1.00  0.00    -0.395 OA
HETATM   15  H   UNK     1       3.772   0.410   0.399  1.00  0.00     0.209 HD
ENDBRANCH  13  14
ENDBRANCH   5  13
TORSDOF 3
