REMARK  2 active torsions:
REMARK  status: ('A' for Active; 'I' for Inactive)
REMARK    1  A    between atoms: N_1  and  C_5 
REMARK    2  A    between atoms: C_8  and  C_9 
ROOT
HETATM    1  C   UNL     1      -0.711   2.464   0.038  1.00  0.00     0.039 A 
HETATM    2  C   UNL     1      -1.491   5.174   0.183  1.00  0.00     0.009 A 
HETATM    3  C   UNL     1      -1.592   2.902   1.037  1.00  0.00     0.031 A 
HETATM    4  C   UNL     1      -0.234   3.393  -0.897  1.00  0.00     0.031 A 
HETATM    5  C   UNL     1      -0.623   4.736  -0.824  1.00  0.00     0.017 A 
HETATM    6  C   UNL     1      -1.976   4.248   1.111  1.00  0.00     0.017 A 
ENDROOT
BRANCH   1   7
HETATM    7  N   UNL     1      -0.291   1.102  -0.015  1.00  0.00    -0.317 N 
HETATM    8  C   UNL     1      -0.694   0.067   0.804  1.00  0.00     0.188 A 
HETATM    9  N   UNL     1      -0.090  -1.068   0.528  1.00  0.00    -0.360 N 
HETATM   10  C   UNL     1       0.735  -0.782  -0.519  1.00  0.00     0.106 A 
ATOM     11  HN  UNL     1      -0.212  -1.966   0.995  1.00  0.00     0.166 HD
HETATM   12  C   UNL     1       0.621   0.538  -0.883  1.00  0.00     0.115 A 
ENDBRANCH   1   7
BRANCH   2  13
HETATM   13  C   UNL     1      -1.857   6.621   0.230  1.00  0.00     0.155 C 
HETATM   14  O   UNL     1      -1.403   7.394  -0.610  1.00  0.00    -0.293 OA
HETATM   15  C   UNL     1      -2.772   7.107   1.323  1.00  0.00     0.096 C 
ENDBRANCH   2  13
TORSDOF 2
