REMARK  3 active torsions:
REMARK  status: ('A' for Active; 'I' for Inactive)
REMARK    1  A    between atoms: C_3  and  O_4 
REMARK    2  A    between atoms: O_4  and  C_9 
REMARK    3  A    between atoms: C_6  and  N_8 
ROOT
HETATM    1  N   UNL     1      -1.164   1.148  -0.897  1.00  0.00    -0.344 N 
ATOM      2  HN  UNL     1      -1.732   1.783  -1.457  1.00  0.00     0.167 HD
HETATM    3  C   UNL     1      -1.724   0.230  -0.076  1.00  0.00     0.148 A 
HETATM    4  C   UNL     1       0.186   1.181  -0.937  1.00  0.00     0.119 A 
HETATM    5  C   UNL     1       1.022   0.361  -0.185  1.00  0.00     0.041 A 
HETATM    6  C   UNL     1      -0.989  -0.705   0.633  1.00  0.00     0.059 A 
HETATM    7  C   UNL     1       0.403  -0.645   0.557  1.00  0.00     0.035 A 
ENDROOT
BRANCH   3   8
HETATM    8  O   UNL     1      -3.105   0.205   0.077  1.00  0.00    -0.294 OA
BRANCH   8   9
HETATM    9  C   UNL     1      -3.765   1.409  -0.040  1.00  0.00     0.077 A 
HETATM   10  C   UNL     1      -5.001   1.402  -0.689  1.00  0.00     0.037 A 
HETATM   11  C   UNL     1      -5.705   2.596  -0.860  1.00  0.00     0.003 A 
HETATM   12  C   UNL     1      -5.178   3.795  -0.374  1.00  0.00     0.000 A 
HETATM   13  C   UNL     1      -3.964   3.797   0.309  1.00  0.00     0.003 A 
HETATM   14  C   UNL     1      -3.271   2.603   0.497  1.00  0.00     0.037 A 
ENDBRANCH   8   9
ENDBRANCH   3   8
BRANCH   5  15
HETATM   15  N   UNL     1       2.412   0.384  -0.342  1.00  0.00    -0.398 N 
HETATM   16  H   UNL     1       2.836   1.100  -0.868  1.00  0.00     0.156 HD
HETATM   17  H   UNL     1       2.966  -0.316   0.073  1.00  0.00     0.156 HD
ENDBRANCH   5  15
TORSDOF 3
