REMARK  3 active torsions:
REMARK  status: ('A' for Active; 'I' for Inactive)
REMARK    1  A    between atoms: C_1  and  C_8 
REMARK    2  A    between atoms: C_2  and  C_7 
REMARK    3  A    between atoms: C_8  and  O_9 
ROOT
HETATM    1  C   UNL     1       0.036  -1.332  -0.020  1.00  0.00     0.026 A 
HETATM    2  C   UNL     1      -1.281  -0.913  -0.022  1.00  0.00     0.119 A 
HETATM    3  O   UNL     1      -1.306   0.451  -0.065  1.00  0.00    -0.236 OA
HETATM    4  N   UNL     1      -0.019   0.947  -0.081  1.00  0.00    -0.265 N 
ATOM      5  HN  UNL     1       0.263   1.927  -0.112  1.00  0.00     0.194 HD
HETATM    6  C   UNL     1       0.783  -0.122  -0.048  1.00  0.00     0.040 A 
HETATM    7  C   UNL     1       2.253   0.074  -0.025  1.00  0.00     0.071 C 
ENDROOT
BRANCH   2   8
HETATM    8  C   UNL     1      -2.587  -1.566   0.032  1.00  0.00     0.000 A 
HETATM    9  C   UNL     1      -3.692  -0.907   0.593  1.00  0.00     0.014 A 
HETATM   10  C   UNL     1      -4.930  -1.547   0.705  1.00  0.00     0.001 A 
HETATM   11  C   UNL     1      -5.083  -2.856   0.256  1.00  0.00     0.000 A 
HETATM   12  C   UNL     1      -4.005  -3.519  -0.321  1.00  0.00     0.001 A 
HETATM   13  C   UNL     1      -2.770  -2.876  -0.437  1.00  0.00     0.014 A 
ENDBRANCH   2   8
BRANCH   1  14
HETATM   14  C   UNL     1       0.565  -2.715   0.032  1.00  0.00     0.207 C 
BRANCH  14  15
HETATM   15  O   UNL     1       0.798  -3.236  -1.272  1.00  0.00    -0.396 OA
HETATM   16  H   UNL     1      -0.038  -3.260  -1.764  1.00  0.00     0.209 HD
ENDBRANCH  14  15
ENDBRANCH   1  14
TORSDOF 3
