REMARK  2 active torsions:
REMARK  status: ('A' for Active; 'I' for Inactive)
REMARK    1  A    between atoms: N_1  and  C_3 
REMARK    2  A    between atoms: C_2  and  C_4 
ROOT
HETATM    1  C   UNL     1      -0.722  -2.471  -0.001  1.00  0.00     0.039 A 
HETATM    2  C   UNL     1      -1.859  -4.325  -1.099  1.00  0.00     0.043 A 
HETATM    3  C   UNL     1      -1.551  -2.959  -1.023  1.00  0.00     0.048 A 
HETATM    4  C   UNL     1      -0.233  -3.368   0.962  1.00  0.00     0.030 A 
HETATM    5  C   UNL     1      -1.368  -5.205  -0.131  1.00  0.00     0.018 A 
HETATM    6  C   UNL     1      -0.562  -4.726   0.899  1.00  0.00     0.003 A 
ENDROOT
BRANCH   1   7
HETATM    7  N   UNL     1      -0.363  -1.087   0.040  1.00  0.00    -0.333 N 
HETATM    8  C   UNL     1       0.494  -0.481   0.941  1.00  0.00     0.096 A 
HETATM    9  C   UNL     1       0.601   0.860   0.641  1.00  0.00     0.019 A 
HETATM   10  C   UNL     1      -0.218   1.103  -0.475  1.00  0.00     0.019 A 
HETATM   11  C   UNL     1      -0.793  -0.098  -0.827  1.00  0.00     0.096 A 
ENDBRANCH   1   7
BRANCH   2  12
HETATM   12  C   UNL     1      -2.672  -4.879  -2.208  1.00  0.00     0.209 C 
HETATM   13  O   UNL     1      -2.999  -6.044  -2.338  1.00  0.00    -0.644 OA
HETATM   14  O   UNL     1      -3.010  -3.953  -3.124  1.00  0.00    -0.644 OA
ENDBRANCH   2  12
TORSDOF 2
