REMARK  4 active torsions:
REMARK  status: ('A' for Active; 'I' for Inactive)
REMARK    1  A    between atoms: N_1  and  C_7 
REMARK    2  A    between atoms: C_2  and  C_9 
REMARK    3  A    between atoms: C_7  and  C_8 
REMARK    4  A    between atoms: C_9  and  O_10 
ROOT
HETATM    1  N   UNL     1       0.976  -0.527  -0.141  1.00  0.00    -0.339 N 
HETATM    2  C   UNL     1      -0.109  -0.609  -0.981  1.00  0.00     0.107 A 
HETATM    3  N   UNL     1      -1.005   0.315  -0.674  1.00  0.00    -0.352 N 
ATOM      4  HN  UNL     1      -1.900   0.480  -1.134  1.00  0.00     0.166 HD
HETATM    5  C   UNL     1      -0.484   1.004   0.388  1.00  0.00     0.106 A 
HETATM    6  C   UNL     1       0.744   0.498   0.740  1.00  0.00     0.109 A 
ENDROOT
BRANCH   1   7
HETATM    7  C   UNL     1       2.171  -1.363  -0.151  1.00  0.00     0.168 C 
BRANCH   7   8
HETATM    8  C   UNL     1       3.044  -1.172  -1.370  1.00  0.00    -0.040 A 
HETATM    9  C   UNL     1       3.076   0.025  -2.103  1.00  0.00     0.009 A 
HETATM   10  C   UNL     1       3.876   0.145  -3.240  1.00  0.00     0.001 A 
HETATM   11  C   UNL     1       4.685  -0.915  -3.638  1.00  0.00     0.000 A 
HETATM   12  C   UNL     1       4.703  -2.092  -2.895  1.00  0.00     0.001 A 
HETATM   13  C   UNL     1       3.891  -2.220  -1.766  1.00  0.00     0.009 A 
ENDBRANCH   7   8
ENDBRANCH   1   7
BRANCH   2  14
HETATM   14  C   UNL     1      -0.242  -1.580  -2.108  1.00  0.00     0.240 C 
BRANCH  14  15
HETATM   15  O   UNL     1      -1.516  -1.372  -2.716  1.00  0.00    -0.393 OA
HETATM   16  H   UNL     1      -2.215  -1.508  -2.057  1.00  0.00     0.209 HD
ENDBRANCH  14  15
ENDBRANCH   2  14
TORSDOF 4
