REMARK  2 active torsions:
REMARK  status: ('A' for Active; 'I' for Inactive)
REMARK    1  A    between atoms: C_2  and  C_7 
REMARK    2  A    between atoms: C_7  and  N_8 
ROOT
HETATM    1  N   UNL     1       0.735  -0.010  -0.040  1.00  0.00    -0.348 N 
HETATM    2  C   UNL     1      -0.052  -1.137  -0.017  1.00  0.00     0.053 A 
HETATM    3  N   UNL     1      -1.359   0.718  -0.070  1.00  0.00    -0.360 N 
ATOM      4  HN  UNL     1      -2.176   1.329  -0.094  1.00  0.00     0.166 HD
HETATM    5  C   UNL     1      -0.096   1.075  -0.052  1.00  0.00     0.182 A 
HETATM    6  C   UNL     1      -1.344  -0.651  -0.049  1.00  0.00     0.115 A 
HETATM    7  C   UNL     1       2.175   0.046  -0.033  1.00  0.00     0.157 C 
ENDROOT
BRANCH   2   8
HETATM    8  C   UNL     1       0.450  -2.534   0.039  1.00  0.00     0.290 C 
BRANCH   8   9
HETATM    9  N   UNL     1       1.284  -2.785   1.216  1.00  0.00    -0.074 N 
HETATM   10  C   UNL     1       0.539  -2.641   2.464  1.00  0.00     0.267 C 
HETATM   11  H   UNL     1       2.058  -2.120   1.217  1.00  0.00     0.277 HD
HETATM   12  H   UNL     1       1.620  -3.746   1.161  1.00  0.00     0.277 HD
ENDBRANCH   8   9
ENDBRANCH   2   8
TORSDOF 2
