REMARK  2 active torsions:
REMARK  status: ('A' for Active; 'I' for Inactive)
REMARK    1  A    between atoms: C_1  and  C_2 
REMARK    2  A    between atoms: C_4  and  C_8 
ROOT
HETATM    1  C   UNL     1       0.724   1.281  -0.039  1.00  0.00     0.057 A 
HETATM    2  C   UNL     1       1.446   0.080  -0.045  1.00  0.00     0.033 A 
HETATM    3  C   UNL     1       0.781  -1.157  -0.017  1.00  0.00    -0.009 A 
HETATM    4  N   UNL     1      -1.350   0.053  -0.013  1.00  0.00    -0.373 N 
ATOM      5  HN  UNL     1      -2.370   0.036  -0.012  1.00  0.00     0.164 HD
HETATM    6  C   UNL     1      -0.660   1.214  -0.028  1.00  0.00     0.106 A 
HETATM    7  C   UNL     1      -0.617  -1.090  -0.000  1.00  0.00     0.100 A 
ENDROOT
BRANCH   3   8
HETATM    8  C   UNL     1       1.506  -2.449   0.021  1.00  0.00    -0.025 A 
HETATM    9  C   UNL     1       2.747  -2.577   0.675  1.00  0.00     0.012 A 
HETATM   10  C   UNL     1       3.418  -3.803   0.740  1.00  0.00     0.001 A 
HETATM   11  C   UNL     1       2.861  -4.936   0.157  1.00  0.00     0.000 A 
HETATM   12  C   UNL     1       1.641  -4.840  -0.502  1.00  0.00     0.001 A 
HETATM   13  C   UNL     1       0.977  -3.610  -0.576  1.00  0.00     0.012 A 
ENDBRANCH   3   8
BRANCH   1  14
HETATM   14  C   UNL     1       1.361   2.611  -0.030  1.00  0.00     0.210 C 
HETATM   15  O   UNL     1       0.780   3.679  -0.038  1.00  0.00    -0.644 OA
HETATM   16  O   UNL     1       2.703   2.543   0.003  1.00  0.00    -0.644 OA
ENDBRANCH   1  14
TORSDOF 2
