REMARK  1 active torsions:
REMARK  status: ('A' for Active; 'I' for Inactive)
REMARK    1  A    between atoms: N_1  and  C_4 
ROOT
HETATM    1  C   UNL     1      -0.797  -2.431  -0.007  1.00  0.00     0.076 A 
HETATM    2  N   UNL     1      -2.510  -1.600  -3.041  1.00  0.00    -0.191 NA
HETATM    3  C   UNL     1      -2.120  -2.196  -2.126  1.00  0.00     0.102 C 
HETATM    4  C   UNL     1      -1.654  -2.949  -0.994  1.00  0.00     0.073 A 
HETATM    5  C   UNL     1      -0.284  -3.291   0.984  1.00  0.00     0.033 A 
HETATM    6  C   UNL     1      -2.008  -4.309  -0.950  1.00  0.00     0.025 A 
HETATM    7  C   UNL     1      -0.662  -4.634   1.025  1.00  0.00     0.002 A 
HETATM    8  C   UNL     1      -1.526  -5.143   0.060  1.00  0.00     0.002 A 
ENDROOT
BRANCH   1   9
HETATM    9  N   UNL     1      -0.407  -1.063   0.040  1.00  0.00    -0.267 N 
HETATM   10  N   UNL     1       0.785  -0.706   0.585  1.00  0.00    -0.305 N 
HETATM   11  C   UNL     1       0.876   0.607   0.366  1.00  0.00     0.109 A 
ATOM     12  HN  UNL     1       1.460  -1.308   1.057  1.00  0.00     0.186 HD
HETATM   13  C   UNL     1      -0.287   1.134  -0.208  1.00  0.00     0.038 A 
HETATM   14  C   UNL     1      -1.109   0.047  -0.377  1.00  0.00     0.118 A 
ENDBRANCH   1   9
TORSDOF 1
