REMARK  2 active torsions:
REMARK  status: ('A' for Active; 'I' for Inactive)
REMARK    1  A    between atoms: C_1  and  C_3 
REMARK    2  A    between atoms: C_2  and  N_4 
ROOT
HETATM    1  C   UNL     1       1.400  -0.179   0.259  1.00  0.00     0.067 A 
HETATM    2  C   UNL     1       0.631  -1.346   0.019  1.00  0.00     0.047 A 
HETATM    3  C   UNL     1       0.800   1.098   0.244  1.00  0.00     0.021 A 
HETATM    4  C   UNL     1      -0.745  -1.152  -0.220  1.00  0.00     0.030 A 
HETATM    5  C   UNL     1      -0.560   1.245  -0.004  1.00  0.00     0.001 A 
HETATM    6  C   UNL     1      -1.334   0.118  -0.234  1.00  0.00     0.002 A 
ENDROOT
BRANCH   2   7
HETATM    7  N   UNL     1       1.178  -2.622  -0.028  1.00  0.00    -0.376 N 
HETATM    8  C   UNL     1       0.568  -3.689  -0.840  1.00  0.00     0.149 C 
HETATM    9  C   UNL     1       1.663  -4.699  -1.226  1.00  0.00     0.187 C 
HETATM   10  O   UNL     1       2.316  -5.242  -0.063  1.00  0.00    -0.388 OA
HETATM   11  C   UNL     1       2.920  -4.182   0.705  1.00  0.00     0.187 C 
HETATM   12  C   UNL     1       1.866  -3.158   1.165  1.00  0.00     0.149 C 
ENDBRANCH   2   7
BRANCH   1  13
HETATM   13  C   UNL     1       2.881  -0.218   0.434  1.00  0.00     0.211 C 
HETATM   14  O   UNL     1       3.683  -1.003  -0.035  1.00  0.00    -0.644 OA
HETATM   15  O   UNL     1       3.301   0.759   1.265  1.00  0.00    -0.644 OA
ENDBRANCH   1  13
TORSDOF 2
