REMARK  3 active torsions:
REMARK  status: ('A' for Active; 'I' for Inactive)
REMARK    1  A    between atoms: N_1  and  C_2 
REMARK    2  A    between atoms: C_3  and  C_8 
REMARK    3  A    between atoms: N_5  and  C_8 
ROOT
HETATM    1  C   UNL     1      -2.526   0.043  -1.030  1.00  0.00     0.038 A 
HETATM    2  C   UNL     1      -2.631   0.673  -2.297  1.00  0.00    -0.006 A 
HETATM    3  C   UNL     1      -3.672  -0.668  -0.601  1.00  0.00     0.030 A 
HETATM    4  C   UNL     1      -3.832   0.558  -3.050  1.00  0.00     0.011 A 
HETATM    5  C   UNL     1      -4.853  -0.761  -1.349  1.00  0.00     0.002 A 
HETATM    6  C   UNL     1      -4.930  -0.147  -2.585  1.00  0.00     0.001 A 
ENDROOT
BRANCH   1   7
HETATM    7  N   UNL     1      -1.414   0.096  -0.202  1.00  0.00    -0.376 N 
HETATM    8  C   UNL     1      -1.518   0.034   1.271  1.00  0.00     0.149 C 
HETATM    9  C   UNL     1      -0.747  -1.183   1.801  1.00  0.00     0.187 C 
HETATM   10  O   UNL     1       0.636  -1.113   1.414  1.00  0.00    -0.388 OA
HETATM   11  C   UNL     1       0.744  -1.130  -0.016  1.00  0.00     0.187 C 
HETATM   12  C   UNL     1      -0.026   0.023  -0.685  1.00  0.00     0.149 C 
ENDBRANCH   1   7
BRANCH   2  13
HETATM   13  C   UNL     1      -1.575   1.550  -2.937  1.00  0.00     0.270 C 
BRANCH  13  14
HETATM   14  N   UNL     1      -1.084   0.960  -4.185  1.00  0.00    -0.075 N 
HETATM   15  H   UNL     1      -0.376   1.570  -4.594  1.00  0.00     0.274 HD
HETATM   16  H   UNL     1      -1.859   0.852  -4.839  1.00  0.00     0.274 HD
HETATM   17  H   UNL     1      -0.674   0.046  -3.990  1.00  0.00     0.274 HD
ENDBRANCH  13  14
ENDBRANCH   2  13
TORSDOF 3
