REMARK  1 active torsions:
REMARK  status: ('A' for Active; 'I' for Inactive)
REMARK    1  A    between atoms: C_1  and  C_3 
ROOT
HETATM    1  C   UNL     1       2.360  -0.852   0.019  1.00  0.00     0.004 C 
HETATM    2  C   UNL     1       1.208  -1.528   0.158  1.00  0.00     0.026 C 
HETATM    3  O   UNL     1       1.164   1.333   0.127  1.00  0.00    -0.346 OA
HETATM    4  C   UNL     1      -0.038  -0.775   0.046  1.00  0.00    -0.002 A 
HETATM    5  C   UNL     1       2.351   0.628  -0.276  1.00  0.00     0.217 C 
HETATM    6  C   UNL     1      -0.002   0.622   0.039  1.00  0.00     0.079 A 
HETATM    7  C   UNL     1      -1.275  -1.427  -0.014  1.00  0.00     0.014 A 
HETATM    8  C   UNL     1      -1.183   1.363  -0.006  1.00  0.00     0.037 A 
HETATM    9  C   UNL     1      -2.458  -0.686  -0.078  1.00  0.00     0.001 A 
HETATM   10  C   UNL     1      -2.412   0.709  -0.071  1.00  0.00     0.003 A 
ENDROOT
BRANCH   1  11
HETATM   11  C   UNL     1       3.679  -1.551   0.092  1.00  0.00     0.102 C 
HETATM   12  S   UNL     1       5.081  -1.126  -0.717  1.00  0.00    -0.060 SA
HETATM   13  N   UNL     1       3.744  -2.617   0.943  1.00  0.00    -0.390 N 
HETATM   14  H   UNL     1       2.942  -2.900   1.440  1.00  0.00     0.157 HD
HETATM   15  H   UNL     1       4.592  -3.102   1.061  1.00  0.00     0.157 HD
ENDBRANCH   1  11
TORSDOF 1
