REMARK  2 active torsions:
REMARK  status: ('A' for Active; 'I' for Inactive)
REMARK    1  A    between atoms: N_1  and  C_3 
REMARK    2  A    between atoms: C_2  and  C_4 
ROOT
HETATM    1  C   UNL     1      -0.709  -2.503   0.003  1.00  0.00     0.038 A 
HETATM    2  C   UNL     1      -1.441  -5.227  -0.055  1.00  0.00     0.041 A 
HETATM    3  C   UNL     1      -1.583  -2.987  -0.983  1.00  0.00     0.031 A 
HETATM    4  C   UNL     1      -0.215  -3.397   0.965  1.00  0.00     0.031 A 
HETATM    5  C   UNL     1      -0.580  -4.748   0.935  1.00  0.00     0.020 A 
HETATM    6  C   UNL     1      -1.944  -4.341  -1.012  1.00  0.00     0.020 A 
ENDROOT
BRANCH   1   7
HETATM    7  N   UNL     1      -0.317  -1.126   0.020  1.00  0.00    -0.333 N 
HETATM    8  C   UNL     1      -0.745  -0.131  -0.842  1.00  0.00     0.096 A 
HETATM    9  C   UNL     1      -0.123   1.055  -0.521  1.00  0.00     0.019 A 
HETATM   10  C   UNL     1       0.717   0.800   0.578  1.00  0.00     0.019 A 
HETATM   11  C   UNL     1       0.577  -0.534   0.895  1.00  0.00     0.096 A 
ENDBRANCH   1   7
BRANCH   2  12
HETATM   12  C   UNL     1      -1.784  -6.668  -0.052  1.00  0.00     0.209 C 
HETATM   13  O   UNL     1      -1.378  -7.496   0.743  1.00  0.00    -0.644 OA
HETATM   14  O   UNL     1      -2.619  -7.008  -1.049  1.00  0.00    -0.644 OA
ENDBRANCH   2  12
TORSDOF 2
