REMARK  1 active torsions:
REMARK  status: ('A' for Active; 'I' for Inactive)
REMARK    1  A    between atoms: C_1  and  C_2 
ROOT
HETATM    1  C   UNL     1      -2.411  -0.724  -0.376  1.00  0.00     0.115 C 
HETATM    2  O   UNL     1      -1.169   1.346  -0.022  1.00  0.00    -0.350 OA
HETATM    3  C   UNL     1      -1.220  -1.584   0.031  1.00  0.00     0.059 C 
HETATM    4  C   UNL     1       0.045  -0.770   0.026  1.00  0.00    -0.024 A 
HETATM    5  C   UNL     1      -2.324   0.596   0.375  1.00  0.00     0.191 C 
HETATM    6  C   UNL     1      -0.002   0.629  -0.006  1.00  0.00     0.075 A 
HETATM    7  C   UNL     1       1.291  -1.409   0.063  1.00  0.00     0.010 A 
HETATM    8  C   UNL     1       1.175   1.374  -0.063  1.00  0.00     0.037 A 
HETATM    9  C   UNL     1       2.469  -0.661   0.026  1.00  0.00     0.001 A 
HETATM   10  C   UNL     1       2.411   0.729  -0.047  1.00  0.00     0.003 A 
ENDROOT
BRANCH   1  11
HETATM   11  C   UNL     1      -3.708  -1.420  -0.077  1.00  0.00     0.179 C 
HETATM   12  O   UNL     1      -4.598  -1.033   0.659  1.00  0.00    -0.648 OA
HETATM   13  O   UNL     1      -3.848  -2.570  -0.767  1.00  0.00    -0.648 OA
ENDBRANCH   1  11
TORSDOF 1
