REMARK  2 active torsions:
REMARK  status: ('A' for Active; 'I' for Inactive)
REMARK    1  A    between atoms: N_1  and  C_2 
REMARK    2  A    between atoms: C_9  and  N_10 
ROOT
HETATM    1  C   UNL     1      -0.743  -2.475   0.010  1.00  0.00     0.038 A 
HETATM    2  C   UNL     1      -0.286  -3.356   0.999  1.00  0.00     0.032 A 
HETATM    3  C   UNL     1      -1.639  -2.960  -0.953  1.00  0.00     0.032 A 
HETATM    4  C   UNL     1      -1.558  -5.188   0.024  1.00  0.00     0.025 A 
HETATM    5  C   UNL     1      -0.711  -4.692   1.014  1.00  0.00     0.031 A 
HETATM    6  C   UNL     1      -2.054  -4.298  -0.928  1.00  0.00     0.031 A 
ENDROOT
BRANCH   1   7
HETATM    7  N   UNL     1      -0.325  -1.107  -0.001  1.00  0.00    -0.333 N 
HETATM    8  C   UNL     1       0.569  -0.508   0.871  1.00  0.00     0.096 A 
HETATM    9  C   UNL     1       0.707   0.825   0.547  1.00  0.00     0.019 A 
HETATM   10  C   UNL     1      -0.122   1.070  -0.563  1.00  0.00     0.019 A 
HETATM   11  C   UNL     1      -0.737  -0.122  -0.882  1.00  0.00     0.096 A 
ENDBRANCH   1   7
BRANCH   4  12
HETATM   12  N   UNL     1      -2.081  -6.481   0.124  1.00  0.00    -0.399 N 
HETATM   13  H   UNL     1      -2.678  -6.826  -0.579  1.00  0.00     0.156 HD
HETATM   14  H   UNL     1      -1.852  -7.046   0.897  1.00  0.00     0.156 HD
ENDBRANCH   4  12
TORSDOF 2
