REMARK  2 active torsions:
REMARK  status: ('A' for Active; 'I' for Inactive)
REMARK    1  A    between atoms: C_5  and  C_9 
REMARK    2  A    between atoms: O_7  and  C_9 
ROOT
HETATM    1  O   UNL     1      -1.127   1.380  -0.007  1.00  0.00    -0.350 OA
HETATM    2  C   UNL     1       0.067  -0.747   0.012  1.00  0.00    -0.024 A 
HETATM    3  C   UNL     1       0.034   0.651  -0.003  1.00  0.00     0.075 A 
HETATM    4  C   UNL     1      -1.204  -1.550   0.010  1.00  0.00     0.050 C 
HETATM    5  C   UNL     1      -2.400  -0.675  -0.379  1.00  0.00     0.038 C 
HETATM    6  C   UNL     1      -2.289   0.640   0.384  1.00  0.00     0.182 C 
HETATM    7  C   UNL     1       1.306  -1.402   0.047  1.00  0.00     0.010 A 
HETATM    8  C   UNL     1       1.220   1.383  -0.048  1.00  0.00     0.037 A 
HETATM    9  C   UNL     1       2.493  -0.667   0.024  1.00  0.00     0.001 A 
HETATM   10  C   UNL     1       2.450   0.725  -0.035  1.00  0.00     0.003 A 
ENDROOT
BRANCH   5  11
HETATM   11  C   UNL     1      -3.722  -1.381  -0.094  1.00  0.00     0.171 C 
BRANCH  11  12
HETATM   12  O   UNL     1      -3.822  -2.584  -0.845  1.00  0.00    -0.400 OA
HETATM   13  H   UNL     1      -4.668  -3.017  -0.650  1.00  0.00     0.209 HD
ENDBRANCH  11  12
ENDBRANCH   5  11
TORSDOF 2
