REMARK  3 active torsions:
REMARK  status: ('A' for Active; 'I' for Inactive)
REMARK    1  A    between atoms: C_3  and  C_7 
REMARK    2  A    between atoms: C_4  and  C_8 
REMARK    3  A    between atoms: C_8  and  O_10 
ROOT
HETATM    1  N   UNK     1      -1.454   0.666  -0.009  1.00  0.00    -0.336 N 
ATOM      2  HN  UNK     1      -2.338   1.174  -0.027  1.00  0.00     0.168 HD
HETATM    3  C   UNK     1      -1.269  -0.643   0.000  1.00  0.00     0.158 A 
HETATM    4  C   UNK     1      -0.172   1.188   0.012  1.00  0.00     0.064 A 
HETATM    5  O   UNK     1       0.050  -1.017   0.025  1.00  0.00    -0.296 OA
HETATM    6  C   UNK     1       0.743   0.159   0.027  1.00  0.00     0.076 A 
HETATM    7  C   UNK     1       2.212   0.062   0.037  1.00  0.00     0.079 C 
ENDROOT
BRANCH   3   8
HETATM    8  C   UNK     1      -2.253  -1.722  -0.038  1.00  0.00     0.015 A 
HETATM    9  C   UNK     1      -3.614  -1.422  -0.202  1.00  0.00     0.016 A 
HETATM   10  C   UNK     1      -4.570  -2.440  -0.258  1.00  0.00     0.001 A 
HETATM   11  C   UNK     1      -4.178  -3.773  -0.148  1.00  0.00     0.000 A 
HETATM   12  C   UNK     1      -2.832  -4.088   0.022  1.00  0.00     0.001 A 
HETATM   13  C   UNK     1      -1.876  -3.070   0.076  1.00  0.00     0.016 A 
ENDBRANCH   3   8
BRANCH   4  14
HETATM   14  C   UNK     1       0.050   2.657   0.003  1.00  0.00     0.223 C 
BRANCH  14  15
HETATM   15  O   UNK     1      -1.047   3.362   0.581  1.00  0.00    -0.395 OA
HETATM   16  H   UNK     1      -1.851   3.187   0.068  1.00  0.00     0.209 HD
ENDBRANCH  14  15
ENDBRANCH   4  14
TORSDOF 3
