REMARK  3 active torsions:
REMARK  status: ('A' for Active; 'I' for Inactive)
REMARK    1  A    between atoms: C_3  and  C_7 
REMARK    2  A    between atoms: C_4  and  C_8 
REMARK    3  A    between atoms: C_8  and  N_9 
ROOT
HETATM    1  N   UNL     1      -1.470   0.654   0.033  1.00  0.00    -0.336 N 
ATOM      2  HN  UNL     1      -2.357   1.158   0.039  1.00  0.00     0.168 HD
HETATM    3  C   UNL     1      -1.279  -0.653   0.027  1.00  0.00     0.158 A 
HETATM    4  C   UNL     1      -0.192   1.183   0.030  1.00  0.00     0.066 A 
HETATM    5  O   UNL     1       0.041  -1.024   0.027  1.00  0.00    -0.296 OA
HETATM    6  C   UNL     1       0.728   0.155   0.029  1.00  0.00     0.075 A 
HETATM    7  C   UNL     1       2.197   0.068   0.021  1.00  0.00     0.079 C 
ENDROOT
BRANCH   3   8
HETATM    8  C   UNL     1      -2.260  -1.734  -0.016  1.00  0.00     0.015 A 
HETATM    9  C   UNL     1      -3.625  -1.433  -0.146  1.00  0.00     0.016 A 
HETATM   10  C   UNL     1      -4.580  -2.450  -0.214  1.00  0.00     0.001 A 
HETATM   11  C   UNL     1      -4.183  -3.784  -0.147  1.00  0.00     0.000 A 
HETATM   12  C   UNL     1      -2.835  -4.101  -0.009  1.00  0.00     0.001 A 
HETATM   13  C   UNL     1      -1.879  -3.084   0.055  1.00  0.00     0.016 A 
ENDBRANCH   3   8
BRANCH   4  14
HETATM   14  C   UNL     1       0.034   2.652   0.024  1.00  0.00     0.288 C 
BRANCH  14  15
HETATM   15  N   UNL     1       0.120   3.126   1.402  1.00  0.00    -0.074 N 
HETATM   16  H   UNL     1      -0.749   2.911   1.891  1.00  0.00     0.274 HD
HETATM   17  H   UNL     1       0.272   4.135   1.406  1.00  0.00     0.274 HD
HETATM   18  H   UNL     1       0.898   2.664   1.873  1.00  0.00     0.274 HD
ENDBRANCH  14  15
ENDBRANCH   4  14
TORSDOF 3
