REMARK  2 active torsions:
REMARK  status: ('A' for Active; 'I' for Inactive)
REMARK    1  A    between atoms: C_3  and  C_7 
REMARK    2  A    between atoms: C_7  and  O_10 
ROOT
HETATM    1  N   UNK     1       0.699  -1.245   0.028  1.00  0.00    -0.340 N 
ATOM      2  HN  UNK     1       1.336  -2.041   0.055  1.00  0.00     0.167 HD
HETATM    3  C   UNK     1      -0.683  -1.260  -0.002  1.00  0.00     0.064 A 
HETATM    4  C   UNK     1      -1.156   0.035  -0.010  1.00  0.00     0.076 A 
HETATM    5  C   UNK     1       1.002   0.038   0.014  1.00  0.00     0.120 A 
HETATM    6  O   UNK     1      -0.078   0.876  -0.007  1.00  0.00    -0.301 OA
HETATM    7  C   UNK     1      -2.487   0.664  -0.015  1.00  0.00     0.079 C 
HETATM    8  C   UNK     1       2.329   0.683   0.011  1.00  0.00     0.098 C 
ENDROOT
BRANCH   3   9
HETATM    9  C   UNK     1      -1.423  -2.547  -0.001  1.00  0.00     0.223 C 
BRANCH   9  10
HETATM   10  O   UNK     1      -1.091  -3.340   1.136  1.00  0.00    -0.395 OA
HETATM   11  H   UNK     1      -0.143  -3.545   1.122  1.00  0.00     0.209 HD
ENDBRANCH   9  10
ENDBRANCH   3   9
TORSDOF 2
