REMARK  1 active torsions:
REMARK  status: ('A' for Active; 'I' for Inactive)
REMARK    1  A    between atoms: C_2  and  C_4 
ROOT
HETATM    1  C   UNL     1      -0.317  -0.650   0.038  1.00  0.00     0.093 A 
HETATM    2  C   UNL     1      -1.451  -1.451   0.005  1.00  0.00     0.074 A 
HETATM    3  O   UNL     1       0.975  -1.100   0.076  1.00  0.00    -0.339 OA
HETATM    4  C   UNL     1      -0.408   0.735   0.044  1.00  0.00    -0.021 A 
HETATM    5  C   UNL     1       1.822   0.077  -0.010  1.00  0.00     0.064 C 
HETATM    6  C   UNL     1       0.944   1.341   0.115  1.00  0.00     0.079 C 
HETATM    7  C   UNL     1      -2.700  -0.807  -0.028  1.00  0.00     0.021 A 
HETATM    8  C   UNL     1      -1.635   1.377   0.016  1.00  0.00     0.010 A 
HETATM    9  C   UNL     1      -2.789   0.595  -0.024  1.00  0.00     0.002 A 
HETATM   10  C   UNL     1       2.543   0.026  -1.361  1.00  0.00     0.046 C 
HETATM   11  C   UNL     1       2.835  -0.017   1.133  1.00  0.00     0.046 C 
ENDROOT
BRANCH   2  12
HETATM   12  C   UNL     1      -1.348  -2.934   0.003  1.00  0.00     0.212 C 
HETATM   13  O   UNL     1      -0.343  -3.616   0.024  1.00  0.00    -0.644 OA
HETATM   14  O   UNL     1      -2.563  -3.520  -0.031  1.00  0.00    -0.644 OA
ENDBRANCH   2  12
TORSDOF 1
