REMARK  1 active torsions:
REMARK  status: ('A' for Active; 'I' for Inactive)
REMARK    1  A    between atoms: C_6  and  N_7 
ROOT
HETATM    1  C   UNL     1      -0.198  -0.766  -0.011  1.00  0.00     0.102 A 
HETATM    2  O   UNL     1      -1.321  -1.557  -0.024  1.00  0.00    -0.338 OA
HETATM    3  C   UNL     1      -0.467   0.591   0.023  1.00  0.00    -0.020 A 
HETATM    4  C   UNL     1      -2.449  -0.637   0.026  1.00  0.00     0.065 A 
HETATM    5  C   UNL     1      -1.928   0.821   0.014  1.00  0.00     0.079 A 
HETATM    6  C   UNL     1       1.097  -1.270  -0.013  1.00  0.00     0.060 A 
HETATM    7  C   UNL     1       0.563   1.515   0.033  1.00  0.00     0.010 A 
HETATM    8  C   UNL     1      -3.325  -0.930  -1.195  1.00  0.00     0.046 C 
HETATM    9  C   UNL     1      -3.232  -0.936   1.308  1.00  0.00     0.046 C 
HETATM   10  C   UNL     1       1.877   1.040  -0.003  1.00  0.00     0.003 A 
HETATM   11  C   UNL     1       2.139  -0.340  -0.046  1.00  0.00     0.032 A 
ENDROOT
BRANCH   6  12
HETATM   12  N   UNL     1       1.345  -2.634  -0.209  1.00  0.00    -0.397 N 
HETATM   13  H   UNL     1       0.601  -3.278  -0.182  1.00  0.00     0.156 HD
HETATM   14  H   UNL     1       2.263  -2.949  -0.372  1.00  0.00     0.156 HD
ENDBRANCH   6  12
TORSDOF 1
