REMARK  2 active torsions:
REMARK  status: ('A' for Active; 'I' for Inactive)
REMARK    1  A    between atoms: C_6  and  C_9 
REMARK    2  A    between atoms: O_7  and  C_9 
ROOT
HETATM    1  C   UNL     1      -0.248  -0.759   0.010  1.00  0.00     0.000 A 
HETATM    2  N   UNL     1      -1.564   1.045  -0.017  1.00  0.00    -0.365 N 
HETATM    3  C   UNL     1      -2.397  -0.039  -0.014  1.00  0.00     0.089 A 
HETATM    4  C   UNL     1      -0.248   0.636  -0.007  1.00  0.00     0.043 A 
HETATM    5  C   UNL     1      -1.614  -1.169   0.008  1.00  0.00     0.031 A 
HETATM    6  C   UNL     1       0.986  -1.454   0.018  1.00  0.00    -0.022 A 
HETATM    7  C   UNL     1       2.138   0.709  -0.003  1.00  0.00     0.003 A 
HETATM    8  C   UNL     1       0.925   1.398  -0.012  1.00  0.00     0.030 A 
HETATM    9  C   UNL     1       2.171  -0.684   0.015  1.00  0.00     0.010 A 
HETATM   10  H   UNL     1      -1.861   1.984  -0.024  1.00  0.00     0.165 HD
ENDROOT
BRANCH   6  11
HETATM   11  C   UNL     1       1.082  -2.959   0.034  1.00  0.00     0.203 C 
BRANCH  11  12
HETATM   12  O   UNL     1       1.786  -3.436  -1.107  1.00  0.00    -0.396 OA
HETATM   13  H   UNL     1       1.835  -4.404  -1.074  1.00  0.00     0.209 HD
ENDBRANCH  11  12
ENDBRANCH   6  11
TORSDOF 2
