REMARK  2 active torsions:
REMARK  status: ('A' for Active; 'I' for Inactive)
REMARK    1  A    between atoms: C_9  and  C_13 
REMARK    2  A    between atoms: O_12  and  C_13 
ROOT
HETATM    1  N   UNL     1      -1.064  -1.048  -0.005  1.00  0.00    -0.359 N 
ATOM      2  HN  UNL     1      -1.248  -2.051  -0.004  1.00  0.00     0.166 HD
HETATM    3  C   UNL     1       0.198  -0.583  -0.011  1.00  0.00     0.042 A 
HETATM    4  C   UNL     1       0.497   0.794  -0.009  1.00  0.00    -0.009 A 
HETATM    5  C   UNL     1       1.835   1.230  -0.006  1.00  0.00     0.023 A 
HETATM    6  C   UNL     1       1.255  -1.480  -0.014  1.00  0.00     0.031 A 
HETATM    7  C   UNL     1      -2.087  -0.158  -0.000  1.00  0.00     0.005 A 
HETATM    8  C   UNL     1      -0.577   1.694  -0.010  1.00  0.00     0.015 A 
HETATM    9  C   UNL     1       2.892   0.309  -0.003  1.00  0.00    -0.034 A 
HETATM   10  C   UNL     1      -1.883   1.213  -0.005  1.00  0.00     0.025 A 
HETATM   11  C   UNL     1       2.589  -1.054  -0.010  1.00  0.00     0.011 A 
HETATM   12  C   UNL     1      -3.470  -0.736   0.021  1.00  0.00     0.068 C 
ENDROOT
BRANCH   9  13
HETATM   13  C   UNL     1       4.319   0.785   0.030  1.00  0.00     0.202 C 
BRANCH  13  14
HETATM   14  O   UNL     1       4.601   1.583  -1.111  1.00  0.00    -0.396 OA
HETATM   15  H   UNL     1       5.523   1.883  -1.076  1.00  0.00     0.209 HD
ENDBRANCH  13  14
ENDBRANCH   9  13
TORSDOF 2
