REMARK  4 active torsions:
REMARK  status: ('A' for Active; 'I' for Inactive)
REMARK    1  A    between atoms: N_1  and  C_3 
REMARK    2  A    between atoms: C_3  and  C_4 
REMARK    3  A    between atoms: C_5  and  C_15 
REMARK    4  A    between atoms: O_12  and  C_15 
ROOT
HETATM    1  C   UNL     1      -0.244  -0.116  -2.563  1.00  0.00    -0.033 A 
HETATM    2  C   UNL     1       2.291  -0.129  -3.788  1.00  0.00    -0.035 A 
HETATM    3  C   UNL     1       0.649  -1.173  -2.339  1.00  0.00     0.009 A 
HETATM    4  C   UNL     1       0.104   0.883  -3.479  1.00  0.00     0.009 A 
HETATM    5  C   UNL     1       1.364   0.879  -4.080  1.00  0.00     0.010 A 
HETATM    6  C   UNL     1       1.908  -1.179  -2.944  1.00  0.00     0.010 A 
ENDROOT
BRANCH   1   7
HETATM    7  C   UNL     1      -1.527  -0.012  -1.751  1.00  0.00     0.273 C 
BRANCH   7   8
HETATM    8  N   UNL     1      -1.254  -0.029  -0.307  1.00  0.00    -0.063 N 
HETATM    9  C   UNL     1      -0.485   1.140   0.172  1.00  0.00     0.261 C 
HETATM   10  C   UNL     1      -1.316   2.408   0.426  1.00  0.00     0.195 C 
HETATM   11  O   UNL     1      -2.425   2.143   1.290  1.00  0.00    -0.388 OA
HETATM   12  C   UNL     1      -3.260   1.126   0.728  1.00  0.00     0.195 C 
HETATM   13  C   UNL     1      -2.478  -0.178   0.501  1.00  0.00     0.261 C 
HETATM   14  H   UNL     1      -0.670  -0.855  -0.177  1.00  0.00     0.280 HD
ENDBRANCH   7   8
ENDBRANCH   1   7
BRANCH   2  15
HETATM   15  C   UNL     1       3.702  -0.056  -4.305  1.00  0.00     0.202 C 
BRANCH  15  16
HETATM   16  O   UNL     1       4.618   0.096  -3.224  1.00  0.00    -0.396 OA
HETATM   17  H   UNL     1       5.523   0.142  -3.571  1.00  0.00     0.209 HD
ENDBRANCH  15  16
ENDBRANCH   2  15
TORSDOF 4
