REMARK  2 active torsions:
REMARK  status: ('A' for Active; 'I' for Inactive)
REMARK    1  A    between atoms: O_2  and  C_6 
REMARK    2  A    between atoms: C_3  and  C_6 
ROOT
HETATM    1  O   UNL     1      -1.325   0.020  -0.322  1.00  0.00    -0.391 OA
HETATM    2  C   UNL     1       1.514  -0.023   0.270  1.00  0.00     0.013 C 
HETATM    3  C   UNL     1      -0.707   1.195   0.203  1.00  0.00     0.168 C 
HETATM    4  C   UNL     1      -0.738  -1.180   0.178  1.00  0.00     0.168 C 
HETATM    5  C   UNL     1       0.737  -1.259  -0.205  1.00  0.00     0.033 C 
HETATM    6  C   UNL     1       0.768   1.244  -0.179  1.00  0.00     0.033 C 
ENDROOT
BRANCH   2   7
HETATM    7  C   UNL     1       1.742  -0.060   1.787  1.00  0.00     0.168 C 
BRANCH   7   8
HETATM    8  O   UNL     1       2.535   1.045   2.201  1.00  0.00    -0.400 OA
HETATM    9  H   UNL     1       2.669   1.005   3.161  1.00  0.00     0.209 HD
ENDBRANCH   7   8
ENDBRANCH   2   7
TORSDOF 2
