REMARK  1 active torsions:
REMARK  status: ('A' for Active; 'I' for Inactive)
REMARK    1  A    between atoms: C_2  and  O_5 
ROOT
HETATM    1  O   UNL     1      -1.679  -0.042  -0.075  1.00  0.00    -0.391 OA
HETATM    2  C   UNL     1       1.135   0.033   0.502  1.00  0.00     0.122 C 
HETATM    3  C   UNL     1       0.317  -1.250   0.604  1.00  0.00     0.058 C 
HETATM    4  C   UNL     1       0.244   1.265   0.626  1.00  0.00     0.058 C 
HETATM    5  C   UNL     1      -0.891  -1.207  -0.322  1.00  0.00     0.170 C 
HETATM    6  C   UNL     1      -0.957   1.168  -0.303  1.00  0.00     0.170 C 
ENDROOT
BRANCH   2   7
HETATM    7  O   UNL     1       1.866   0.065  -0.723  1.00  0.00    -0.395 OA
HETATM    8  H   UNL     1       1.247   0.054  -1.470  1.00  0.00     0.210 HD
ENDBRANCH   2   7
TORSDOF 1
