REMARK  3 active torsions:
REMARK  status: ('A' for Active; 'I' for Inactive)
REMARK    1  A    between atoms: C_3  and  C_7 
REMARK    2  A    between atoms: C_5  and  C_8 
REMARK    3  A    between atoms: C_8  and  O_10 
ROOT
HETATM    1  N   UNL     1      -0.680   1.160   0.000  1.00  0.00    -0.353 N 
ATOM      2  HN  UNL     1      -1.283   1.982  -0.031  1.00  0.00     0.166 HD
HETATM    3  C   UNL     1       0.637   1.200   0.028  1.00  0.00     0.085 A 
HETATM    4  S   UNL     1       1.394  -0.346   0.051  1.00  0.00    -0.072 SA
HETATM    5  C   UNL     1      -0.139  -1.110   0.041  1.00  0.00     0.030 A 
HETATM    6  C   UNL     1      -1.136  -0.151   0.018  1.00  0.00     0.021 A 
HETATM    7  C   UNL     1      -2.607  -0.370   0.006  1.00  0.00     0.069 C 
ENDROOT
BRANCH   3   8
HETATM    8  C   UNL     1       1.434   2.436  -0.030  1.00  0.00    -0.002 A 
HETATM    9  C   UNL     1       2.714   2.537   0.542  1.00  0.00     0.014 A 
HETATM   10  C   UNL     1       3.456   3.716   0.433  1.00  0.00     0.001 A 
HETATM   11  C   UNL     1       2.928   4.815  -0.239  1.00  0.00     0.000 A 
HETATM   12  C   UNL     1       1.650   4.742  -0.791  1.00  0.00     0.001 A 
HETATM   13  C   UNL     1       0.907   3.564  -0.680  1.00  0.00     0.014 A 
ENDBRANCH   3   8
BRANCH   5  14
HETATM   14  C   UNL     1      -0.235  -2.594   0.042  1.00  0.00     0.212 C 
BRANCH  14  15
HETATM   15  O   UNL     1      -0.914  -2.983   1.229  1.00  0.00    -0.396 OA
HETATM   16  H   UNL     1      -0.420  -2.667   2.002  1.00  0.00     0.209 HD
ENDBRANCH  14  15
ENDBRANCH   5  14
TORSDOF 3
