REMARK  3 active torsions:
REMARK  status: ('A' for Active; 'I' for Inactive)
REMARK    1  A    between atoms: C_3  and  C_7 
REMARK    2  A    between atoms: C_5  and  C_8 
REMARK    3  A    between atoms: C_8  and  N_9 
ROOT
HETATM    1  N   UNL     1      -0.678   1.182   0.041  1.00  0.00    -0.353 N 
ATOM      2  HN  UNL     1      -1.278   2.007   0.018  1.00  0.00     0.166 HD
HETATM    3  C   UNL     1       0.640   1.215   0.063  1.00  0.00     0.085 A 
HETATM    4  S   UNL     1       1.391  -0.333   0.102  1.00  0.00    -0.072 SA
HETATM    5  C   UNL     1      -0.145  -1.093   0.065  1.00  0.00     0.032 A 
HETATM    6  C   UNL     1      -1.139  -0.128   0.054  1.00  0.00     0.021 A 
HETATM    7  C   UNL     1      -2.611  -0.341   0.019  1.00  0.00     0.069 C 
ENDROOT
BRANCH   3   8
HETATM    8  C   UNL     1       1.444   2.446  -0.009  1.00  0.00    -0.002 A 
HETATM    9  C   UNL     1       2.727   2.547   0.557  1.00  0.00     0.014 A 
HETATM   10  C   UNL     1       3.467   3.727   0.442  1.00  0.00     0.001 A 
HETATM   11  C   UNL     1       2.938   4.824  -0.231  1.00  0.00     0.000 A 
HETATM   12  C   UNL     1       1.662   4.748  -0.784  1.00  0.00     0.001 A 
HETATM   13  C   UNL     1       0.919   3.569  -0.667  1.00  0.00     0.014 A 
ENDBRANCH   3   8
BRANCH   5  14
HETATM   14  C   UNL     1      -0.242  -2.585   0.034  1.00  0.00     0.279 C 
BRANCH  14  15
HETATM   15  N   UNL     1      -0.978  -3.087  -1.132  1.00  0.00    -0.075 N 
HETATM   16  C   UNL     1      -0.309  -2.777  -2.390  1.00  0.00     0.267 C 
HETATM   17  H   UNL     1      -1.906  -2.663  -1.141  1.00  0.00     0.277 HD
HETATM   18  H   UNL     1      -1.032  -4.103  -1.051  1.00  0.00     0.277 HD
ENDBRANCH  14  15
ENDBRANCH   5  14
TORSDOF 3
