REMARK  1 active torsions:
REMARK  status: ('A' for Active; 'I' for Inactive)
REMARK    1  A    between atoms: C_1  and  C_4 
REMARK       I    between atoms: C_4  and  N_8 
ROOT
HETATM    1  C   UNL     1      -0.808   1.291  -0.003  1.00  0.00     0.072 A 
HETATM    2  S   UNL     1      -1.433  -0.302  -0.007  1.00  0.00    -0.096 SA
HETATM    3  C   UNL     1       0.575   1.276   0.002  1.00  0.00     0.031 A 
HETATM    4  C   UNL     1       0.132  -0.993  -0.004  1.00  0.00     0.057 A 
HETATM    5  C   UNL     1       1.134  -0.042   0.001  1.00  0.00    -0.054 A 
HETATM    6  C   UNL     1       2.597  -0.328   0.004  1.00  0.00     0.048 C 
ENDROOT
BRANCH   1   7
HETATM    7  C   UNL     1      -1.654   2.471  -0.006  1.00  0.00     0.256 C 
HETATM    8  O   UNL     1      -1.226   3.623  -0.003  1.00  0.00    -0.267 OA
HETATM    9  N   UNL     1      -3.007   2.273  -0.013  1.00  0.00    -0.366 N 
HETATM   10  H   UNL     1      -3.370   1.358  -0.016  1.00  0.00     0.159 HD
HETATM   11  H   UNL     1      -3.618   3.045  -0.016  1.00  0.00     0.159 HD
ENDBRANCH   1   7
TORSDOF 1
