REMARK  3 active torsions:
REMARK  status: ('A' for Active; 'I' for Inactive)
REMARK    1  A    between atoms: C_1  and  C_7 
REMARK    2  A    between atoms: C_6  and  C_8 
REMARK    3  A    between atoms: C_8  and  O_9 
ROOT
HETATM    1  C   UNL     1      -0.832   0.898  -0.036  1.00  0.00     0.111 A 
HETATM    2  N   UNL     1       0.556  -0.623  -0.948  1.00  0.00    -0.263 N 
ATOM      3  HN  UNL     1       1.229  -1.073  -1.568  1.00  0.00     0.194 HD
HETATM    4  C   UNL     1      -0.916  -0.236   0.739  1.00  0.00     0.069 A 
HETATM    5  O   UNL     1       0.052   0.663  -1.049  1.00  0.00    -0.237 OA
HETATM    6  C   UNL     1      -0.027  -1.152   0.136  1.00  0.00     0.058 A 
ENDROOT
BRANCH   1   7
HETATM    7  C   UNL     1      -1.461   2.215   0.006  1.00  0.00    -0.000 A 
HETATM    8  C   UNL     1      -2.347   2.539   1.046  1.00  0.00     0.014 A 
HETATM    9  C   UNL     1      -2.963   3.792   1.102  1.00  0.00     0.001 A 
HETATM   10  C   UNL     1      -2.702   4.741   0.119  1.00  0.00     0.000 A 
HETATM   11  C   UNL     1      -1.825   4.440  -0.919  1.00  0.00     0.001 A 
HETATM   12  C   UNL     1      -1.208   3.186  -0.975  1.00  0.00     0.014 A 
ENDBRANCH   1   7
BRANCH   6  13
HETATM   13  C   UNL     1       0.281  -2.547   0.558  1.00  0.00     0.223 C 
BRANCH  13  14
HETATM   14  O   UNL     1       1.625  -2.931   0.268  1.00  0.00    -0.395 OA
HETATM   15  H   UNL     1       1.771  -2.896  -0.690  1.00  0.00     0.209 HD
ENDBRANCH  13  14
ENDBRANCH   6  13
TORSDOF 3
