REMARK  2 active torsions:
REMARK  status: ('A' for Active; 'I' for Inactive)
REMARK    1  A    between atoms: C_3  and  C_5 
REMARK    2  A    between atoms: C_10  and  N_12 
ROOT
HETATM    1  N   UNL     1       0.808   0.600  -1.185  1.00  0.00    -0.345 N 
ATOM      2  HN  UNL     1       1.035   1.064  -2.064  1.00  0.00     0.167 HD
HETATM    3  C   UNL     1       1.121   1.160   0.006  1.00  0.00     0.045 A 
HETATM    4  C   UNL     1       0.185  -0.594  -1.166  1.00  0.00     0.077 A 
HETATM    5  N   UNL     1      -0.140  -1.272  -0.051  1.00  0.00    -0.356 N 
ATOM      6  HN  UNL     1      -0.614  -2.174  -0.087  1.00  0.00     0.166 HD
HETATM    7  C   UNL     1       0.830   0.523   1.199  1.00  0.00     0.047 A 
HETATM    8  C   UNL     1       0.195  -0.693   1.112  1.00  0.00     0.091 A 
HETATM    9  C   UNL     1      -0.158  -1.232  -2.475  1.00  0.00     0.089 C 
ENDROOT
BRANCH   3  10
HETATM   10  C   UNL     1       1.812   2.468  -0.049  1.00  0.00    -0.007 A 
HETATM   11  C   UNL     1       1.682   3.423   0.981  1.00  0.00     0.042 A 
HETATM   12  C   UNL     1       2.352   4.652   0.947  1.00  0.00     0.026 A 
HETATM   13  C   UNL     1       3.237   4.904  -0.099  1.00  0.00     0.029 A 
HETATM   14  C   UNL     1       3.366   3.997  -1.149  1.00  0.00     0.003 A 
HETATM   15  C   UNL     1       2.651   2.797  -1.127  1.00  0.00     0.014 A 
BRANCH  12  16
HETATM   16  N   UNL     1       2.314   5.501   2.061  1.00  0.00    -0.399 N 
HETATM   17  H   UNL     1       1.687   5.318   2.798  1.00  0.00     0.156 HD
HETATM   18  H   UNL     1       2.914   6.279   2.108  1.00  0.00     0.156 HD
ENDBRANCH  12  16
ENDBRANCH   3  10
TORSDOF 2
