REMARK  2 active torsions:
REMARK  status: ('A' for Active; 'I' for Inactive)
REMARK    1  A    between atoms: C_6  and  C_10 
REMARK    2  A    between atoms: N_8  and  C_10 
ROOT
HETATM    1  C   UNL     1       0.045  -0.750   0.024  1.00  0.00    -0.024 A 
HETATM    2  C   UNL     1      -0.002   0.647  -0.011  1.00  0.00     0.075 A 
HETATM    3  O   UNL     1      -1.170   1.364  -0.020  1.00  0.00    -0.351 OA
HETATM    4  C   UNL     1       1.290  -1.390   0.075  1.00  0.00     0.018 A 
HETATM    5  C   UNL     1       1.175   1.389  -0.070  1.00  0.00     0.038 A 
HETATM    6  C   UNL     1       2.484  -0.654   0.028  1.00  0.00    -0.032 A 
HETATM    7  C   UNL     1       2.414   0.743  -0.052  1.00  0.00     0.011 A 
HETATM    8  C   UNL     1      -1.216  -1.567   0.020  1.00  0.00     0.043 C 
HETATM    9  C   UNL     1      -2.319   0.609   0.376  1.00  0.00     0.176 C 
HETATM   10  C   UNL     1      -2.405  -0.706  -0.379  1.00  0.00     0.031 C 
ENDROOT
BRANCH   6  11
HETATM   11  C   UNL     1       3.822  -1.355   0.069  1.00  0.00     0.270 C 
BRANCH  11  12
HETATM   12  N   UNL     1       3.980  -2.262  -1.069  1.00  0.00    -0.075 N 
HETATM   13  C   UNL     1       5.263  -2.945  -1.021  1.00  0.00     0.267 C 
HETATM   14  H   UNL     1       3.921  -1.724  -1.934  1.00  0.00     0.277 HD
HETATM   15  H   UNL     1       3.240  -2.962  -1.030  1.00  0.00     0.277 HD
ENDBRANCH  11  12
ENDBRANCH   6  11
TORSDOF 2
