REMARK  2 active torsions:
REMARK  status: ('A' for Active; 'I' for Inactive)
REMARK    1  A    between atoms: C_6  and  C_10 
REMARK    2  A    between atoms: N_8  and  C_10 
ROOT
HETATM    1  C   UNL     1       0.049  -0.756   0.015  1.00  0.00    -0.024 A 
HETATM    2  C   UNL     1       0.004   0.641  -0.014  1.00  0.00     0.075 A 
HETATM    3  O   UNL     1      -1.163   1.360  -0.022  1.00  0.00    -0.351 OA
HETATM    4  C   UNL     1       1.295  -1.398   0.063  1.00  0.00     0.018 A 
HETATM    5  C   UNL     1       1.183   1.382  -0.071  1.00  0.00     0.038 A 
HETATM    6  C   UNL     1       2.490  -0.660   0.040  1.00  0.00    -0.032 A 
HETATM    7  C   UNL     1       2.421   0.736  -0.047  1.00  0.00     0.011 A 
HETATM    8  C   UNL     1      -1.212  -1.570   0.017  1.00  0.00     0.043 C 
HETATM    9  C   UNL     1      -2.314   0.607   0.375  1.00  0.00     0.176 C 
HETATM   10  C   UNL     1      -2.401  -0.707  -0.381  1.00  0.00     0.031 C 
ENDROOT
BRANCH   6  11
HETATM   11  C   UNL     1       3.820  -1.367   0.088  1.00  0.00     0.268 C 
BRANCH  11  12
HETATM   12  N   UNL     1       3.961  -2.151   1.309  1.00  0.00    -0.075 N 
HETATM   13  H   UNL     1       4.869  -2.616   1.312  1.00  0.00     0.274 HD
HETATM   14  H   UNL     1       3.221  -2.851   1.351  1.00  0.00     0.274 HD
HETATM   15  H   UNL     1       3.893  -1.535   2.119  1.00  0.00     0.274 HD
ENDBRANCH  11  12
ENDBRANCH   6  11
TORSDOF 2
