REMARK  3 active torsions:
REMARK  status: ('A' for Active; 'I' for Inactive)
REMARK    1  A    between atoms: N_1  and  C_2 
REMARK    2  A    between atoms: C_5  and  C_13 
REMARK    3  A    between atoms: O_9  and  C_13 
ROOT
HETATM    1  C   UNL     1      -2.601   0.005  -0.932  1.00  0.00     0.030 A 
HETATM    2  C   UNL     1      -2.597   0.612  -2.196  1.00  0.00     0.038 A 
HETATM    3  C   UNL     1      -3.707   0.537  -3.061  1.00  0.00    -0.033 A 
HETATM    4  C   UNL     1      -3.773  -0.666  -0.551  1.00  0.00     0.029 A 
HETATM    5  C   UNL     1      -4.889  -0.737  -1.387  1.00  0.00     0.003 A 
HETATM    6  C   UNL     1      -4.855  -0.141  -2.641  1.00  0.00     0.009 A 
ENDROOT
BRANCH   1   7
HETATM    7  N   UNL     1      -1.526   0.055  -0.067  1.00  0.00    -0.377 N 
HETATM    8  C   UNL     1      -0.573   1.173  -0.027  1.00  0.00     0.149 C 
HETATM    9  C   UNL     1       0.823   0.729  -0.488  1.00  0.00     0.187 C 
HETATM   10  O   UNL     1       1.279  -0.428   0.232  1.00  0.00    -0.388 OA
HETATM   11  C   UNL     1       0.371  -1.523   0.030  1.00  0.00     0.187 C 
HETATM   12  C   UNL     1      -1.039  -1.192   0.546  1.00  0.00     0.149 C 
ENDBRANCH   1   7
BRANCH   3  13
HETATM   13  C   UNL     1      -3.648   1.160  -4.430  1.00  0.00     0.203 C 
BRANCH  13  14
HETATM   14  O   UNL     1      -3.427   2.561  -4.339  1.00  0.00    -0.396 OA
HETATM   15  H   UNL     1      -3.393   2.941  -5.230  1.00  0.00     0.209 HD
ENDBRANCH  13  14
ENDBRANCH   3  13
TORSDOF 3
