REMARK  5 active torsions:
REMARK  status: ('A' for Active; 'I' for Inactive)
REMARK    1  A    between atoms: N_1  and  C_2 
REMARK    2  A    between atoms: N_7  and  C_11 
REMARK    3  A    between atoms: N_7  and  C_12 
REMARK    4  A    between atoms: C_8  and  C_11 
REMARK    5  A    between atoms: C_12  and  C_13 
ROOT
HETATM    1  C   UNL     1       2.448   0.017   1.032  1.00  0.00     0.030 A 
HETATM    2  C   UNL     1       3.628  -0.659   0.688  1.00  0.00     0.030 A 
HETATM    3  C   UNL     1       2.464   0.710   2.251  1.00  0.00     0.030 A 
HETATM    4  C   UNL     1       4.758  -0.658   1.519  1.00  0.00     0.011 A 
HETATM    5  C   UNL     1       3.590   0.727   3.085  1.00  0.00     0.011 A 
HETATM    6  C   UNL     1       4.749   0.030   2.733  1.00  0.00    -0.033 A 
ENDROOT
BRANCH   6   7
HETATM    7  C   UNL     1       5.967   0.037   3.626  1.00  0.00     0.270 C 
BRANCH   7   8
HETATM    8  N   UNL     1       5.697  -0.606   4.912  1.00  0.00    -0.071 N 
HETATM    9  H   UNL     1       5.406  -1.569   4.749  1.00  0.00     0.277 HD
HETATM   10  H   UNL     1       4.959  -0.084   5.387  1.00  0.00     0.277 HD
BRANCH   8  11
HETATM   11  C   UNL     1       6.887  -0.603   5.761  1.00  0.00     0.232 C 
BRANCH  11  12
HETATM   12  C   UNL     1       6.599  -1.203   7.140  1.00  0.00     0.023 C 
HETATM   13  C   UNL     1       6.159  -2.659   7.089  1.00  0.00     0.007 C 
ENDBRANCH  11  12
ENDBRANCH   8  11
ENDBRANCH   7   8
ENDBRANCH   6   7
BRANCH   1  14
HETATM   14  N   UNL     1       1.334   0.002   0.215  1.00  0.00    -0.381 N 
HETATM   15  C   UNL     1       1.016  -1.137  -0.650  1.00  0.00     0.123 C 
HETATM   16  C   UNL     1       0.969  -0.672  -2.103  1.00  0.00     0.020 C 
HETATM   17  C   UNL     1      -0.005   0.494  -2.272  1.00  0.00     0.003 C 
HETATM   18  C   UNL     1       0.318   1.626  -1.298  1.00  0.00     0.020 C 
HETATM   19  C   UNL     1       0.401   1.127   0.147  1.00  0.00     0.123 C 
ENDBRANCH   1  14
TORSDOF 5
