REMARK  2 active torsions:
REMARK  status: ('A' for Active; 'I' for Inactive)
REMARK    1  A    between atoms: N_1  and  C_2 
REMARK    2  A    between atoms: C_5  and  N_6 
ROOT
HETATM    1  C   UNL     1      -2.627   0.052  -0.958  1.00  0.00     0.032 A 
HETATM    2  C   UNL     1      -2.887  -0.950  -1.907  1.00  0.00     0.058 A 
HETATM    3  C   UNL     1      -4.042  -0.953  -2.702  1.00  0.00     0.027 A 
HETATM    4  C   UNL     1      -3.566   1.087  -0.859  1.00  0.00     0.029 A 
HETATM    5  C   UNL     1      -4.695   1.135  -1.681  1.00  0.00     0.004 A 
HETATM    6  C   UNL     1      -4.914   0.128  -2.616  1.00  0.00     0.029 A 
ENDROOT
BRANCH   1   7
HETATM    7  N   UNL     1      -1.509   0.027  -0.148  1.00  0.00    -0.377 N 
HETATM    8  C   UNL     1      -0.825  -1.214   0.239  1.00  0.00     0.149 C 
HETATM    9  C   UNL     1       0.622  -1.202  -0.272  1.00  0.00     0.187 C 
HETATM   10  O   UNL     1       1.328  -0.036   0.186  1.00  0.00    -0.388 OA
HETATM   11  C   UNL     1       0.681   1.155  -0.295  1.00  0.00     0.187 C 
HETATM   12  C   UNL     1      -0.775   1.257   0.194  1.00  0.00     0.149 C 
ENDBRANCH   1   7
BRANCH   3  13
HETATM   13  N   UNL     1      -4.190  -1.899  -3.726  1.00  0.00    -0.399 N 
HETATM   14  H   UNL     1      -3.571  -2.663  -3.784  1.00  0.00     0.156 HD
HETATM   15  H   UNL     1      -4.912  -1.800  -4.388  1.00  0.00     0.156 HD
ENDBRANCH   3  13
TORSDOF 2
