REMARK  3 active torsions:
REMARK  status: ('A' for Active; 'I' for Inactive)
REMARK    1  A    between atoms: N_1  and  C_2 
REMARK    2  A    between atoms: C_3  and  C_8 
REMARK    3  A    between atoms: C_8  and  O_9 
ROOT
HETATM    1  C   UNL     1      -0.720  -2.446  -0.035  1.00  0.00     0.046 A 
HETATM    2  C   UNL     1      -1.552  -2.967  -1.059  1.00  0.00    -0.008 A 
HETATM    3  C   UNL     1      -0.243  -3.308   0.974  1.00  0.00     0.030 A 
HETATM    4  C   UNL     1      -1.807  -4.359  -1.059  1.00  0.00     0.011 A 
HETATM    5  C   UNL     1      -0.537  -4.671   0.959  1.00  0.00     0.002 A 
HETATM    6  C   UNL     1      -1.311  -5.196  -0.063  1.00  0.00     0.001 A 
ENDROOT
BRANCH   1   7
HETATM    7  N   UNL     1      -0.328  -1.072   0.040  1.00  0.00    -0.332 N 
HETATM    8  C   UNL     1      -0.042  -0.374   1.202  1.00  0.00     0.096 A 
HETATM    9  C   UNL     1       0.239   0.938   0.892  1.00  0.00     0.019 A 
HETATM   10  C   UNL     1       0.185   1.053  -0.510  1.00  0.00     0.019 A 
HETATM   11  C   UNL     1      -0.115  -0.197  -1.009  1.00  0.00     0.096 A 
ENDBRANCH   1   7
BRANCH   2  12
HETATM   12  C   UNL     1      -2.212  -2.119  -2.126  1.00  0.00     0.205 C 
BRANCH  12  13
HETATM   13  O   UNL     1      -3.485  -2.632  -2.514  1.00  0.00    -0.396 OA
HETATM   14  H   UNL     1      -3.375  -3.521  -2.886  1.00  0.00     0.209 HD
ENDBRANCH  12  13
ENDBRANCH   2  12
TORSDOF 3
