REMARK  3 active torsions:
REMARK  status: ('A' for Active; 'I' for Inactive)
REMARK    1  A    between atoms: N_1  and  C_2 
REMARK    2  A    between atoms: C_4  and  C_10 
REMARK    3  A    between atoms: N_5  and  C_10 
ROOT
HETATM    1  C   UNL     1       2.468  -0.001   1.045  1.00  0.00     0.030 A 
HETATM    2  C   UNL     1       3.684  -0.591   0.652  1.00  0.00     0.038 A 
HETATM    3  C   UNL     1       4.853  -0.514   1.431  1.00  0.00    -0.031 A 
HETATM    4  C   UNL     1       2.468   0.659   2.282  1.00  0.00     0.029 A 
HETATM    5  C   UNL     1       3.615   0.736   3.083  1.00  0.00     0.003 A 
HETATM    6  C   UNL     1       4.803   0.153   2.657  1.00  0.00     0.009 A 
ENDROOT
BRANCH   1   7
HETATM    7  N   UNL     1       1.340  -0.068   0.245  1.00  0.00    -0.381 N 
HETATM    8  C   UNL     1       1.431  -0.093  -1.216  1.00  0.00     0.123 C 
HETATM    9  C   UNL     1       0.683   1.111  -1.794  1.00  0.00     0.020 C 
HETATM   10  C   UNL     1      -0.750   1.188  -1.273  1.00  0.00     0.003 C 
HETATM   11  C   UNL     1      -0.780   1.155   0.255  1.00  0.00     0.020 C 
HETATM   12  C   UNL     1      -0.017  -0.053   0.795  1.00  0.00     0.123 C 
ENDBRANCH   1   7
BRANCH   3  13
HETATM   13  C   UNL     1       6.135  -1.142   0.949  1.00  0.00     0.268 C 
BRANCH  13  14
HETATM   14  N   UNL     1       7.186  -0.144   0.783  1.00  0.00    -0.075 N 
HETATM   15  H   UNL     1       8.039  -0.600   0.456  1.00  0.00     0.274 HD
HETATM   16  H   UNL     1       7.366   0.313   1.677  1.00  0.00     0.274 HD
HETATM   17  H   UNL     1       6.890   0.552   0.099  1.00  0.00     0.274 HD
ENDBRANCH  13  14
ENDBRANCH   3  13
TORSDOF 3
