REMARK  2 active torsions:
REMARK  status: ('A' for Active; 'I' for Inactive)
REMARK    1  A    between atoms: C_1  and  C_3 
REMARK    2  A    between atoms: C_9  and  N_10 
ROOT
HETATM    1  C   UNL     1      -0.557   2.537  -0.034  1.00  0.00    -0.002 A 
HETATM    2  C   UNL     1      -0.162   3.397  -1.068  1.00  0.00     0.016 A 
HETATM    3  C   UNL     1      -1.355   3.065   0.989  1.00  0.00     0.016 A 
HETATM    4  C   UNL     1      -1.359   5.258  -0.062  1.00  0.00     0.025 A 
HETATM    5  C   UNL     1      -0.540   4.746  -1.068  1.00  0.00     0.030 A 
HETATM    6  C   UNL     1      -1.730   4.415   0.985  1.00  0.00     0.030 A 
ENDROOT
BRANCH   1   7
HETATM    7  C   UNL     1      -0.110   1.146   0.009  1.00  0.00     0.085 A 
HETATM    8  O   UNL     1       0.743   0.749  -0.984  1.00  0.00    -0.322 OA
HETATM    9  C   UNL     1       1.075  -0.544  -0.745  1.00  0.00     0.142 A 
HETATM   10  C   UNL     1       0.444  -1.001   0.387  1.00  0.00     0.027 A 
HETATM   11  C   UNL     1      -0.326   0.085   0.871  1.00  0.00     0.040 A 
ENDBRANCH   1   7
BRANCH   4  12
HETATM   12  N   UNL     1      -1.597   6.634   0.022  1.00  0.00    -0.399 N 
HETATM   13  H   UNL     1      -1.333   7.225  -0.720  1.00  0.00     0.156 HD
HETATM   14  H   UNL     1      -2.027   7.011   0.823  1.00  0.00     0.156 HD
ENDBRANCH   4  12
TORSDOF 2
