REMARK  2 active torsions:
REMARK  status: ('A' for Active; 'I' for Inactive)
REMARK    1  A    between atoms: N_1  and  C_3 
REMARK    2  A    between atoms: C_2  and  C_4 
ROOT
HETATM    1  C   UNL     1       2.496  -0.027   1.027  1.00  0.00     0.031 A 
HETATM    2  C   UNL     1       3.892   0.927   2.806  1.00  0.00     0.043 A 
HETATM    3  C   UNL     1       2.740   0.952   2.004  1.00  0.00     0.047 A 
HETATM    4  C   UNL     1       3.469  -1.030   0.882  1.00  0.00     0.029 A 
HETATM    5  C   UNL     1       4.838  -0.084   2.631  1.00  0.00     0.018 A 
HETATM    6  C   UNL     1       4.626  -1.063   1.668  1.00  0.00     0.003 A 
ENDROOT
BRANCH   1   7
HETATM    7  N   UNL     1       1.344  -0.016   0.265  1.00  0.00    -0.381 N 
HETATM    8  C   UNL     1       0.719  -1.248  -0.220  1.00  0.00     0.123 C 
HETATM    9  C   UNL     1      -0.749  -1.265   0.212  1.00  0.00     0.020 C 
HETATM   10  C   UNL     1      -1.481   0.007  -0.212  1.00  0.00     0.003 C 
HETATM   11  C   UNL     1      -0.737   1.259   0.254  1.00  0.00     0.020 C 
HETATM   12  C   UNL     1       0.724   1.230  -0.189  1.00  0.00     0.123 C 
ENDBRANCH   1   7
BRANCH   2  13
HETATM   13  C   UNL     1       4.136   1.938   3.864  1.00  0.00     0.209 C 
HETATM   14  O   UNL     1       5.110   1.983   4.592  1.00  0.00    -0.644 OA
HETATM   15  O   UNL     1       3.146   2.840   3.973  1.00  0.00    -0.644 OA
ENDBRANCH   2  13
TORSDOF 2
