REMARK  2 active torsions:
REMARK  status: ('A' for Active; 'I' for Inactive)
REMARK    1  A    between atoms: C_1  and  C_2 
REMARK    2  A    between atoms: C_4  and  C_8 
ROOT
HETATM    1  C   UNL     1       0.217   0.109   1.169  1.00  0.00     0.041 A 
HETATM    2  C   UNL     1       0.616   1.037   2.142  1.00  0.00     0.030 A 
HETATM    3  C   UNL     1      -0.111   1.210   3.337  1.00  0.00    -0.025 A 
HETATM    4  C   UNL     1      -0.934  -0.655   1.367  1.00  0.00     0.018 A 
HETATM    5  C   UNL     1      -1.265   0.421   3.507  1.00  0.00     0.012 A 
HETATM    6  C   UNL     1      -1.672  -0.501   2.536  1.00  0.00     0.002 A 
ENDROOT
BRANCH   3   7
HETATM    7  C   UNL     1       0.331   2.181   4.369  1.00  0.00    -0.023 A 
HETATM    8  C   UNL     1       0.979   3.376   4.022  1.00  0.00     0.029 A 
HETATM    9  C   UNL     1       1.417   4.235   5.021  1.00  0.00     0.088 A 
HETATM   10  N   UNL     1       1.246   4.003   6.335  1.00  0.00    -0.375 N 
HETATM   11  C   UNL     1       0.605   2.864   6.665  1.00  0.00     0.088 A 
ATOM     12  HN  UNL     1       1.583   4.654   7.044  1.00  0.00     0.164 HD
HETATM   13  C   UNL     1       0.142   1.940   5.737  1.00  0.00     0.029 A 
ENDBRANCH   3   7
BRANCH   1  14
HETATM   14  C   UNL     1       0.955  -0.050  -0.109  1.00  0.00     0.209 C 
HETATM   15  O   UNL     1       0.409  -0.369  -1.150  1.00  0.00    -0.644 OA
HETATM   16  O   UNL     1       2.283   0.167  -0.016  1.00  0.00    -0.644 OA
ENDBRANCH   1  14
TORSDOF 2
