REMARK  3 active torsions:
REMARK  status: ('A' for Active; 'I' for Inactive)
REMARK    1  A    between atoms: C_1  and  C_5 
REMARK    2  A    between atoms: C_6  and  C_12 
REMARK    3  A    between atoms: N_7  and  C_12 
ROOT
HETATM    1  C   UNL     1       1.402  -0.201   0.054  1.00  0.00    -0.025 A 
HETATM    2  C   UNL     1       0.489  -1.271   0.044  1.00  0.00     0.021 A 
HETATM    3  C   UNL     1      -0.904  -1.072   0.021  1.00  0.00    -0.032 A 
HETATM    4  C   UNL     1       0.863   1.096  -0.008  1.00  0.00     0.012 A 
HETATM    5  C   UNL     1      -0.517   1.314  -0.040  1.00  0.00     0.001 A 
HETATM    6  C   UNL     1      -1.397   0.235  -0.021  1.00  0.00     0.009 A 
ENDROOT
BRANCH   1   7
HETATM    7  C   UNL     1       2.861  -0.438   0.173  1.00  0.00    -0.023 A 
HETATM    8  C   UNL     1       3.471  -1.590  -0.344  1.00  0.00     0.029 A 
HETATM    9  C   UNL     1       4.833  -1.787  -0.159  1.00  0.00     0.088 A 
HETATM   10  N   UNL     1       5.636  -0.918   0.487  1.00  0.00    -0.375 N 
HETATM   11  C   UNL     1       5.048   0.190   0.973  1.00  0.00     0.088 A 
ATOM     12  HN  UNL     1       6.635  -1.091   0.601  1.00  0.00     0.164 HD
HETATM   13  C   UNL     1       3.692   0.466   0.848  1.00  0.00     0.029 A 
ENDBRANCH   1   7
BRANCH   3  14
HETATM   14  C   UNL     1      -1.844  -2.256   0.057  1.00  0.00     0.270 C 
BRANCH  14  15
HETATM   15  N   UNL     1      -1.675  -3.025   1.291  1.00  0.00    -0.075 N 
HETATM   16  C   UNL     1      -2.574  -4.166   1.332  1.00  0.00     0.267 C 
HETATM   17  H   UNL     1      -1.869  -2.420   2.088  1.00  0.00     0.277 HD
HETATM   18  H   UNL     1      -0.716  -3.371   1.324  1.00  0.00     0.277 HD
ENDBRANCH  14  15
ENDBRANCH   3  14
TORSDOF 3
