REMARK  2 active torsions:
REMARK  status: ('A' for Active; 'I' for Inactive)
REMARK    1  A    between atoms: N_1  and  C_2 
REMARK    2  A    between atoms: C_9  and  N_10 
ROOT
HETATM    1  C   UNL     1      -3.059  -0.025   0.857  1.00  0.00     0.032 A 
HETATM    2  C   UNL     1      -3.401  -0.950   1.863  1.00  0.00     0.058 A 
HETATM    3  C   UNL     1      -4.659  -0.964   2.471  1.00  0.00     0.027 A 
HETATM    4  C   UNL     1      -4.056   0.856   0.433  1.00  0.00     0.029 A 
HETATM    5  C   UNL     1      -5.345   0.803   0.973  1.00  0.00     0.004 A 
HETATM    6  C   UNL     1      -5.647  -0.119   1.977  1.00  0.00     0.029 A 
ENDROOT
BRANCH   1   7
HETATM    7  N   UNL     1      -1.763   0.011   0.381  1.00  0.00    -0.378 N 
HETATM    8  C   UNL     1      -1.160   1.233  -0.162  1.00  0.00     0.150 C 
HETATM    9  C   UNL     1       0.358   1.223   0.157  1.00  0.00     0.254 C 
HETATM   10  N   UNL     1       1.049   0.007  -0.337  1.00  0.00    -0.072 N 
HETATM   11  C   UNL     1       0.371  -1.198   0.198  1.00  0.00     0.254 C 
HETATM   12  C   UNL     1       2.454   0.018   0.063  1.00  0.00     0.269 C 
HETATM   13  H   UNL     1       1.009  -0.007  -1.357  1.00  0.00     0.279 HD
HETATM   14  C   UNL     1      -1.141  -1.225  -0.123  1.00  0.00     0.150 C 
ENDBRANCH   1   7
BRANCH   3  15
HETATM   15  N   UNL     1      -4.972  -1.958   3.410  1.00  0.00    -0.399 N 
HETATM   16  H   UNL     1      -4.264  -2.551   3.754  1.00  0.00     0.156 HD
HETATM   17  H   UNL     1      -5.898  -2.064   3.726  1.00  0.00     0.156 HD
ENDBRANCH   3  15
TORSDOF 2
