REMARK  3 active torsions:
REMARK  status: ('A' for Active; 'I' for Inactive)
REMARK    1  A    between atoms: C_1  and  C_3 
REMARK    2  A    between atoms: C_7  and  C_10 
REMARK    3  A    between atoms: O_8  and  C_10 
ROOT
HETATM    1  C   UNL     1      -0.165   2.643  -0.088  1.00  0.00    -0.011 A 
HETATM    2  C   UNL     1       0.312   3.457  -1.146  1.00  0.00    -0.023 A 
HETATM    3  C   UNL     1      -1.003   3.247   0.878  1.00  0.00     0.013 A 
HETATM    4  C   UNL     1      -0.062   4.819  -1.189  1.00  0.00     0.010 A 
HETATM    5  C   UNL     1      -1.352   4.598   0.823  1.00  0.00     0.001 A 
HETATM    6  C   UNL     1      -0.881   5.386  -0.215  1.00  0.00     0.001 A 
ENDROOT
BRANCH   1   7
HETATM    7  C   UNL     1       0.147   1.198   0.053  1.00  0.00     0.015 A 
HETATM    8  S   UNL     1       0.456   0.530   1.619  1.00  0.00    -0.101 SA
HETATM    9  C   UNL     1       0.636  -1.052   1.010  1.00  0.00     0.050 A 
HETATM   10  C   UNL     1       0.527  -1.086  -0.360  1.00  0.00     0.008 A 
HETATM   11  C   UNL     1       0.233   0.199  -0.905  1.00  0.00     0.020 A 
ENDBRANCH   1   7
BRANCH   2  12
HETATM   12  C   UNL     1       1.211   2.970  -2.257  1.00  0.00     0.203 C 
BRANCH  12  13
HETATM   13  O   UNL     1       2.470   2.515  -1.785  1.00  0.00    -0.396 OA
HETATM   14  H   UNL     1       3.007   2.214  -2.534  1.00  0.00     0.209 HD
ENDBRANCH  12  13
ENDBRANCH   2  12
TORSDOF 3
