REMARK  2 active torsions:
REMARK  status: ('A' for Active; 'I' for Inactive)
REMARK    1  A    between atoms: C_1  and  C_5 
REMARK    2  A    between atoms: C_6  and  N_7 
ROOT
HETATM    1  C   UNL     1      -1.157   1.226   0.015  1.00  0.00    -0.024 A 
HETATM    2  C   UNL     1       0.252   1.186  -0.012  1.00  0.00     0.041 A 
HETATM    3  C   UNL     1       0.968  -0.019  -0.001  1.00  0.00     0.026 A 
HETATM    4  C   UNL     1      -1.830  -0.009   0.017  1.00  0.00     0.012 A 
HETATM    5  C   UNL     1      -1.131  -1.218  -0.015  1.00  0.00     0.003 A 
HETATM    6  C   UNL     1       0.261  -1.219  -0.048  1.00  0.00     0.029 A 
ENDROOT
BRANCH   1   7
HETATM    7  C   UNL     1      -1.897   2.512   0.028  1.00  0.00    -0.023 A 
HETATM    8  C   UNL     1      -1.405   3.653  -0.624  1.00  0.00     0.029 A 
HETATM    9  C   UNL     1      -2.128   4.837  -0.573  1.00  0.00     0.088 A 
HETATM   10  N   UNL     1      -3.306   4.972   0.066  1.00  0.00    -0.375 N 
HETATM   11  C   UNL     1      -3.778   3.873   0.683  1.00  0.00     0.088 A 
ATOM     12  HN  UNL     1      -3.812   5.858   0.081  1.00  0.00     0.164 HD
HETATM   13  C   UNL     1      -3.122   2.650   0.698  1.00  0.00     0.029 A 
ENDBRANCH   1   7
BRANCH   3  14
HETATM   14  N   UNL     1       2.358  -0.013  -0.178  1.00  0.00    -0.399 N 
HETATM   15  H   UNL     1       2.855   0.836  -0.144  1.00  0.00     0.156 HD
HETATM   16  H   UNL     1       2.838  -0.858  -0.336  1.00  0.00     0.156 HD
ENDBRANCH   3  14
TORSDOF 2
