REMARK  3 active torsions:
REMARK  status: ('A' for Active; 'I' for Inactive)
REMARK    1  A    between atoms: C_1  and  C_5 
REMARK    2  A    between atoms: C_6  and  C_12 
REMARK    3  A    between atoms: O_7  and  C_12 
ROOT
HETATM    1  C   UNL     1       1.387  -0.238   0.094  1.00  0.00    -0.025 A 
HETATM    2  C   UNL     1       0.466  -1.303   0.053  1.00  0.00     0.021 A 
HETATM    3  C   UNL     1      -0.925  -1.092   0.016  1.00  0.00    -0.034 A 
HETATM    4  C   UNL     1       0.855   1.064   0.071  1.00  0.00     0.012 A 
HETATM    5  C   UNL     1      -0.524   1.290   0.013  1.00  0.00     0.002 A 
HETATM    6  C   UNL     1      -1.411   0.217  -0.009  1.00  0.00     0.009 A 
ENDROOT
BRANCH   1   7
HETATM    7  C   UNL     1       2.848  -0.484   0.176  1.00  0.00    -0.023 A 
HETATM    8  C   UNL     1       3.781   0.385  -0.408  1.00  0.00     0.029 A 
HETATM    9  C   UNL     1       5.139   0.111  -0.296  1.00  0.00     0.088 A 
HETATM   10  N   UNL     1       5.639  -0.964   0.343  1.00  0.00    -0.375 N 
HETATM   11  C   UNL     1       4.740  -1.797   0.901  1.00  0.00     0.088 A 
ATOM     12  HN  UNL     1       6.642  -1.137   0.401  1.00  0.00     0.164 HD
HETATM   13  C   UNL     1       3.367  -1.599   0.850  1.00  0.00     0.029 A 
ENDBRANCH   1   7
BRANCH   3  14
HETATM   14  C   UNL     1      -1.863  -2.269   0.026  1.00  0.00     0.202 C 
BRANCH  14  15
HETATM   15  O   UNL     1      -1.651  -3.093  -1.112  1.00  0.00    -0.396 OA
HETATM   16  H   UNL     1      -2.265  -3.844  -1.087  1.00  0.00     0.209 HD
ENDBRANCH  14  15
ENDBRANCH   3  14
TORSDOF 3
