REMARK  3 active torsions:
REMARK  status: ('A' for Active; 'I' for Inactive)
REMARK    1  A    between atoms: N_1  and  C_2 
REMARK    2  A    between atoms: C_4  and  C_9 
REMARK    3  A    between atoms: C_9  and  O_11 
ROOT
HETATM    1  C   UNL     1      -3.040   0.042   0.771  1.00  0.00     0.038 A 
HETATM    2  C   UNL     1      -3.590   1.097   1.553  1.00  0.00    -0.008 A 
HETATM    3  C   UNL     1      -3.886  -1.073   0.543  1.00  0.00     0.030 A 
HETATM    4  C   UNL     1      -4.942   1.033   1.967  1.00  0.00     0.011 A 
HETATM    5  C   UNL     1      -5.200  -1.145   1.013  1.00  0.00     0.002 A 
HETATM    6  C   UNL     1      -5.736  -0.080   1.714  1.00  0.00     0.001 A 
ENDROOT
BRANCH   1   7
HETATM    7  N   UNL     1      -1.716   0.015   0.323  1.00  0.00    -0.377 N 
HETATM    8  C   UNL     1      -1.097   1.174  -0.352  1.00  0.00     0.150 C 
HETATM    9  C   UNL     1       0.406   1.213   0.023  1.00  0.00     0.254 C 
HETATM   10  N   UNL     1       1.118  -0.002  -0.438  1.00  0.00    -0.072 N 
HETATM   11  C   UNL     1       0.438  -1.207   0.094  1.00  0.00     0.254 C 
HETATM   12  C   UNL     1       2.513   0.020  -0.000  1.00  0.00     0.269 C 
HETATM   13  H   UNL     1       1.102  -0.026  -1.457  1.00  0.00     0.279 HD
HETATM   14  C   UNL     1      -1.093  -1.243  -0.160  1.00  0.00     0.150 C 
ENDBRANCH   1   7
BRANCH   2  15
HETATM   15  C   UNL     1      -2.793   2.308   1.985  1.00  0.00     0.205 C 
BRANCH  15  16
HETATM   16  O   UNL     1      -3.220   2.848   3.236  1.00  0.00    -0.396 OA
HETATM   17  H   UNL     1      -4.140   3.145   3.163  1.00  0.00     0.209 HD
ENDBRANCH  15  16
ENDBRANCH   2  15
TORSDOF 3
