REMARK  2 active torsions:
REMARK  status: ('A' for Active; 'I' for Inactive)
REMARK    1  A    between atoms: N_1  and  C_2 
REMARK    2  A    between atoms: C_6  and  N_9 
ROOT
HETATM    1  C   UNL     1      -3.044  -0.078   0.878  1.00  0.00     0.056 A 
HETATM    2  C   UNL     1      -3.395  -0.960   1.939  1.00  0.00     0.052 A 
HETATM    3  C   UNL     1      -4.045   0.777   0.390  1.00  0.00     0.031 A 
HETATM    4  C   UNL     1      -4.714  -1.047   2.389  1.00  0.00     0.031 A 
HETATM    5  C   UNL     1      -5.349   0.734   0.898  1.00  0.00     0.002 A 
HETATM    6  C   UNL     1      -5.686  -0.181   1.890  1.00  0.00     0.002 A 
ENDROOT
BRANCH   1   7
HETATM    7  N   UNL     1      -1.725  -0.017   0.435  1.00  0.00    -0.376 N 
HETATM    8  C   UNL     1      -1.162   1.223  -0.113  1.00  0.00     0.150 C 
HETATM    9  C   UNL     1       0.364   1.221   0.159  1.00  0.00     0.254 C 
HETATM   10  N   UNL     1       1.058   0.022  -0.375  1.00  0.00    -0.072 N 
HETATM   11  C   UNL     1       0.381  -1.212   0.101  1.00  0.00     0.254 C 
HETATM   12  C   UNL     1       2.461   0.022   0.037  1.00  0.00     0.269 C 
HETATM   13  H   UNL     1       1.020   0.046  -1.394  1.00  0.00     0.279 HD
HETATM   14  C   UNL     1      -1.138  -1.214  -0.201  1.00  0.00     0.150 C 
ENDBRANCH   1   7
BRANCH   2  15
HETATM   15  N   UNL     1      -2.432  -1.859   2.465  1.00  0.00    -0.397 N 
HETATM   16  H   UNL     1      -1.497  -1.812   2.159  1.00  0.00     0.156 HD
HETATM   17  H   UNL     1      -2.697  -2.528   3.136  1.00  0.00     0.156 HD
ENDBRANCH   2  15
TORSDOF 2
