REMARK  3 active torsions:
REMARK  status: ('A' for Active; 'I' for Inactive)
REMARK    1  A    between atoms: N_1  and  C_2 
REMARK    2  A    between atoms: C_4  and  C_10 
REMARK    3  A    between atoms: N_9  and  C_10 
ROOT
HETATM    1  C   UNL     1      -3.045   0.048   0.778  1.00  0.00     0.038 A 
HETATM    2  C   UNL     1      -3.572   1.096   1.593  1.00  0.00    -0.006 A 
HETATM    3  C   UNL     1      -3.903  -1.052   0.540  1.00  0.00     0.030 A 
HETATM    4  C   UNL     1      -4.914   1.012   2.048  1.00  0.00     0.011 A 
HETATM    5  C   UNL     1      -5.208  -1.133   1.039  1.00  0.00     0.002 A 
HETATM    6  C   UNL     1      -5.720  -0.091   1.786  1.00  0.00     0.001 A 
ENDROOT
BRANCH   1   7
HETATM    7  N   UNL     1      -1.736   0.019   0.294  1.00  0.00    -0.377 N 
HETATM    8  C   UNL     1      -1.101   1.180  -0.356  1.00  0.00     0.150 C 
HETATM    9  C   UNL     1       0.393   1.207   0.050  1.00  0.00     0.254 C 
HETATM   10  N   UNL     1       1.108  -0.003  -0.418  1.00  0.00    -0.072 N 
HETATM   11  C   UNL     1       0.415  -1.211   0.090  1.00  0.00     0.254 C 
HETATM   12  C   UNL     1       2.497   0.014   0.036  1.00  0.00     0.269 C 
HETATM   13  H   UNL     1       1.107  -0.016  -1.438  1.00  0.00     0.279 HD
HETATM   14  C   UNL     1      -1.112  -1.237  -0.189  1.00  0.00     0.150 C 
ENDBRANCH   1   7
BRANCH   2  15
HETATM   15  C   UNL     1      -2.762   2.317   1.989  1.00  0.00     0.270 C 
BRANCH  15  16
HETATM   16  N   UNL     1      -3.141   2.973   3.248  1.00  0.00    -0.075 N 
HETATM   17  H   UNL     1      -2.533   3.776   3.410  1.00  0.00     0.274 HD
HETATM   18  H   UNL     1      -3.044   2.312   4.018  1.00  0.00     0.274 HD
HETATM   19  H   UNL     1      -4.110   3.288   3.189  1.00  0.00     0.274 HD
ENDBRANCH  15  16
ENDBRANCH   2  15
TORSDOF 3
