REMARK  1 active torsions:
REMARK  status: ('A' for Active; 'I' for Inactive)
REMARK    1  A    between atoms: N_1  and  C_3 
ROOT
HETATM    1  C   UNL     1       2.824   0.908   2.062  1.00  0.00     0.140 A 
HETATM    2  C   UNL     1       2.493  -0.019   1.048  1.00  0.00     0.068 A 
HETATM    3  N   UNL     1       1.227   2.826   2.807  1.00  0.00    -0.190 NA
HETATM    4  C   UNL     1       1.936   1.962   2.486  1.00  0.00     0.120 C 
HETATM    5  N   UNL     1       3.977   0.885   2.798  1.00  0.00    -0.356 N 
ATOM      6  HN  UNL     1       4.163   1.589   3.513  1.00  0.00     0.166 HD
HETATM    7  C   UNL     1       3.459  -1.022   0.848  1.00  0.00     0.034 A 
HETATM    8  C   UNL     1       4.854  -0.100   2.543  1.00  0.00     0.089 A 
HETATM    9  C   UNL     1       4.640  -1.071   1.590  1.00  0.00     0.019 A 
ENDROOT
BRANCH   2  10
HETATM   10  N   UNL     1       1.335  -0.010   0.284  1.00  0.00    -0.378 N 
HETATM   11  C   UNL     1       0.707  -1.241  -0.210  1.00  0.00     0.123 C 
HETATM   12  C   UNL     1      -0.761  -1.250   0.224  1.00  0.00     0.020 C 
HETATM   13  C   UNL     1      -1.489   0.024  -0.206  1.00  0.00     0.003 C 
HETATM   14  C   UNL     1      -0.731   1.279   0.229  1.00  0.00     0.020 C 
HETATM   15  C   UNL     1       0.727   1.223  -0.226  1.00  0.00     0.123 C 
ENDBRANCH   2  10
TORSDOF 1
