REMARK  2 active torsions:
REMARK  status: ('A' for Active; 'I' for Inactive)
REMARK    1  A    between atoms: C_1  and  C_5 
REMARK    2  A    between atoms: C_6  and  N_7 
ROOT
HETATM    1  C   UNL     1      -1.154   1.221   0.019  1.00  0.00    -0.022 A 
HETATM    2  C   UNL     1       0.256   1.185  -0.010  1.00  0.00     0.041 A 
HETATM    3  C   UNL     1       0.974  -0.018   0.003  1.00  0.00     0.026 A 
HETATM    4  C   UNL     1      -1.824  -0.015   0.025  1.00  0.00     0.012 A 
HETATM    5  C   UNL     1      -1.122  -1.222  -0.008  1.00  0.00     0.003 A 
HETATM    6  C   UNL     1       0.270  -1.220  -0.045  1.00  0.00     0.029 A 
ENDROOT
BRANCH   1   7
HETATM    7  C   UNL     1      -1.895   2.503   0.028  1.00  0.00    -0.011 A 
HETATM    8  C   UNL     1      -3.114   2.658   0.696  1.00  0.00     0.099 A 
HETATM    9  N   UNL     1      -3.848   3.800   0.742  1.00  0.00    -0.374 N 
HETATM   10  C   UNL     1      -3.344   4.867   0.093  1.00  0.00     0.087 A 
ATOM     11  HN  UNL     1      -4.736   3.847   1.242  1.00  0.00     0.164 HD
HETATM   12  C   UNL     1      -2.146   4.843  -0.598  1.00  0.00     0.018 A 
HETATM   13  C   UNL     1      -1.424   3.649  -0.632  1.00  0.00     0.015 A 
ENDBRANCH   1   7
BRANCH   3  14
HETATM   14  N   UNL     1       2.364  -0.010  -0.174  1.00  0.00    -0.399 N 
HETATM   15  H   UNL     1       2.860   0.839  -0.140  1.00  0.00     0.156 HD
HETATM   16  H   UNL     1       2.844  -0.855  -0.333  1.00  0.00     0.156 HD
ENDBRANCH   3  14
TORSDOF 2
