REMARK  2 active torsions:
REMARK  status: ('A' for Active; 'I' for Inactive)
REMARK    1  A    between atoms: C_1  and  C_5 
REMARK    2  A    between atoms: C_5  and  C_6 
ROOT
HETATM    1  C   UNL     1      -1.552  -1.252   0.038  1.00  0.00    -0.013 A 
HETATM    2  C   UNL     1      -2.316  -0.102  -0.010  1.00  0.00     0.151 A 
HETATM    3  O   UNL     1      -1.533   1.005  -0.025  1.00  0.00    -0.321 OA
HETATM    4  C   UNL     1      -0.192  -0.810   0.021  1.00  0.00     0.006 A 
HETATM    5  C   UNL     1      -0.241   0.579  -0.007  1.00  0.00     0.085 A 
HETATM    6  C   UNL     1       1.071  -1.432   0.027  1.00  0.00     0.015 A 
HETATM    7  C   UNL     1       0.882   1.404  -0.017  1.00  0.00     0.038 A 
HETATM    8  C   UNL     1       2.221  -0.628   0.004  1.00  0.00     0.001 A 
HETATM    9  C   UNL     1       2.126   0.766  -0.014  1.00  0.00     0.003 A 
ENDROOT
BRANCH   1  10
HETATM   10  C   UNL     1      -2.045  -2.658   0.081  1.00  0.00     0.154 C 
BRANCH  10  11
HETATM   11  C   UNL     1      -2.221  -3.239  -1.300  1.00  0.00     0.177 C 
HETATM   12  O   UNL     1      -2.535  -2.651  -2.323  1.00  0.00    -0.648 OA
HETATM   13  O   UNL     1      -2.053  -4.578  -1.323  1.00  0.00    -0.648 OA
ENDBRANCH  10  11
ENDBRANCH   1  10
TORSDOF 2
