REMARK  3 active torsions:
REMARK  status: ('A' for Active; 'I' for Inactive)
REMARK    1  A    between atoms: C_3  and  C_7 
REMARK    2  A    between atoms: C_12  and  C_15 
REMARK    3  A    between atoms: O_13  and  C_15 
ROOT
HETATM    1  C   UNL     1       2.077  -2.378  -0.067  1.00  0.00    -0.009 A 
HETATM    2  C   UNL     1       1.955  -3.313  -1.103  1.00  0.00     0.014 A 
HETATM    3  C   UNL     1       3.075  -2.571   0.897  1.00  0.00     0.014 A 
HETATM    4  C   UNL     1       2.827  -4.405  -1.189  1.00  0.00     0.010 A 
HETATM    5  C   UNL     1       3.945  -3.663   0.814  1.00  0.00     0.010 A 
HETATM    6  C   UNL     1       3.832  -4.588  -0.232  1.00  0.00    -0.035 A 
ENDROOT
BRANCH   1   7
HETATM    7  C   UNL     1       1.169  -1.237  -0.010  1.00  0.00     0.049 A 
HETATM    8  N   UNL     1      -0.123  -1.310  -0.514  1.00  0.00    -0.353 N 
HETATM    9  C   UNL     1      -0.740  -0.162  -0.341  1.00  0.00     0.047 A 
ATOM     10  HN  UNL     1      -0.533  -2.134  -0.954  1.00  0.00     0.166 HD
HETATM   11  S   UNL     1       0.193   1.080   0.394  1.00  0.00    -0.087 SA
HETATM   12  C   UNL     1      -2.150   0.110  -0.736  1.00  0.00     0.076 C 
HETATM   13  C   UNL     1       1.515  -0.003   0.507  1.00  0.00     0.081 A 
ENDBRANCH   1   7
BRANCH   6  14
HETATM   14  C   UNL     1       4.771  -5.762  -0.305  1.00  0.00     0.202 C 
BRANCH  14  15
HETATM   15  O   UNL     1       6.113  -5.319  -0.453  1.00  0.00    -0.396 OA
HETATM   16  H   UNL     1       6.704  -6.087  -0.498  1.00  0.00     0.209 HD
ENDBRANCH  14  15
ENDBRANCH   6  14
TORSDOF 3
