REMARK  4 active torsions:
REMARK  status: ('A' for Active; 'I' for Inactive)
REMARK    1  A    between atoms: N_1  and  C_2 
REMARK    2  A    between atoms: C_2  and  C_4 
REMARK    3  A    between atoms: C_6  and  C_14 
REMARK    4  A    between atoms: O_9  and  C_14 
ROOT
HETATM    1  C   UNL     1      -0.333  -0.208  -2.678  1.00  0.00    -0.032 A 
HETATM    2  C   UNL     1       0.199   0.938  -3.291  1.00  0.00     0.018 A 
HETATM    3  C   UNL     1       1.163   0.839  -4.306  1.00  0.00    -0.034 A 
HETATM    4  C   UNL     1       1.158  -1.566  -4.035  1.00  0.00     0.001 A 
HETATM    5  C   UNL     1       0.164  -1.462  -3.057  1.00  0.00     0.009 A 
HETATM    6  C   UNL     1       1.645  -0.424  -4.668  1.00  0.00     0.009 A 
ENDROOT
BRANCH   1   7
HETATM    7  C   UNL     1      -1.508  -0.086  -1.735  1.00  0.00     0.273 C 
BRANCH   7   8
HETATM    8  N   UNL     1      -1.264   0.044  -0.303  1.00  0.00    -0.063 N 
HETATM    9  C   UNL     1      -0.489   1.213   0.127  1.00  0.00     0.261 C 
HETATM   10  C   UNL     1       1.020   0.959   0.259  1.00  0.00     0.195 C 
HETATM   11  O   UNL     1       1.281  -0.168   1.105  1.00  0.00    -0.388 OA
HETATM   12  C   UNL     1       0.671  -1.343   0.558  1.00  0.00     0.195 C 
HETATM   13  C   UNL     1      -0.846  -1.173   0.399  1.00  0.00     0.261 C 
HETATM   14  H   UNL     1      -2.219   0.225   0.006  1.00  0.00     0.280 HD
ENDBRANCH   7   8
ENDBRANCH   1   7
BRANCH   3  15
HETATM   15  C   UNL     1       1.593   2.075  -5.050  1.00  0.00     0.202 C 
BRANCH  15  16
HETATM   16  O   UNL     1       0.473   2.650  -5.715  1.00  0.00    -0.396 OA
HETATM   17  H   UNL     1       0.754   3.446  -6.193  1.00  0.00     0.209 HD
ENDBRANCH  15  16
ENDBRANCH   3  15
TORSDOF 4
