REMARK  2 active torsions:
REMARK  status: ('A' for Active; 'I' for Inactive)
REMARK    1  A    between atoms: C_1  and  C_4 
REMARK    2  A    between atoms: C_7  and  N_8 
ROOT
HETATM    1  C   UNL     1      -1.860   0.002   0.011  1.00  0.00    -0.025 A 
HETATM    2  C   UNL     1      -1.124  -1.195  -0.030  1.00  0.00     0.014 A 
HETATM    3  C   UNL     1      -1.122   1.198   0.016  1.00  0.00     0.014 A 
HETATM    4  C   UNL     1       0.993   0.001  -0.000  1.00  0.00     0.025 A 
HETATM    5  C   UNL     1       0.278  -1.194  -0.052  1.00  0.00     0.030 A 
HETATM    6  C   UNL     1       0.280   1.197  -0.019  1.00  0.00     0.030 A 
ENDROOT
BRANCH   1   7
HETATM    7  C   UNL     1      -3.340   0.003   0.017  1.00  0.00    -0.011 A 
HETATM    8  C   UNL     1      -4.087  -1.004   0.636  1.00  0.00     0.099 A 
HETATM    9  N   UNL     1      -5.443  -1.076   0.663  1.00  0.00    -0.374 N 
HETATM   10  C   UNL     1      -6.112  -0.082   0.046  1.00  0.00     0.087 A 
ATOM     11  HN  UNL     1      -5.930  -1.843   1.126  1.00  0.00     0.164 HD
HETATM   12  C   UNL     1      -5.489   0.974  -0.592  1.00  0.00     0.018 A 
HETATM   13  C   UNL     1      -4.094   1.009  -0.607  1.00  0.00     0.015 A 
ENDBRANCH   1   7
BRANCH   4  14
HETATM   14  N   UNL     1       2.381   0.002  -0.171  1.00  0.00    -0.399 N 
HETATM   15  H   UNL     1       2.881   0.849  -0.133  1.00  0.00     0.156 HD
HETATM   16  H   UNL     1       2.858  -0.845  -0.328  1.00  0.00     0.156 HD
ENDBRANCH   4  14
TORSDOF 2
