REMARK  3 active torsions:
REMARK  status: ('A' for Active; 'I' for Inactive)
REMARK    1  A    between atoms: C_3  and  C_6 
REMARK    2  A    between atoms: C_6  and  C_10 
REMARK    3  A    between atoms: O_7  and  C_10 
ROOT
HETATM    1  O   UNL     1      -1.498   1.049  -0.152  1.00  0.00    -0.321 OA
HETATM    2  C   UNL     1      -2.296  -0.048  -0.142  1.00  0.00     0.150 A 
HETATM    3  C   UNL     1      -1.548  -1.207  -0.068  1.00  0.00    -0.021 A 
HETATM    4  C   UNL     1      -0.184  -0.781  -0.035  1.00  0.00     0.006 A 
HETATM    5  C   UNL     1      -0.213   0.608  -0.082  1.00  0.00     0.085 A 
HETATM    6  C   UNL     1       1.069  -1.420   0.026  1.00  0.00     0.015 A 
HETATM    7  C   UNL     1       0.922   1.416  -0.062  1.00  0.00     0.038 A 
HETATM    8  C   UNL     1       2.230  -0.635   0.041  1.00  0.00     0.001 A 
HETATM    9  C   UNL     1       2.156   0.761   0.002  1.00  0.00     0.003 A 
ENDROOT
BRANCH   3  10
HETATM   10  C   UNL     1      -2.059  -2.610  -0.015  1.00  0.00     0.067 C 
BRANCH  10  11
HETATM   11  C   UNL     1      -2.225  -3.247  -1.395  1.00  0.00     0.168 C 
BRANCH  11  12
HETATM   12  O   UNL     1      -0.977  -3.379  -2.070  1.00  0.00    -0.401 OA
HETATM   13  H   UNL     1      -1.121  -3.786  -2.939  1.00  0.00     0.209 HD
ENDBRANCH  11  12
ENDBRANCH  10  11
ENDBRANCH   3  10
TORSDOF 3
