REMARK  2 active torsions:
REMARK  status: ('A' for Active; 'I' for Inactive)
REMARK    1  A    between atoms: C_1  and  C_2 
REMARK    2  A    between atoms: C_3  and  C_11 
ROOT
HETATM    1  C   UNL     1       0.262  -0.301  -1.091  1.00  0.00     0.040 A 
HETATM    2  C   UNL     1      -1.086  -1.126  -3.451  1.00  0.00    -0.025 A 
HETATM    3  C   UNL     1       0.700  -1.423  -1.800  1.00  0.00     0.019 A 
HETATM    4  C   UNL     1      -0.836   0.421  -1.563  1.00  0.00     0.019 A 
HETATM    5  C   UNL     1       0.034  -1.826  -2.965  1.00  0.00     0.013 A 
HETATM    6  C   UNL     1      -1.509  -0.001  -2.716  1.00  0.00     0.013 A 
ENDROOT
BRANCH   2   7
HETATM    7  C   UNL     1      -1.774  -1.530  -4.699  1.00  0.00    -0.011 A 
HETATM    8  C   UNL     1      -2.374  -0.598  -5.552  1.00  0.00     0.099 A 
HETATM    9  N   UNL     1      -3.022  -0.889  -6.709  1.00  0.00    -0.374 N 
HETATM   10  C   UNL     1      -3.071  -2.187  -7.061  1.00  0.00     0.087 A 
ATOM     11  HN  UNL     1      -3.450  -0.161  -7.282  1.00  0.00     0.164 HD
HETATM   12  C   UNL     1      -2.510  -3.202  -6.308  1.00  0.00     0.018 A 
HETATM   13  C   UNL     1      -1.864  -2.867  -5.116  1.00  0.00     0.015 A 
ENDBRANCH   2   7
BRANCH   1  14
HETATM   14  C   UNL     1       1.015   0.113   0.116  1.00  0.00     0.209 C 
HETATM   15  O   UNL     1       2.211  -0.078   0.249  1.00  0.00    -0.644 OA
HETATM   16  O   UNL     1       0.245   0.681   1.069  1.00  0.00    -0.644 OA
ENDBRANCH   1  14
TORSDOF 2
