REMARK  1 active torsions:
REMARK  status: ('A' for Active; 'I' for Inactive)
REMARK    1  A    between atoms: C_1  and  C_6 
ROOT
HETATM    1  C   UNL     1      -2.023   1.130  -0.002  1.00  0.00     0.113 A 
HETATM    2  N   UNL     1      -1.815  -0.237   0.006  1.00  0.00    -0.345 N 
HETATM    3  C   UNL     1      -0.774   1.745   0.000  1.00  0.00     0.058 A 
HETATM    4  C   UNL     1      -0.456  -0.481   0.002  1.00  0.00     0.052 A 
HETATM    5  C   UNL     1       0.197   0.712   0.001  1.00  0.00     0.034 A 
HETATM    6  S   UNL     1       1.918   0.528   0.000  1.00  0.00    -0.100 SA
HETATM    7  C   UNL     1       0.416  -1.605  -0.000  1.00  0.00     0.038 A 
HETATM    8  C   UNL     1       1.728  -1.181  -0.003  1.00  0.00     0.053 A 
HETATM    9  C   UNL     1      -2.771  -1.318   0.019  1.00  0.00     0.157 C 
ENDROOT
BRANCH   1  10
HETATM   10  C   UNL     1      -3.306   1.797  -0.012  1.00  0.00     0.227 C 
HETATM   11  O   UNL     1      -4.422   1.301  -0.020  1.00  0.00    -0.643 OA
HETATM   12  O   UNL     1      -3.161   3.140  -0.014  1.00  0.00    -0.643 OA
ENDBRANCH   1  10
TORSDOF 1
