REMARK  3 active torsions:
REMARK  status: ('A' for Active; 'I' for Inactive)
REMARK    1  A    between atoms: C_1  and  C_4 
REMARK    2  A    between atoms: C_9  and  C_13 
REMARK    3  A    between atoms: O_11  and  C_13 
ROOT
HETATM    1  C   UNL     1       1.366  -0.235   0.098  1.00  0.00    -0.025 A 
HETATM    2  C   UNL     1       0.454  -1.303   0.016  1.00  0.00     0.013 A 
HETATM    3  C   UNL     1       0.827   1.064   0.080  1.00  0.00     0.013 A 
HETATM    4  C   UNL     1      -0.927  -1.087  -0.072  1.00  0.00     0.010 A 
HETATM    5  C   UNL     1      -0.552   1.285  -0.020  1.00  0.00     0.010 A 
HETATM    6  C   UNL     1      -1.443   0.210  -0.094  1.00  0.00    -0.035 A 
ENDROOT
BRANCH   1   7
HETATM    7  C   UNL     1       2.825  -0.467   0.204  1.00  0.00    -0.011 A 
HETATM    8  C   UNL     1       3.764   0.409  -0.349  1.00  0.00     0.099 A 
HETATM    9  N   UNL     1       5.113   0.268  -0.272  1.00  0.00    -0.374 N 
HETATM   10  C   UNL     1       5.571  -0.814   0.387  1.00  0.00     0.087 A 
ATOM     11  HN  UNL     1       5.747   0.947  -0.692  1.00  0.00     0.164 HD
HETATM   12  C   UNL     1       4.742  -1.759   0.964  1.00  0.00     0.018 A 
HETATM   13  C   UNL     1       3.362  -1.576   0.874  1.00  0.00     0.015 A 
ENDBRANCH   1   7
BRANCH   6  14
HETATM   14  C   UNL     1      -2.924   0.456  -0.207  1.00  0.00     0.202 C 
BRANCH  14  15
HETATM   15  O   UNL     1      -3.404   1.150   0.937  1.00  0.00    -0.396 OA
HETATM   16  H   UNL     1      -4.358   1.300   0.847  1.00  0.00     0.209 HD
ENDBRANCH  14  15
ENDBRANCH   6  14
TORSDOF 3
