REMARK  3 active torsions:
REMARK  status: ('A' for Active; 'I' for Inactive)
REMARK    1  A    between atoms: C_1  and  C_5 
REMARK    2  A    between atoms: N_12  and  C_14 
REMARK    3  A    between atoms: C_13  and  C_14 
ROOT
HETATM    1  C   UNL     1      -0.068  -2.591  -0.052  1.00  0.00    -0.002 A 
HETATM    2  C   UNL     1       0.475  -3.403   0.956  1.00  0.00     0.015 A 
HETATM    3  C   UNL     1      -0.822  -3.208  -1.061  1.00  0.00     0.015 A 
HETATM    4  C   UNL     1      -1.038  -4.590  -1.055  1.00  0.00     0.010 A 
HETATM    5  C   UNL     1       0.266  -4.787   0.961  1.00  0.00     0.010 A 
HETATM    6  C   UNL     1      -0.489  -5.397  -0.048  1.00  0.00    -0.033 A 
ENDROOT
BRANCH   1   7
HETATM    7  C   UNL     1       0.192  -1.141  -0.032  1.00  0.00     0.084 A 
HETATM    8  N   UNL     1       1.266  -0.583   0.497  1.00  0.00    -0.359 N 
HETATM    9  C   UNL     1       1.216   0.788   0.347  1.00  0.00     0.096 A 
ATOM     10  HN  UNL     1       2.024  -1.092   0.951  1.00  0.00     0.166 HD
HETATM   11  C   UNL     1       0.085   1.278  -0.264  1.00  0.00     0.069 A 
HETATM   12  S   UNL     1      -0.952  -0.017  -0.677  1.00  0.00    -0.082 SA
ENDBRANCH   1   7
BRANCH   6  13
HETATM   13  C   UNL     1      -0.712  -6.893  -0.055  1.00  0.00     0.270 C 
BRANCH  13  14
HETATM   14  N   UNL     1      -0.083  -7.519  -1.219  1.00  0.00    -0.075 N 
HETATM   15  C   UNL     1      -0.321  -8.954  -1.240  1.00  0.00     0.267 C 
HETATM   16  H   UNL     1       0.923  -7.349  -1.184  1.00  0.00     0.277 HD
HETATM   17  H   UNL     1      -0.488  -7.112  -2.062  1.00  0.00     0.277 HD
ENDBRANCH  13  14
ENDBRANCH   6  13
TORSDOF 3
