REMARK  2 active torsions:
REMARK  status: ('A' for Active; 'I' for Inactive)
REMARK    1  A    between atoms: C_3  and  C_8 
REMARK    2  A    between atoms: C_7  and  C_9 
ROOT
HETATM    1  C   UNL     1       2.072  -2.403  -0.058  1.00  0.00    -0.009 A 
HETATM    2  C   UNL     1       3.836  -4.595  -0.233  1.00  0.00     0.040 A 
HETATM    3  C   UNL     1       1.958  -3.330  -1.104  1.00  0.00     0.015 A 
HETATM    4  C   UNL     1       3.064  -2.602   0.914  1.00  0.00     0.015 A 
HETATM    5  C   UNL     1       3.941  -3.687   0.826  1.00  0.00     0.019 A 
HETATM    6  C   UNL     1       2.837  -4.417  -1.197  1.00  0.00     0.019 A 
ENDROOT
BRANCH   1   7
HETATM    7  C   UNL     1       1.170  -1.259  -0.003  1.00  0.00     0.049 A 
HETATM    8  N   UNL     1      -0.114  -1.319  -0.529  1.00  0.00    -0.353 N 
HETATM    9  C   UNL     1      -0.724  -0.165  -0.363  1.00  0.00     0.047 A 
ATOM     10  HN  UNL     1      -0.524  -2.138  -0.978  1.00  0.00     0.166 HD
HETATM   11  S   UNL     1       0.206   1.064   0.397  1.00  0.00    -0.087 SA
HETATM   12  C   UNL     1      -2.121   0.124  -0.788  1.00  0.00     0.076 C 
HETATM   13  C   UNL     1       1.517  -0.031   0.527  1.00  0.00     0.081 A 
ENDBRANCH   1   7
BRANCH   2  14
HETATM   14  C   UNL     1       4.801  -5.719  -0.290  1.00  0.00     0.209 C 
HETATM   15  O   UNL     1       5.702  -5.925   0.502  1.00  0.00    -0.644 OA
HETATM   16  O   UNL     1       4.594  -6.535  -1.339  1.00  0.00    -0.644 OA
ENDBRANCH   2  14
TORSDOF 2
