REMARK  3 active torsions:
REMARK  status: ('A' for Active; 'I' for Inactive)
REMARK    1  A    between atoms: C_1  and  C_2 
REMARK    2  A    between atoms: C_9  and  C_15 
REMARK    3  A    between atoms: O_12  and  C_15 
ROOT
HETATM    1  C   UNL     1       1.377  -0.229   0.096  1.00  0.00    -0.023 A 
HETATM    2  C   UNL     1       0.459  -1.297   0.062  1.00  0.00     0.021 A 
HETATM    3  C   UNL     1      -0.931  -1.089   0.021  1.00  0.00    -0.034 A 
HETATM    4  C   UNL     1       0.844   1.072   0.068  1.00  0.00     0.012 A 
HETATM    5  C   UNL     1      -0.536   1.294   0.011  1.00  0.00     0.002 A 
HETATM    6  C   UNL     1      -1.421   0.218  -0.007  1.00  0.00     0.009 A 
ENDROOT
BRANCH   1   7
HETATM    7  C   UNL     1       2.832  -0.471   0.171  1.00  0.00     0.005 A 
HETATM    8  C   UNL     1       3.785   0.367  -0.390  1.00  0.00     0.102 A 
HETATM    9  N   UNL     1       5.123   0.170  -0.337  1.00  0.00    -0.361 N 
HETATM   10  C   UNL     1       5.520  -0.935   0.308  1.00  0.00     0.180 A 
ATOM     11  HN  UNL     1       5.785   0.820  -0.760  1.00  0.00     0.166 HD
HETATM   12  N   UNL     1       4.717  -1.828   0.896  1.00  0.00    -0.361 N 
HETATM   13  C   UNL     1       3.392  -1.567   0.812  1.00  0.00     0.102 A 
ATOM     14  HN  UNL     1       5.079  -2.652   1.376  1.00  0.00     0.166 HD
ENDBRANCH   1   7
BRANCH   3  15
HETATM   15  C   UNL     1      -1.868  -2.269   0.026  1.00  0.00     0.202 C 
BRANCH  15  16
HETATM   16  O   UNL     1      -1.641  -3.091  -1.110  1.00  0.00    -0.396 OA
HETATM   17  H   UNL     1      -2.252  -3.845  -1.091  1.00  0.00     0.209 HD
ENDBRANCH  15  16
ENDBRANCH   3  15
TORSDOF 3
