REMARK  2 active torsions:
REMARK  status: ('A' for Active; 'I' for Inactive)
REMARK    1  A    between atoms: C_1  and  C_2 
REMARK    2  A    between atoms: C_4  and  C_7 
ROOT
HETATM    1  C   UNL     1       0.344  -0.844  -0.878  1.00  0.00     0.041 A 
HETATM    2  C   UNL     1       0.791  -2.174  -0.893  1.00  0.00     0.032 A 
HETATM    3  C   UNL     1       0.174  -3.145  -1.701  1.00  0.00    -0.009 A 
HETATM    4  C   UNL     1      -0.717  -0.452  -1.701  1.00  0.00     0.018 A 
HETATM    5  C   UNL     1      -0.911  -2.726  -2.495  1.00  0.00     0.014 A 
HETATM    6  C   UNL     1      -1.350  -1.398  -2.501  1.00  0.00     0.002 A 
ENDROOT
BRANCH   3   7
HETATM    7  C   UNL     1       0.624  -4.554  -1.721  1.00  0.00     0.042 A 
HETATM    8  N   UNL     1      -0.340  -5.473  -1.993  1.00  0.00    -0.365 N 
HETATM    9  C   UNL     1       0.012  -6.777  -2.008  1.00  0.00     0.088 A 
ATOM     10  HN  UNL     1      -1.301  -5.186  -2.180  1.00  0.00     0.165 HD
HETATM   11  C   UNL     1       1.296  -7.231  -1.767  1.00  0.00     0.017 A 
HETATM   12  C   UNL     1       2.279  -6.290  -1.500  1.00  0.00     0.004 A 
HETATM   13  C   UNL     1       1.944  -4.938  -1.477  1.00  0.00     0.030 A 
ENDBRANCH   3   7
BRANCH   1  14
HETATM   14  C   UNL     1       1.054   0.118  -0.001  1.00  0.00     0.209 C 
HETATM   15  O   UNL     1       2.239   0.019   0.266  1.00  0.00    -0.644 OA
HETATM   16  O   UNL     1       0.258   1.080   0.511  1.00  0.00    -0.644 OA
ENDBRANCH   1  14
TORSDOF 2
