REMARK  3 active torsions:
REMARK  status: ('A' for Active; 'I' for Inactive)
REMARK    1  A    between atoms: C_3  and  C_4 
REMARK    2  A    between atoms: C_9  and  C_12 
REMARK    3  A    between atoms: O_10  and  C_12 
ROOT
HETATM    1  C   UNL     1      -1.533   2.350  -0.046  1.00  0.00    -0.009 A 
HETATM    2  C   UNL     1      -1.371   3.282  -1.087  1.00  0.00     0.014 A 
HETATM    3  C   UNL     1      -2.517   2.632   0.918  1.00  0.00     0.014 A 
HETATM    4  C   UNL     1      -3.303   3.785   0.850  1.00  0.00     0.010 A 
HETATM    5  C   UNL     1      -2.156   4.440  -1.161  1.00  0.00     0.010 A 
HETATM    6  C   UNL     1      -3.127   4.705  -0.188  1.00  0.00    -0.035 A 
ENDROOT
BRANCH   1   7
HETATM    7  C   UNL     1      -0.687   1.139   0.035  1.00  0.00     0.042 A 
HETATM    8  N   UNL     1       0.564   1.253  -0.484  1.00  0.00    -0.365 N 
HETATM    9  C   UNL     1       1.388   0.186  -0.390  1.00  0.00     0.088 A 
ATOM     10  HN  UNL     1       0.871   2.117  -0.931  1.00  0.00     0.165 HD
HETATM   11  C   UNL     1       1.032  -1.015   0.196  1.00  0.00     0.017 A 
HETATM   12  C   UNL     1      -0.251  -1.134   0.707  1.00  0.00     0.004 A 
HETATM   13  C   UNL     1      -1.122  -0.050   0.623  1.00  0.00     0.030 A 
ENDBRANCH   1   7
BRANCH   6  14
HETATM   14  C   UNL     1      -3.959   5.957  -0.257  1.00  0.00     0.202 C 
BRANCH  14  15
HETATM   15  O   UNL     1      -3.134   7.112  -0.176  1.00  0.00    -0.396 OA
HETATM   16  H   UNL     1      -3.688   7.907  -0.223  1.00  0.00     0.209 HD
ENDBRANCH  14  15
ENDBRANCH   6  14
TORSDOF 3
