REMARK  1 active torsions:
REMARK  status: ('A' for Active; 'I' for Inactive)
REMARK    1  A    between atoms: C_8  and  N_10 
ROOT
HETATM    1  N   UNL     1      -1.586  -1.093   0.024  1.00  0.00    -0.360 N 
HETATM    2  C   UNL     1      -0.269  -0.682   0.024  1.00  0.00     0.044 A 
HETATM    3  C   UNL     1      -0.284   0.715   0.010  1.00  0.00    -0.006 A 
HETATM    4  C   UNL     1      -2.423  -0.006   0.015  1.00  0.00     0.091 A 
HETATM    5  C   UNL     1      -1.644   1.127   0.008  1.00  0.00     0.031 A 
HETATM    6  C   UNL     1       0.935  -1.401   0.011  1.00  0.00     0.033 A 
HETATM    7  C   UNL     1       0.943   1.414  -0.019  1.00  0.00     0.042 A 
HETATM    8  C   UNL     1       2.156   0.716   0.008  1.00  0.00     0.026 A 
HETATM    9  C   UNL     1       2.136  -0.677  -0.020  1.00  0.00     0.031 A 
HETATM   10  C   UNL     1      -2.065  -2.457   0.011  1.00  0.00     0.155 C 
ENDROOT
BRANCH   8  11
HETATM   11  N   UNL     1       3.363   1.406  -0.179  1.00  0.00    -0.399 N 
HETATM   12  H   UNL     1       3.376   2.390  -0.159  1.00  0.00     0.156 HD
HETATM   13  H   UNL     1       4.198   0.906  -0.330  1.00  0.00     0.156 HD
ENDBRANCH   8  11
TORSDOF 1
