REMARK  1 active torsions:
REMARK  status: ('A' for Active; 'I' for Inactive)
REMARK    1  A    between atoms: C_1  and  C_2 
ROOT
HETATM    1  C   UNL     1       0.199  -0.881  -0.742  1.00  0.00     0.222 C 
HETATM    2  O   UNL     1       0.713  -2.205  -0.544  1.00  0.00    -0.375 OA
HETATM    3  C   UNL     1       0.645  -2.670   0.810  1.00  0.00     0.168 C 
HETATM    4  C   UNL     1      -1.226  -0.741  -0.215  1.00  0.00     0.043 C 
HETATM    5  C   UNL     1      -0.754  -2.568   1.406  1.00  0.00     0.026 C 
HETATM    6  C   UNL     1      -1.314  -1.163   1.245  1.00  0.00     0.005 C 
ENDROOT
BRANCH   1   7
HETATM    7  C   UNL     1       1.146   0.205  -0.204  1.00  0.00     0.203 C 
HETATM    8  O   UNL     1       0.809   1.293   0.227  1.00  0.00    -0.646 OA
HETATM    9  O   UNL     1       2.447  -0.180  -0.294  1.00  0.00    -0.646 OA
ENDBRANCH   1   7
TORSDOF 1
