REMARK  1 active torsions:
REMARK  status: ('A' for Active; 'I' for Inactive)
REMARK    1  A    between atoms: C_6  and  C_7 
ROOT
HETATM    1  N   UNL     1       1.530   0.333  -0.007  1.00  0.00    -0.360 N 
HETATM    2  C   UNL     1      -0.310  -0.929  -0.009  1.00  0.00    -0.007 A 
HETATM    3  C   UNL     1       0.150   0.390   0.002  1.00  0.00     0.044 A 
HETATM    4  C   UNL     1       1.951  -0.970  -0.001  1.00  0.00     0.091 A 
HETATM    5  C   UNL     1       0.834  -1.774  -0.005  1.00  0.00     0.031 A 
HETATM    6  C   UNL     1      -2.588  -0.083  -0.021  1.00  0.00     0.041 A 
HETATM    7  C   UNL     1      -1.699  -1.170  -0.021  1.00  0.00     0.032 A 
HETATM    8  C   UNL     1      -0.725   1.487   0.012  1.00  0.00     0.031 A 
HETATM    9  C   UNL     1      -2.100   1.227   0.000  1.00  0.00     0.021 A 
HETATM   10  C   UNL     1       2.407   1.482  -0.038  1.00  0.00     0.155 C 
ENDROOT
BRANCH   6  11
HETATM   11  C   UNL     1      -4.042  -0.373  -0.050  1.00  0.00     0.209 C 
HETATM   12  O   UNL     1      -4.552  -1.478  -0.073  1.00  0.00    -0.644 OA
HETATM   13  O   UNL     1      -4.798   0.741  -0.054  1.00  0.00    -0.644 OA
ENDBRANCH   6  11
TORSDOF 1
