REMARK  2 active torsions:
REMARK  status: ('A' for Active; 'I' for Inactive)
REMARK    1  A    between atoms: C_1  and  C_3 
REMARK    2  A    between atoms: C_2  and  C_5 
ROOT
HETATM    1  C   UNL     1       1.406  -0.223   0.078  1.00  0.00     0.051 A 
HETATM    2  C   UNL     1       0.541  -1.342   0.022  1.00  0.00    -0.008 A 
HETATM    3  C   UNL     1       0.894   1.092   0.067  1.00  0.00     0.019 A 
HETATM    4  C   UNL     1      -0.847  -1.055  -0.037  1.00  0.00     0.013 A 
HETATM    5  C   UNL     1      -0.476   1.326   0.015  1.00  0.00     0.001 A 
HETATM    6  C   UNL     1      -1.348   0.250  -0.030  1.00  0.00     0.001 A 
ENDROOT
BRANCH   2   7
HETATM    7  C   UNL     1       0.965  -2.766  -0.018  1.00  0.00    -0.009 A 
HETATM    8  C   UNL     1       0.237  -3.772   0.634  1.00  0.00     0.099 A 
HETATM    9  N   UNL     1       0.504  -5.102   0.595  1.00  0.00    -0.374 N 
HETATM   10  C   UNL     1       1.585  -5.476  -0.113  1.00  0.00     0.087 A 
ATOM     11  HN  UNL     1      -0.084  -5.782   1.077  1.00  0.00     0.164 HD
HETATM   12  C   UNL     1       2.397  -4.582  -0.786  1.00  0.00     0.018 A 
HETATM   13  C   UNL     1       2.070  -3.225  -0.751  1.00  0.00     0.015 A 
ENDBRANCH   2   7
BRANCH   1  14
HETATM   14  C   UNL     1       2.877  -0.345   0.226  1.00  0.00     0.210 C 
HETATM   15  O   UNL     1       3.488  -1.132   0.917  1.00  0.00    -0.644 OA
HETATM   16  O   UNL     1       3.520   0.564  -0.537  1.00  0.00    -0.644 OA
ENDBRANCH   1  14
TORSDOF 2
