REMARK  3 active torsions:
REMARK  status: ('A' for Active; 'I' for Inactive)
REMARK    1  A    between atoms: C_1  and  C_7 
REMARK    2  A    between atoms: C_2  and  C_8 
REMARK    3  A    between atoms: C_8  and  O_10 
ROOT
HETATM    1  C   UNL     1       1.187  -1.247  -0.034  1.00  0.00     0.058 A 
HETATM    2  C   UNL     1       1.633   0.070   0.027  1.00  0.00     0.035 A 
HETATM    3  N   UNL     1      -0.195  -1.396  -0.010  1.00  0.00    -0.353 N 
ATOM      4  HN  UNL     1      -0.683  -2.292  -0.003  1.00  0.00     0.166 HD
HETATM    5  S   UNL     1       0.267   1.125  -0.001  1.00  0.00    -0.077 SA
HETATM    6  C   UNL     1      -0.785  -0.224   0.003  1.00  0.00     0.047 A 
HETATM    7  C   UNL     1      -2.259  -0.021   0.003  1.00  0.00     0.076 C 
ENDROOT
BRANCH   1   8
HETATM    8  C   UNL     1       2.033  -2.440  -0.103  1.00  0.00    -0.008 A 
HETATM    9  C   UNL     1       1.610  -3.618   0.531  1.00  0.00     0.014 A 
HETATM   10  C   UNL     1       2.376  -4.786   0.461  1.00  0.00     0.001 A 
HETATM   11  C   UNL     1       3.577  -4.790  -0.244  1.00  0.00     0.000 A 
HETATM   12  C   UNL     1       4.005  -3.633  -0.890  1.00  0.00     0.001 A 
HETATM   13  C   UNL     1       3.230  -2.471  -0.832  1.00  0.00     0.014 A 
ENDBRANCH   1   8
BRANCH   2  14
HETATM   14  C   UNL     1       3.023   0.620   0.060  1.00  0.00     0.212 C 
BRANCH  14  15
HETATM   15  O   UNL     1       3.045   1.867   0.746  1.00  0.00    -0.396 OA
HETATM   16  H   UNL     1       2.471   2.499   0.285  1.00  0.00     0.209 HD
ENDBRANCH  14  15
ENDBRANCH   2  14
TORSDOF 3
