REMARK  3 active torsions:
REMARK  status: ('A' for Active; 'I' for Inactive)
REMARK    1  A    between atoms: C_1  and  C_6 
REMARK    2  A    between atoms: C_7  and  C_12 
REMARK    3  A    between atoms: C_12  and  O_13 
ROOT
HETATM    1  C   UNL     1       1.121  -0.574  -0.002  1.00  0.00     0.067 A 
HETATM    2  N   UNL     1      -0.184  -0.985  -0.075  1.00  0.00    -0.299 N 
HETATM    3  N   UNL     1      -1.077   0.025  -0.087  1.00  0.00    -0.302 N 
ATOM      4  HN  UNL     1      -2.094  -0.033  -0.137  1.00  0.00     0.186 HD
HETATM    5  C   UNL     1       1.062   0.802   0.039  1.00  0.00     0.061 A 
HETATM    6  C   UNL     1      -0.312   1.125  -0.018  1.00  0.00     0.051 A 
HETATM    7  H   UNL     1      -0.446  -1.933  -0.114  1.00  0.00     0.187 HD
ENDROOT
BRANCH   1   8
HETATM    8  C   UNL     1       2.252  -1.458   0.019  1.00  0.00     0.033 A 
HETATM    9  S   UNL     1       2.087  -3.165  -0.034  1.00  0.00    -0.100 SA
HETATM   10  C   UNL     1       3.780  -3.404   0.008  1.00  0.00     0.050 A 
HETATM   11  C   UNL     1       4.466  -2.213   0.068  1.00  0.00     0.008 A 
HETATM   12  C   UNL     1       3.585  -1.093   0.077  1.00  0.00     0.021 A 
ENDBRANCH   1   8
BRANCH   6  13
HETATM   13  C   UNL     1      -0.935   2.484  -0.010  1.00  0.00     0.222 C 
BRANCH  13  14
HETATM   14  O   UNL     1      -2.235   2.474   0.580  1.00  0.00    -0.395 OA
HETATM   15  H   UNL     1      -2.819   1.895   0.066  1.00  0.00     0.209 HD
ENDBRANCH  13  14
ENDBRANCH   6  13
TORSDOF 3
