REMARK  3 active torsions:
REMARK  status: ('A' for Active; 'I' for Inactive)
REMARK    1  A    between atoms: N_3  and  C_7 
REMARK    2  A    between atoms: C_7  and  C_8 
REMARK    3  A    between atoms: C_9  and  N_10 
ROOT
HETATM    1  C   UNL     1      -0.211  -3.174  -1.242  1.00  0.00    -0.040 A 
HETATM    2  C   UNL     1       0.660  -4.292  -3.691  1.00  0.00     0.025 A 
HETATM    3  C   UNL     1       1.581  -3.888  -2.723  1.00  0.00     0.029 A 
HETATM    4  C   UNL     1      -0.699  -4.098  -3.438  1.00  0.00     0.029 A 
HETATM    5  C   UNL     1       1.154  -3.356  -1.501  1.00  0.00     0.011 A 
HETATM    6  C   UNL     1      -1.135  -3.560  -2.221  1.00  0.00     0.011 A 
ENDROOT
BRANCH   1   7
HETATM    7  C   UNL     1      -0.667  -2.497   0.025  1.00  0.00     0.167 C 
BRANCH   7   8
HETATM    8  N   UNL     1      -0.757  -1.054  -0.147  1.00  0.00    -0.347 N 
HETATM    9  C   UNL     1      -1.864  -0.367  -0.559  1.00  0.00     0.182 A 
HETATM   10  N   UNL     1      -1.632   0.926  -0.618  1.00  0.00    -0.361 N 
HETATM   11  C   UNL     1      -0.328   1.076  -0.219  1.00  0.00     0.106 A 
ATOM     12  HN  UNL     1      -2.282   1.660  -0.900  1.00  0.00     0.166 HD
HETATM   13  C   UNL     1       0.227  -0.141   0.103  1.00  0.00     0.109 A 
ENDBRANCH   7   8
ENDBRANCH   1   7
BRANCH   2  14
HETATM   14  N   UNL     1       1.095  -4.644  -4.973  1.00  0.00    -0.399 N 
HETATM   15  H   UNL     1       2.054  -4.780  -5.148  1.00  0.00     0.156 HD
HETATM   16  H   UNL     1       0.442  -4.756  -5.701  1.00  0.00     0.156 HD
ENDBRANCH   2  14
TORSDOF 3
