REMARK  3 active torsions:
REMARK  status: ('A' for Active; 'I' for Inactive)
REMARK    1  A    between atoms: N_1  and  C_2 
REMARK    2  A    between atoms: C_3  and  C_6 
REMARK    3  A    between atoms: C_6  and  O_7 
ROOT
HETATM    1  C   UNL     1      -2.232   1.063   0.525  1.00  0.00     0.038 A 
HETATM    2  C   UNL     1      -2.825   0.518   1.691  1.00  0.00    -0.008 A 
HETATM    3  C   UNL     1      -2.916   2.172  -0.035  1.00  0.00     0.030 A 
HETATM    4  C   UNL     1      -3.959   1.143   2.280  1.00  0.00     0.011 A 
HETATM    5  C   UNL     1      -4.041   2.771   0.544  1.00  0.00     0.002 A 
HETATM    6  C   UNL     1      -4.559   2.261   1.716  1.00  0.00     0.001 A 
ENDROOT
BRANCH   1   7
HETATM    7  N   UNL     1      -1.086   0.586  -0.101  1.00  0.00    -0.380 N 
HETATM    8  C   UNL     1      -0.011  -0.170   0.548  1.00  0.00     0.123 C 
HETATM    9  C   UNL     1       1.269   0.435  -0.022  1.00  0.00     0.021 C 
HETATM   10  C   UNL     1       0.880   0.727  -1.454  1.00  0.00     0.021 C 
HETATM   11  C   UNL     1      -0.560   1.214  -1.329  1.00  0.00     0.123 C 
ENDBRANCH   1   7
BRANCH   2  12
HETATM   12  C   UNL     1      -2.360  -0.723   2.415  1.00  0.00     0.205 C 
BRANCH  12  13
HETATM   13  O   UNL     1      -1.477  -0.396   3.485  1.00  0.00    -0.396 OA
HETATM   14  H   UNL     1      -0.694   0.055   3.132  1.00  0.00     0.209 HD
ENDBRANCH  12  13
ENDBRANCH   2  12
TORSDOF 3
