REMARK  2 active torsions:
REMARK  status: ('A' for Active; 'I' for Inactive)
REMARK    1  A    between atoms: C_8  and  C_12 
REMARK    2  A    between atoms: O_11  and  C_12 
ROOT
HETATM    1  N   UNL     1       1.557   0.329  -0.013  1.00  0.00    -0.360 N 
HETATM    2  C   UNL     1       0.178   0.383  -0.009  1.00  0.00     0.044 A 
HETATM    3  C   UNL     1       1.981  -0.974  -0.010  1.00  0.00     0.091 A 
HETATM    4  C   UNL     1       0.865  -1.780  -0.011  1.00  0.00     0.031 A 
HETATM    5  C   UNL     1      -0.279  -0.936  -0.013  1.00  0.00    -0.008 A 
HETATM    6  C   UNL     1      -0.703   1.477  -0.005  1.00  0.00     0.039 A 
HETATM    7  C   UNL     1      -1.665  -1.177  -0.019  1.00  0.00     0.014 A 
HETATM    8  C   UNL     1      -2.088   1.223  -0.010  1.00  0.00    -0.033 A 
HETATM    9  C   UNL     1      -2.555  -0.095  -0.018  1.00  0.00     0.010 A 
HETATM   10  C   UNL     1       2.433   1.479  -0.031  1.00  0.00     0.155 C 
ENDROOT
BRANCH   8  11
HETATM   11  C   UNL     1      -3.056   2.378  -0.012  1.00  0.00     0.203 C 
BRANCH  11  12
HETATM   12  O   UNL     1      -2.921   3.146   1.177  1.00  0.00    -0.396 OA
HETATM   13  H   UNL     1      -3.551   3.883   1.159  1.00  0.00     0.209 HD
ENDBRANCH  11  12
ENDBRANCH   8  11
TORSDOF 2
