REMARK  3 active torsions:
REMARK  status: ('A' for Active; 'I' for Inactive)
REMARK    1  A    between atoms: C_1  and  C_3 
REMARK    2  A    between atoms: C_8  and  C_12 
REMARK    3  A    between atoms: N_9  and  C_12 
ROOT
HETATM    1  C   UNL     1      -0.206   2.653  -0.001  1.00  0.00    -0.018 A 
HETATM    2  C   UNL     1       0.229   3.435  -1.085  1.00  0.00     0.021 A 
HETATM    3  C   UNL     1      -0.133   4.787  -1.220  1.00  0.00    -0.032 A 
HETATM    4  C   UNL     1      -0.991   3.273   0.981  1.00  0.00     0.013 A 
HETATM    5  C   UNL     1      -1.346   4.621   0.871  1.00  0.00     0.001 A 
HETATM    6  C   UNL     1      -0.924   5.372  -0.226  1.00  0.00     0.009 A 
ENDROOT
BRANCH   1   7
HETATM    7  C   UNL     1       0.161   1.225   0.060  1.00  0.00     0.015 A 
HETATM    8  S   UNL     1      -0.880   0.072   0.800  1.00  0.00    -0.101 SA
HETATM    9  C   UNL     1       0.152  -1.230   0.408  1.00  0.00     0.050 A 
HETATM   10  C   UNL     1       1.270  -0.816  -0.271  1.00  0.00     0.008 A 
HETATM   11  C   UNL     1       1.279   0.595  -0.465  1.00  0.00     0.020 A 
ENDBRANCH   1   7
BRANCH   3  12
HETATM   12  C   UNL     1       0.324   5.586  -2.419  1.00  0.00     0.270 C 
BRANCH  12  13
HETATM   13  N   UNL     1      -0.206   5.028  -3.663  1.00  0.00    -0.075 N 
HETATM   14  C   UNL     1       0.242   5.789  -4.818  1.00  0.00     0.267 C 
HETATM   15  H   UNL     1      -1.225   5.047  -3.627  1.00  0.00     0.277 HD
HETATM   16  H   UNL     1       0.135   4.071  -3.757  1.00  0.00     0.277 HD
ENDBRANCH  12  13
ENDBRANCH   3  12
TORSDOF 3
