REMARK  3 active torsions:
REMARK  status: ('A' for Active; 'I' for Inactive)
REMARK    1  A    between atoms: C_1  and  C_2 
REMARK    2  A    between atoms: C_12  and  C_16 
REMARK    3  A    between atoms: O_15  and  C_16 
ROOT
HETATM    1  C   UNL     1      -0.194  -2.882   0.018  1.00  0.00    -0.023 A 
HETATM    2  C   UNL     1       0.344  -3.641   1.074  1.00  0.00     0.013 A 
HETATM    3  C   UNL     1      -0.824  -3.590  -1.021  1.00  0.00     0.013 A 
HETATM    4  C   UNL     1      -0.917  -4.988  -1.008  1.00  0.00     0.010 A 
HETATM    5  C   UNL     1       0.263  -5.038   1.086  1.00  0.00     0.010 A 
HETATM    6  C   UNL     1      -0.371  -5.726   0.046  1.00  0.00    -0.035 A 
ENDROOT
BRANCH   1   7
HETATM    7  C   UNL     1      -0.099  -1.410   0.001  1.00  0.00     0.005 A 
HETATM    8  C   UNL     1       0.974  -0.703   0.525  1.00  0.00     0.102 A 
HETATM    9  N   UNL     1       1.091   0.645   0.530  1.00  0.00    -0.361 N 
HETATM   10  C   UNL     1       0.076   1.316  -0.031  1.00  0.00     0.180 A 
ATOM     11  HN  UNL     1       1.899   1.119   0.934  1.00  0.00     0.166 HD
HETATM   12  N   UNL     1      -1.015   0.768  -0.579  1.00  0.00    -0.361 N 
HETATM   13  C   UNL     1      -1.073  -0.583  -0.543  1.00  0.00     0.102 A 
ATOM     14  HN  UNL     1      -1.755   1.332  -0.997  1.00  0.00     0.166 HD
ENDBRANCH   1   7
BRANCH   6  15
HETATM   15  C   UNL     1      -0.456  -7.229   0.069  1.00  0.00     0.202 C 
BRANCH  15  16
HETATM   16  O   UNL     1       0.843  -7.801   0.027  1.00  0.00    -0.396 OA
HETATM   17  H   UNL     1       0.771  -8.768   0.042  1.00  0.00     0.209 HD
ENDBRANCH  15  16
ENDBRANCH   6  15
TORSDOF 3
