REMARK  2 active torsions:
REMARK  status: ('A' for Active; 'I' for Inactive)
REMARK    1  A    between atoms: C_9  and  C_12 
REMARK    2  A    between atoms: O_11  and  C_12 
ROOT
HETATM    1  N   UNL     1      -1.553   1.101  -0.020  1.00  0.00    -0.350 N 
ATOM      2  HN  UNL     1      -1.887   2.065  -0.024  1.00  0.00     0.166 HD
HETATM    3  C   UNL     1      -0.248   0.670  -0.027  1.00  0.00     0.060 A 
HETATM    4  C   UNL     1      -2.278   0.005  -0.007  1.00  0.00     0.181 A 
HETATM    5  N   UNL     1      -1.498  -1.116  -0.004  1.00  0.00    -0.351 N 
HETATM    6  C   UNL     1      -0.185  -0.720  -0.015  1.00  0.00     0.060 A 
HETATM    7  C   UNL     1       0.944   1.409  -0.041  1.00  0.00     0.041 A 
HETATM    8  C   UNL     1       1.014  -1.432  -0.017  1.00  0.00     0.032 A 
HETATM    9  C   UNL     1       2.175   0.729  -0.039  1.00  0.00    -0.033 A 
HETATM   10  C   UNL     1       2.195  -0.678  -0.032  1.00  0.00     0.012 A 
HETATM   11  H   UNL     1      -1.821  -2.046   0.005  1.00  0.00     0.166 HD
ENDROOT
BRANCH   9  12
HETATM   12  C   UNL     1       3.463   1.512  -0.052  1.00  0.00     0.203 C 
BRANCH  12  13
HETATM   13  O   UNL     1       4.245   1.212   1.098  1.00  0.00    -0.396 OA
HETATM   14  H   UNL     1       5.068   1.724   1.071  1.00  0.00     0.209 HD
ENDBRANCH  12  13
ENDBRANCH   9  12
TORSDOF 2
