REMARK  1 active torsions:
REMARK  status: ('A' for Active; 'I' for Inactive)
REMARK    1  A    between atoms: C_5  and  C_7 
ROOT
HETATM    1  C   UNL     1      -0.278  -0.974  -0.013  1.00  0.00     0.009 A 
HETATM    2  C   UNL     1       0.890  -1.795  -0.011  1.00  0.00     0.032 A 
HETATM    3  N   UNL     1       1.554   0.318  -0.014  1.00  0.00    -0.360 N 
HETATM    4  C   UNL     1       0.174   0.355  -0.008  1.00  0.00     0.045 A 
HETATM    5  C   UNL     1      -1.675  -1.215  -0.018  1.00  0.00     0.053 A 
HETATM    6  C   UNL     1       1.995  -0.976  -0.011  1.00  0.00     0.091 A 
HETATM    7  C   UNL     1      -0.708   1.447  -0.001  1.00  0.00     0.030 A 
HETATM    8  C   UNL     1       2.412   1.483  -0.031  1.00  0.00     0.155 C 
HETATM    9  C   UNL     1      -2.558  -0.118  -0.013  1.00  0.00     0.019 A 
HETATM   10  C   UNL     1      -2.079   1.189  -0.003  1.00  0.00     0.003 A 
ENDROOT
BRANCH   5  11
HETATM   11  C   UNL     1      -2.189  -2.608  -0.033  1.00  0.00     0.210 C 
HETATM   12  O   UNL     1      -1.540  -3.637  -0.038  1.00  0.00    -0.644 OA
HETATM   13  O   UNL     1      -3.537  -2.656  -0.042  1.00  0.00    -0.644 OA
ENDBRANCH   5  11
TORSDOF 1
