REMARK  4 active torsions:
REMARK  status: ('A' for Active; 'I' for Inactive)
REMARK    1  A    between atoms: N_1  and  C_3 
REMARK    2  A    between atoms: C_3  and  C_8 
REMARK    3  A    between atoms: C_9  and  C_16 
REMARK    4  A    between atoms: O_15  and  C_16 
ROOT
HETATM    1  C   UNL     1       2.423   0.081   0.088  1.00  0.00     0.273 C 
ENDROOT
BRANCH   1   2
HETATM    2  N   UNL     1       1.027   0.030  -0.385  1.00  0.00    -0.064 N 
HETATM    3  C   UNL     1       0.942   0.009  -1.860  1.00  0.00     0.263 C 
HETATM    4  C   UNL     1      -0.510  -0.140  -2.371  1.00  0.00     0.262 C 
HETATM    5  N   UNL     1      -1.240  -1.303  -1.832  1.00  0.00    -0.072 N 
HETATM    6  C   UNL     1      -1.114  -1.301  -0.361  1.00  0.00     0.262 C 
HETATM    7  C   UNL     1      -0.764  -2.554  -2.419  1.00  0.00     0.269 C 
HETATM    8  H   UNL     1      -2.226  -1.232  -2.083  1.00  0.00     0.279 HD
HETATM    9  C   UNL     1       0.329  -1.141   0.178  1.00  0.00     0.263 C 
HETATM   10  H   UNL     1       0.569   0.882  -0.059  1.00  0.00     0.280 HD
ENDBRANCH   1   2
BRANCH   1  11
HETATM   11  C   UNL     1       3.158   1.323  -0.375  1.00  0.00    -0.033 A 
HETATM   12  C   UNL     1       2.684   2.597  -0.035  1.00  0.00     0.009 A 
HETATM   13  C   UNL     1       3.284   3.744  -0.559  1.00  0.00     0.010 A 
HETATM   14  C   UNL     1       4.376   3.639  -1.428  1.00  0.00    -0.035 A 
HETATM   15  C   UNL     1       4.885   2.368  -1.726  1.00  0.00     0.010 A 
HETATM   16  C   UNL     1       4.284   1.220  -1.204  1.00  0.00     0.009 A 
BRANCH  14  17
HETATM   17  C   UNL     1       4.968   4.864  -2.074  1.00  0.00     0.202 C 
BRANCH  17  18
HETATM   18  O   UNL     1       6.338   5.013  -1.730  1.00  0.00    -0.396 OA
HETATM   19  H   UNL     1       6.694   5.808  -2.158  1.00  0.00     0.209 HD
ENDBRANCH  17  18
ENDBRANCH  14  17
ENDBRANCH   1  11
TORSDOF 4
