REMARK  4 active torsions:
REMARK  status: ('A' for Active; 'I' for Inactive)
REMARK    1  A    between atoms: N_1  and  C_2 
REMARK    2  A    between atoms: C_2  and  C_3 
REMARK    3  A    between atoms: C_4  and  C_12 
REMARK    4  A    between atoms: N_5  and  C_12 
ROOT
HETATM    1  C   UNL     1       2.935   0.053  -1.734  1.00  0.00    -0.033 A 
HETATM    2  C   UNL     1       3.211   0.044  -4.546  1.00  0.00    -0.033 A 
HETATM    3  C   UNL     1       2.396   1.090  -2.508  1.00  0.00     0.009 A 
HETATM    4  C   UNL     1       3.652  -0.965  -2.376  1.00  0.00     0.009 A 
HETATM    5  C   UNL     1       2.528   1.083  -3.900  1.00  0.00     0.009 A 
HETATM    6  C   UNL     1       3.786  -0.969  -3.767  1.00  0.00     0.009 A 
ENDROOT
BRANCH   1   7
HETATM    7  C   UNL     1       2.719   0.020  -0.234  1.00  0.00     0.273 C 
BRANCH   7   8
HETATM    8  N   UNL     1       1.294   0.015   0.156  1.00  0.00    -0.067 N 
HETATM    9  C   UNL     1       0.608  -1.201  -0.316  1.00  0.00     0.235 C 
HETATM   10  C   UNL     1      -0.875  -1.180   0.058  1.00  0.00     0.028 C 
HETATM   11  C   UNL     1      -1.059  -1.027   1.561  1.00  0.00     0.003 C 
HETATM   12  C   UNL     1      -0.291   0.191   2.061  1.00  0.00     0.028 C 
HETATM   13  C   UNL     1       1.173   0.149   1.616  1.00  0.00     0.235 C 
HETATM   14  H   UNL     1       0.839   0.812  -0.290  1.00  0.00     0.280 HD
ENDBRANCH   7   8
ENDBRANCH   1   7
BRANCH   2  15
HETATM   15  C   UNL     1       3.289  -0.007  -6.050  1.00  0.00     0.268 C 
BRANCH  15  16
HETATM   16  N   UNL     1       4.666   0.013  -6.526  1.00  0.00    -0.075 N 
HETATM   17  H   UNL     1       4.674  -0.023  -7.545  1.00  0.00     0.274 HD
HETATM   18  H   UNL     1       5.167  -0.793  -6.153  1.00  0.00     0.274 HD
HETATM   19  H   UNL     1       5.122   0.871  -6.213  1.00  0.00     0.274 HD
ENDBRANCH  15  16
ENDBRANCH   2  15
TORSDOF 4
