REMARK  4 active torsions:
REMARK  status: ('A' for Active; 'I' for Inactive)
REMARK    1  A    between atoms: N_1  and  C_3 
REMARK    2  A    between atoms: C_3  and  C_8 
REMARK    3  A    between atoms: C_9  and  C_16 
REMARK    4  A    between atoms: N_10  and  C_16 
ROOT
HETATM    1  C   UNL     1       3.158   1.306  -0.374  1.00  0.00    -0.033 A 
HETATM    2  C   UNL     1       4.380   3.612  -1.456  1.00  0.00    -0.033 A 
HETATM    3  C   UNL     1       2.695   2.582  -0.036  1.00  0.00     0.009 A 
HETATM    4  C   UNL     1       4.284   1.195  -1.205  1.00  0.00     0.009 A 
HETATM    5  C   UNL     1       3.292   3.723  -0.578  1.00  0.00     0.009 A 
HETATM    6  C   UNL     1       4.889   2.340  -1.738  1.00  0.00     0.009 A 
ENDROOT
BRANCH   1   7
HETATM    7  C   UNL     1       2.417   0.066   0.093  1.00  0.00     0.273 C 
BRANCH   7   8
HETATM    8  N   UNL     1       1.013   0.026  -0.361  1.00  0.00    -0.064 N 
HETATM    9  C   UNL     1       0.917   0.007  -1.836  1.00  0.00     0.263 C 
HETATM   10  C   UNL     1      -0.537  -0.136  -2.341  1.00  0.00     0.262 C 
HETATM   11  N   UNL     1      -1.270  -1.296  -1.800  1.00  0.00    -0.072 N 
HETATM   12  C   UNL     1      -1.142  -1.293  -0.330  1.00  0.00     0.262 C 
HETATM   13  C   UNL     1      -0.804  -2.551  -2.386  1.00  0.00     0.269 C 
HETATM   14  H   UNL     1      -2.256  -1.219  -2.050  1.00  0.00     0.279 HD
HETATM   15  C   UNL     1       0.306  -1.139   0.205  1.00  0.00     0.263 C 
HETATM   16  H   UNL     1       0.565   0.878  -0.024  1.00  0.00     0.280 HD
ENDBRANCH   7   8
ENDBRANCH   1   7
BRANCH   2  17
HETATM   17  C   UNL     1       4.968   4.842  -2.101  1.00  0.00     0.268 C 
BRANCH  17  18
HETATM   18  N   UNL     1       3.981   5.542  -2.916  1.00  0.00    -0.075 N 
HETATM   19  H   UNL     1       4.411   6.366  -3.336  1.00  0.00     0.274 HD
HETATM   20  H   UNL     1       3.198   5.828  -2.329  1.00  0.00     0.274 HD
HETATM   21  H   UNL     1       3.646   4.920  -3.652  1.00  0.00     0.274 HD
ENDBRANCH  17  18
ENDBRANCH   2  17
TORSDOF 4
