REMARK  4 active torsions:
REMARK  status: ('A' for Active; 'I' for Inactive)
REMARK    1  A    between atoms: C_1  and  C_3 
REMARK    2  A    between atoms: C_1  and  O_9 
REMARK    3  A    between atoms: N_2  and  C_5 
REMARK    4  A    between atoms: C_5  and  C_8 
ROOT
HETATM    1  C   UNL     1       0.288  -0.928  -0.796  1.00  0.00     0.039 A 
HETATM    2  C   UNL     1      -0.178  -2.027  -0.062  1.00  0.00     0.018 A 
HETATM    3  C   UNL     1       0.097  -0.900  -2.183  1.00  0.00     0.018 A 
HETATM    4  C   UNL     1      -1.045  -3.046  -2.093  1.00  0.00    -0.033 A 
HETATM    5  C   UNL     1      -0.837  -3.078  -0.707  1.00  0.00     0.010 A 
HETATM    6  C   UNL     1      -0.563  -1.952  -2.826  1.00  0.00     0.010 A 
ENDROOT
BRANCH   4   7
HETATM    7  C   UNL     1      -1.793  -4.166  -2.791  1.00  0.00     0.273 C 
BRANCH   7   8
HETATM    8  N   UNL     1      -3.173  -4.351  -2.303  1.00  0.00    -0.067 N 
HETATM    9  C   UNL     1      -4.007  -3.164  -2.564  1.00  0.00     0.235 C 
HETATM   10  C   UNL     1      -5.430  -3.355  -2.035  1.00  0.00     0.028 C 
HETATM   11  C   UNL     1      -6.078  -4.602  -2.620  1.00  0.00     0.003 C 
HETATM   12  C   UNL     1      -5.177  -5.811  -2.405  1.00  0.00     0.028 C 
HETATM   13  C   UNL     1      -3.764  -5.547  -2.927  1.00  0.00     0.235 C 
HETATM   14  H   UNL     1      -3.139  -4.479  -1.292  1.00  0.00     0.280 HD
ENDBRANCH   7   8
ENDBRANCH   4   7
BRANCH   1  15
HETATM   15  C   UNL     1       0.957   0.183  -0.062  1.00  0.00     0.292 C 
HETATM   16  O   UNL     1       1.090   0.209   1.150  1.00  0.00    -0.259 OA
BRANCH  15  17
HETATM   17  O   UNL     1       1.372   1.139  -0.931  1.00  0.00    -0.323 OA
HETATM   18  C   UNL     1       2.023   2.265  -0.335  1.00  0.00     0.213 C 
ENDBRANCH  15  17
ENDBRANCH   1  15
TORSDOF 4
