REMARK  4 active torsions:
REMARK  status: ('A' for Active; 'I' for Inactive)
REMARK    1  A    between atoms: C_3  and  C_9 
REMARK    2  A    between atoms: C_4  and  C_8 
REMARK    3  A    between atoms: C_6  and  C_17 
REMARK    4  A    between atoms: C_17  and  O_18 
ROOT
HETATM    1  C   UNK     1      -0.408  -5.419   0.057  1.00  0.00     0.048 A 
HETATM    2  C   UNK     1      -0.025  -2.607  -0.042  1.00  0.00    -0.002 A 
HETATM    3  C   UNK     1      -0.931  -4.664  -0.999  1.00  0.00     0.017 A 
HETATM    4  C   UNK     1       0.297  -4.756   1.072  1.00  0.00     0.017 A 
HETATM    5  C   UNK     1      -0.743  -3.277  -1.046  1.00  0.00     0.015 A 
HETATM    6  C   UNK     1       0.480  -3.368   1.023  1.00  0.00     0.015 A 
ENDROOT
BRANCH   2   7
HETATM    7  C   UNK     1       0.196  -1.148  -0.065  1.00  0.00     0.084 A 
HETATM    8  N   UNK     1       0.393  -0.400   1.008  1.00  0.00    -0.351 N 
HETATM    9  C   UNK     1       0.538   0.939   0.649  1.00  0.00     0.040 A 
ATOM     10  HN  UNK     1       0.433  -0.753   1.964  1.00  0.00     0.166 HD
HETATM   11  C   UNK     1       0.507   1.178  -0.709  1.00  0.00     0.079 A 
HETATM   12  S   UNK     1       0.262  -0.282  -1.558  1.00  0.00    -0.081 SA
BRANCH   9  13
HETATM   13  C   UNK     1       0.724   1.957   1.726  1.00  0.00     0.221 C 
BRANCH  13  14
HETATM   14  O   UNK     1       1.849   1.653   2.545  1.00  0.00    -0.395 OA
HETATM   15  H   UNK     1       1.714   0.794   2.974  1.00  0.00     0.209 HD
ENDBRANCH  13  14
ENDBRANCH   9  13
ENDBRANCH   2   7
BRANCH   1  16
HETATM   16  C   UNK     1      -0.596  -6.917   0.111  1.00  0.00     0.417 C 
HETATM   17  F   UNK     1      -1.305  -7.414  -0.942  1.00  0.00    -0.166 F 
HETATM   18  F   UNK     1       0.587  -7.591   0.113  1.00  0.00    -0.166 F 
HETATM   19  F   UNK     1      -1.260  -7.320   1.229  1.00  0.00    -0.166 F 
ENDBRANCH   1  16
TORSDOF 4
