REMARK  3 active torsions:
REMARK  status: ('A' for Active; 'I' for Inactive)
REMARK    1  A    between atoms: C_4  and  C_7 
REMARK    2  A    between atoms: C_6  and  C_9 
REMARK    3  A    between atoms: C_9  and  N_10 
ROOT
HETATM    1  N   UNL     1      -0.646  -0.063  -0.006  1.00  0.00    -0.296 N 
HETATM    2  N   UNL     1       0.059   1.092  -0.029  1.00  0.00    -0.301 N 
ATOM      3  HN  UNL     1      -0.304   2.045  -0.041  1.00  0.00     0.187 HD
HETATM    4  C   UNL     1       0.145  -1.196   0.055  1.00  0.00     0.062 A 
HETATM    5  C   UNL     1       1.440  -0.702   0.018  1.00  0.00     0.060 A 
HETATM    6  C   UNL     1       1.338   0.702  -0.032  1.00  0.00     0.053 A 
HETATM    7  C   UNL     1      -2.081   0.062  -0.104  1.00  0.00     0.178 C 
ENDROOT
BRANCH   4   8
HETATM    8  C   UNL     1      -0.285  -2.600   0.121  1.00  0.00    -0.008 A 
HETATM    9  C   UNL     1       0.482  -3.595  -0.510  1.00  0.00     0.014 A 
HETATM   10  C   UNL     1       0.133  -4.945  -0.424  1.00  0.00     0.001 A 
HETATM   11  C   UNL     1      -1.008  -5.326   0.279  1.00  0.00     0.000 A 
HETATM   12  C   UNL     1      -1.779  -4.355   0.912  1.00  0.00     0.001 A 
HETATM   13  C   UNL     1      -1.404  -3.013   0.857  1.00  0.00     0.014 A 
ENDBRANCH   4   8
BRANCH   6  14
HETATM   14  C   UNL     1       2.451   1.699  -0.086  1.00  0.00     0.288 C 
BRANCH  14  15
HETATM   15  N   UNL     1       2.864   2.043   1.275  1.00  0.00    -0.074 N 
HETATM   16  H   UNL     1       2.073   2.442   1.780  1.00  0.00     0.274 HD
HETATM   17  H   UNL     1       3.623   2.723   1.239  1.00  0.00     0.274 HD
HETATM   18  H   UNL     1       3.184   1.202   1.756  1.00  0.00     0.274 HD
ENDBRANCH  14  15
ENDBRANCH   6  14
TORSDOF 3
