REMARK  4 active torsions:
REMARK  status: ('A' for Active; 'I' for Inactive)
REMARK    1  A    between atoms: N_1  and  C_4 
REMARK    2  A    between atoms: C_3  and  C_4 
REMARK    3  A    between atoms: C_5  and  C_12 
REMARK    4  A    between atoms: O_11  and  C_12 
ROOT
HETATM    1  C   UNL     1       2.327   0.099   0.008  1.00  0.00     0.274 C 
ENDROOT
BRANCH   1   2
HETATM    2  N   UNL     1       0.928  -0.047  -0.474  1.00  0.00    -0.064 N 
HETATM    3  C   UNL     1       0.367  -1.325   0.023  1.00  0.00     0.263 C 
HETATM    4  C   UNL     1      -1.137  -1.508  -0.300  1.00  0.00     0.262 C 
HETATM    5  N   UNL     1      -2.007  -0.395   0.127  1.00  0.00    -0.072 N 
HETATM    6  C   UNL     1      -1.426   0.867  -0.369  1.00  0.00     0.262 C 
HETATM    7  C   UNL     1      -2.186  -0.364   1.577  1.00  0.00     0.269 C 
HETATM    8  H   UNL     1      -2.938  -0.527  -0.270  1.00  0.00     0.279 HD
HETATM    9  C   UNL     1       0.070   1.074  -0.027  1.00  0.00     0.263 C 
HETATM   10  H   UNL     1       0.946  -0.038  -1.494  1.00  0.00     0.280 HD
ENDBRANCH   1   2
BRANCH   1  11
HETATM   11  C   UNL     1       3.050   1.371  -0.429  1.00  0.00    -0.024 A 
HETATM   12  C   UNL     1       4.024   2.007   0.380  1.00  0.00    -0.027 A 
HETATM   13  C   UNL     1       4.600   3.214  -0.063  1.00  0.00     0.010 A 
HETATM   14  C   UNL     1       4.266   3.765  -1.302  1.00  0.00     0.001 A 
HETATM   15  C   UNL     1       3.372   3.100  -2.130  1.00  0.00     0.001 A 
HETATM   16  C   UNL     1       2.785   1.912  -1.704  1.00  0.00     0.009 A 
BRANCH  12  17
HETATM   17  C   UNL     1       4.539   1.420   1.672  1.00  0.00     0.203 C 
BRANCH  17  18
HETATM   18  O   UNL     1       3.519   1.346   2.657  1.00  0.00    -0.396 OA
HETATM   19  H   UNL     1       3.884   0.965   3.472  1.00  0.00     0.209 HD
ENDBRANCH  17  18
ENDBRANCH  12  17
ENDBRANCH   1  11
TORSDOF 4
