REMARK  3 active torsions:
REMARK  status: ('A' for Active; 'I' for Inactive)
REMARK    1  A    between atoms: C_3  and  C_7 
REMARK    2  A    between atoms: C_6  and  C_12 
REMARK    3  A    between atoms: C_12  and  N_14 
ROOT
HETATM    1  N   UNL     1       0.062   1.065   0.060  1.00  0.00    -0.297 N 
ATOM      2  HN  UNL     1      -0.300   2.014   0.151  1.00  0.00     0.187 HD
HETATM    3  C   UNL     1       1.337   0.683  -0.064  1.00  0.00     0.067 A 
HETATM    4  N   UNL     1      -0.638  -0.088   0.037  1.00  0.00    -0.299 N 
HETATM    5  C   UNL     1       1.447  -0.724  -0.133  1.00  0.00     0.060 A 
HETATM    6  C   UNL     1       0.155  -1.205  -0.033  1.00  0.00     0.055 A 
HETATM    7  C   UNL     1      -2.080  -0.008   0.047  1.00  0.00     0.177 C 
ENDROOT
BRANCH   3   8
HETATM    8  C   UNL     1       2.462   1.672  -0.129  1.00  0.00     0.033 A 
HETATM    9  S   UNL     1       4.092   1.265  -0.448  1.00  0.00    -0.100 SA
HETATM   10  C   UNL     1       4.582   2.903  -0.381  1.00  0.00     0.050 A 
HETATM   11  C   UNL     1       3.532   3.744  -0.089  1.00  0.00     0.008 A 
HETATM   12  C   UNL     1       2.304   3.031   0.054  1.00  0.00     0.021 A 
ENDBRANCH   3   8
BRANCH   6  13
HETATM   13  C   UNL     1      -0.346  -2.598  -0.029  1.00  0.00     0.288 C 
BRANCH  13  14
HETATM   14  N   UNL     1      -0.948  -2.903   1.260  1.00  0.00    -0.074 N 
HETATM   15  H   UNL     1      -0.249  -2.798   1.995  1.00  0.00     0.274 HD
HETATM   16  H   UNL     1      -1.294  -3.863   1.255  1.00  0.00     0.274 HD
HETATM   17  H   UNL     1      -1.723  -2.263   1.433  1.00  0.00     0.274 HD
ENDBRANCH  13  14
ENDBRANCH   6  13
TORSDOF 3
