REMARK  3 active torsions:
REMARK  status: ('A' for Active; 'I' for Inactive)
REMARK    1  A    between atoms: C_3  and  C_7 
REMARK    2  A    between atoms: C_6  and  C_12 
REMARK    3  A    between atoms: C_12  and  O_14 
ROOT
HETATM    1  N   UNL     1       0.061   1.055   0.086  1.00  0.00    -0.297 N 
ATOM      2  HN  UNL     1      -0.297   2.003   0.206  1.00  0.00     0.187 HD
HETATM    3  C   UNL     1       1.334   0.672  -0.064  1.00  0.00     0.067 A 
HETATM    4  N   UNL     1      -0.642  -0.094   0.042  1.00  0.00    -0.298 N 
HETATM    5  C   UNL     1       1.439  -0.734  -0.154  1.00  0.00     0.061 A 
HETATM    6  C   UNL     1       0.150  -1.210  -0.031  1.00  0.00     0.053 A 
HETATM    7  C   UNL     1      -2.085  -0.011   0.036  1.00  0.00     0.177 C 
ENDROOT
BRANCH   3   8
HETATM    8  C   UNL     1       2.462   1.658  -0.128  1.00  0.00     0.033 A 
HETATM    9  S   UNL     1       4.087   1.243  -0.466  1.00  0.00    -0.100 SA
HETATM   10  C   UNL     1       4.586   2.876  -0.392  1.00  0.00     0.050 A 
HETATM   11  C   UNL     1       3.543   3.722  -0.081  1.00  0.00     0.008 A 
HETATM   12  C   UNL     1       2.314   3.015   0.070  1.00  0.00     0.021 A 
ENDBRANCH   3   8
BRANCH   6  13
HETATM   13  C   UNL     1      -0.356  -2.599   0.004  1.00  0.00     0.222 C 
BRANCH  13  14
HETATM   14  O   UNL     1      -0.963  -2.785   1.271  1.00  0.00    -0.395 OA
HETATM   15  H   UNL     1      -0.310  -2.624   1.970  1.00  0.00     0.209 HD
ENDBRANCH  13  14
ENDBRANCH   6  13
TORSDOF 3
