REMARK  3 active torsions:
REMARK  status: ('A' for Active; 'I' for Inactive)
REMARK    1  A    between atoms: C_1  and  C_3 
REMARK    2  A    between atoms: C_5  and  C_12 
REMARK    3  A    between atoms: N_11  and  C_12 
ROOT
HETATM    1  C   UNL     1       0.133   1.248  -0.023  1.00  0.00     0.039 A 
HETATM    2  S   UNL     1      -1.031  -0.006   0.023  1.00  0.00    -0.090 SA
HETATM    3  C   UNL     1       1.415   0.736   0.005  1.00  0.00     0.023 A 
HETATM    4  C   UNL     1       0.164  -1.233   0.022  1.00  0.00     0.009 A 
HETATM    5  C   UNL     1       1.435  -0.690   0.022  1.00  0.00     0.017 A 
ENDROOT
BRANCH   1   6
HETATM    6  C   UNL     1      -0.229   2.640  -0.098  1.00  0.00     0.092 A 
HETATM    7  O   UNL     1       0.715   3.640  -0.138  1.00  0.00    -0.321 OA
HETATM    8  C   UNL     1       0.067   4.826  -0.240  1.00  0.00     0.142 A 
HETATM    9  C   UNL     1      -1.291   4.631  -0.267  1.00  0.00     0.027 A 
HETATM   10  C   UNL     1      -1.483   3.231  -0.168  1.00  0.00     0.040 A 
ENDBRANCH   1   6
BRANCH   4  11
HETATM   11  C   UNL     1      -0.242  -2.678  -0.019  1.00  0.00     0.277 C 
BRANCH  11  12
HETATM   12  N   UNL     1       0.236  -3.389   1.168  1.00  0.00    -0.075 N 
HETATM   13  C   UNL     1      -0.130  -4.797   1.107  1.00  0.00     0.267 C 
HETATM   14  H   UNL     1      -0.181  -2.970   2.000  1.00  0.00     0.277 HD
HETATM   15  H   UNL     1       1.252  -3.316   1.207  1.00  0.00     0.277 HD
ENDBRANCH  11  12
ENDBRANCH   4  11
TORSDOF 3
