REMARK  2 active torsions:
REMARK  status: ('A' for Active; 'I' for Inactive)
REMARK    1  A    between atoms: C_1  and  C_2 
REMARK    2  A    between atoms: C_8  and  N_9 
ROOT
HETATM    1  C   UNL     1       2.634   1.524   0.009  1.00  0.00    -0.023 A 
HETATM    2  C   UNL     1       2.880   2.444   1.042  1.00  0.00     0.041 A 
HETATM    3  C   UNL     1       4.055   3.206   1.077  1.00  0.00     0.026 A 
HETATM    4  C   UNL     1       3.576   1.409  -1.022  1.00  0.00     0.012 A 
HETATM    5  C   UNL     1       4.725   2.202  -1.024  1.00  0.00     0.003 A 
HETATM    6  C   UNL     1       4.950   3.109   0.011  1.00  0.00     0.029 A 
ENDROOT
BRANCH   1   7
HETATM    7  C   UNL     1       1.429   0.689  -0.003  1.00  0.00    -0.019 A 
HETATM    8  C   UNL     1       0.228   1.104   0.548  1.00  0.00     0.061 A 
HETATM    9  S   UNL     1      -1.014  -0.066   0.405  1.00  0.00    -0.113 SA
HETATM   10  C   UNL     1       0.023  -1.144  -0.415  1.00  0.00     0.050 A 
HETATM   11  C   UNL     1       1.289  -0.624  -0.569  1.00  0.00     0.020 A 
ENDBRANCH   1   7
BRANCH   3  12
HETATM   12  N   UNL     1       4.214   4.211   2.040  1.00  0.00    -0.399 N 
HETATM   13  H   UNL     1       3.582   4.277   2.792  1.00  0.00     0.156 HD
HETATM   14  H   UNL     1       4.959   4.850   1.965  1.00  0.00     0.156 HD
ENDBRANCH   3  12
TORSDOF 2
