REMARK  3 active torsions:
REMARK  status: ('A' for Active; 'I' for Inactive)
REMARK    1  A    between atoms: C_1  and  C_2 
REMARK    2  A    between atoms: C_5  and  C_10 
REMARK    3  A    between atoms: C_10  and  O_11 
ROOT
HETATM    1  C   UNL     1      -0.124   1.084  -0.001  1.00  0.00     0.159 A 
HETATM    2  O   UNL     1      -0.991   0.023  -0.022  1.00  0.00    -0.308 OA
HETATM    3  C   UNL     1       1.176   0.618   0.036  1.00  0.00     0.045 A 
HETATM    4  C   UNL     1      -0.238  -1.116  -0.002  1.00  0.00     0.077 A 
HETATM    5  C   UNL     1       1.102  -0.795   0.033  1.00  0.00     0.038 A 
ENDROOT
BRANCH   1   6
HETATM    6  C   UNL     1      -0.699   2.455  -0.023  1.00  0.00     0.439 C 
HETATM    7  F   UNL     1      -2.056   2.466  -0.045  1.00  0.00    -0.164 F 
HETATM    8  F   UNL     1      -0.318   3.174   1.066  1.00  0.00    -0.164 F 
HETATM    9  F   UNL     1      -0.283   3.154  -1.111  1.00  0.00    -0.164 F 
ENDBRANCH   1   6
BRANCH   4  10
HETATM   10  C   UNL     1      -0.977  -2.400  -0.023  1.00  0.00     0.229 C 
BRANCH  10  11
HETATM   11  O   UNL     1      -1.731  -2.447  -1.227  1.00  0.00    -0.394 OA
HETATM   12  H   UNL     1      -2.343  -1.695  -1.255  1.00  0.00     0.209 HD
ENDBRANCH  10  11
ENDBRANCH   4  10
TORSDOF 3
