REMARK  3 active torsions:
REMARK  status: ('A' for Active; 'I' for Inactive)
REMARK    1  A    between atoms: C_1  and  N_2 
REMARK    2  A    between atoms: C_7  and  C_14 
REMARK    3  A    between atoms: N_9  and  C_14 
ROOT
HETATM    1  C   UNL     1      -0.708   1.199   0.008  1.00  0.00     0.103 A 
HETATM    2  N   UNL     1      -1.354   0.014   0.029  1.00  0.00    -0.352 N 
ATOM      3  HN  UNL     1      -2.373  -0.023   0.028  1.00  0.00     0.166 HD
HETATM    4  C   UNL     1       0.689   1.237   0.005  1.00  0.00     0.057 A 
HETATM    5  C   UNL     1       1.441   0.056   0.018  1.00  0.00    -0.028 A 
HETATM    6  C   UNL     1      -0.624  -1.122   0.052  1.00  0.00     0.090 A 
HETATM    7  C   UNL     1       0.756  -1.155   0.044  1.00  0.00     0.026 A 
ENDROOT
BRANCH   1   8
HETATM    8  N   UNL     1      -1.437   2.370  -0.116  1.00  0.00    -0.366 N 
HETATM    9  C   UNL     1      -2.850   2.267  -0.497  1.00  0.00     0.134 C 
HETATM   10  C   UNL     1      -3.192   3.401  -1.472  1.00  0.00     0.093 C 
HETATM   11  S   UNL     1      -2.944   5.063  -0.740  1.00  0.00    -0.166 SA
HETATM   12  C   UNL     1      -1.241   4.816  -0.114  1.00  0.00     0.093 C 
HETATM   13  C   UNL     1      -1.102   3.533   0.713  1.00  0.00     0.134 C 
ENDBRANCH   1   8
BRANCH   5  14
HETATM   14  C   UNL     1       2.944   0.114  -0.006  1.00  0.00     0.268 C 
BRANCH  14  15
HETATM   15  N   UNL     1       3.436   0.791  -1.201  1.00  0.00    -0.075 N 
HETATM   16  H   UNL     1       4.455   0.812  -1.184  1.00  0.00     0.274 HD
HETATM   17  H   UNL     1       3.076   1.745  -1.223  1.00  0.00     0.274 HD
HETATM   18  H   UNL     1       3.119   0.289  -2.031  1.00  0.00     0.274 HD
ENDBRANCH  14  15
ENDBRANCH   5  14
TORSDOF 3
