REMARK  3 active torsions:
REMARK  status: ('A' for Active; 'I' for Inactive)
REMARK    1  A    between atoms: C_8  and  C_11 
REMARK    2  A    between atoms: O_10  and  C_12 
REMARK    3  A    between atoms: C_11  and  C_12 
ROOT
HETATM    1  C   UNL     1      -0.185   0.682   0.071  1.00  0.00     0.105 A 
HETATM    2  C   UNL     1      -0.234  -0.686  -0.050  1.00  0.00     0.105 A 
HETATM    3  O   UNL     1      -1.424   1.238   0.162  1.00  0.00    -0.323 OA
HETATM    4  O   UNL     1      -1.507  -1.164  -0.049  1.00  0.00    -0.323 OA
HETATM    5  C   UNL     1      -2.255   0.061   0.094  1.00  0.00     0.352 A 
HETATM    6  C   UNL     1       1.010   1.370   0.098  1.00  0.00     0.047 A 
HETATM    7  C   UNL     1       0.910  -1.446  -0.155  1.00  0.00     0.040 A 
HETATM    8  C   UNL     1       2.199   0.630  -0.006  1.00  0.00    -0.053 A 
HETATM    9  C   UNL     1       2.137  -0.777  -0.133  1.00  0.00     0.010 A 
ENDROOT
BRANCH   8  10
HETATM   10  C   UNL     1       3.544   1.320   0.043  1.00  0.00     0.064 C 
BRANCH  10  11
HETATM   11  C   UNL     1       4.058   1.516   1.470  1.00  0.00     0.168 C 
BRANCH  11  12
HETATM   12  O   UNL     1       4.304   0.270   2.114  1.00  0.00    -0.401 OA
HETATM   13  H   UNL     1       4.629   0.430   3.014  1.00  0.00     0.209 HD
ENDBRANCH  11  12
ENDBRANCH  10  11
ENDBRANCH   8  10
TORSDOF 3
