REMARK  3 active torsions:
REMARK  status: ('A' for Active; 'I' for Inactive)
REMARK    1  A    between atoms: C_1  and  O_4 
REMARK    2  A    between atoms: O_4  and  C_6 
REMARK    3  A    between atoms: C_7  and  N_8 
ROOT
HETATM    1  C   UNL     1       0.133   3.906  -1.057  1.00  0.00     0.066 A 
HETATM    2  C   UNL     1      -0.784   3.545  -0.063  1.00  0.00     0.080 A 
HETATM    3  C   UNL     1       0.706   5.180  -1.072  1.00  0.00     0.028 A 
HETATM    4  C   UNL     1      -0.412   5.662   1.030  1.00  0.00     0.005 A 
HETATM    5  C   UNL     1      -1.042   4.419   0.992  1.00  0.00     0.037 A 
HETATM    6  C   UNL     1       0.466   6.032   0.008  1.00  0.00     0.029 A 
ENDROOT
BRANCH   2   7
HETATM    7  O   UNL     1      -1.405   2.315  -0.016  1.00  0.00    -0.294 OA
BRANCH   7   8
HETATM    8  C   UNL     1      -1.807   1.754  -1.223  1.00  0.00     0.147 A 
HETATM    9  N   UNL     1      -2.188   2.559  -2.242  1.00  0.00    -0.347 N 
HETATM   10  C   UNL     1      -2.520   1.958  -3.402  1.00  0.00     0.090 A 
ATOM     11  HN  UNL     1      -2.222   3.573  -2.137  1.00  0.00     0.167 HD
HETATM   12  C   UNL     1      -2.512   0.586  -3.585  1.00  0.00     0.017 A 
HETATM   13  C   UNL     1      -2.157  -0.222  -2.509  1.00  0.00     0.006 A 
HETATM   14  C   UNL     1      -1.804   0.370  -1.299  1.00  0.00     0.056 A 
ENDBRANCH   7   8
ENDBRANCH   2   7
BRANCH   3  15
HETATM   15  N   UNL     1       1.672   5.502  -2.035  1.00  0.00    -0.399 N 
HETATM   16  H   UNL     1       1.834   4.895  -2.793  1.00  0.00     0.156 HD
HETATM   17  H   UNL     1       2.189   6.336  -1.954  1.00  0.00     0.156 HD
ENDBRANCH   3  15
TORSDOF 3
