REMARK  3 active torsions:
REMARK  status: ('A' for Active; 'I' for Inactive)
REMARK    1  A    between atoms: C_1  and  N_2 
REMARK    2  A    between atoms: C_6  and  C_11 
REMARK    3  A    between atoms: N_8  and  C_11 
ROOT
HETATM    1  C   UNL     1      -0.787   1.174   0.048  1.00  0.00     0.103 A 
HETATM    2  N   UNL     1      -0.354   0.943   1.303  1.00  0.00    -0.352 N 
ATOM      3  HN  UNL     1      -0.523   1.619   2.048  1.00  0.00     0.166 HD
HETATM    4  C   UNL     1      -0.558   0.247  -0.971  1.00  0.00     0.057 A 
HETATM    5  C   UNL     1       0.101  -0.957  -0.706  1.00  0.00    -0.028 A 
HETATM    6  C   UNL     1       0.311  -0.210   1.547  1.00  0.00     0.090 A 
HETATM    7  C   UNL     1       0.552  -1.182   0.594  1.00  0.00     0.026 A 
ENDROOT
BRANCH   1   8
HETATM    8  N   UNL     1      -1.586   2.276  -0.216  1.00  0.00    -0.367 N 
HETATM    9  C   UNL     1      -2.253   2.925   0.905  1.00  0.00     0.124 C 
HETATM   10  C   UNL     1      -3.592   3.460   0.384  1.00  0.00     0.020 C 
HETATM   11  C   UNL     1      -3.411   4.354  -0.847  1.00  0.00     0.003 C 
HETATM   12  C   UNL     1      -2.538   3.690  -1.916  1.00  0.00     0.020 C 
HETATM   13  C   UNL     1      -1.233   3.168  -1.317  1.00  0.00     0.124 C 
ENDBRANCH   1   8
BRANCH   5  14
HETATM   14  C   UNL     1       0.252  -1.997  -1.780  1.00  0.00     0.268 C 
BRANCH  14  15
HETATM   15  N   UNL     1       1.651  -2.326  -2.015  1.00  0.00    -0.075 N 
HETATM   16  H   UNL     1       1.716  -3.033  -2.748  1.00  0.00     0.274 HD
HETATM   17  H   UNL     1       2.065  -2.688  -1.156  1.00  0.00     0.274 HD
HETATM   18  H   UNL     1       2.154  -1.487  -2.306  1.00  0.00     0.274 HD
ENDBRANCH  14  15
ENDBRANCH   5  14
TORSDOF 3
