REMARK  3 active torsions:
REMARK  status: ('A' for Active; 'I' for Inactive)
REMARK    1  A    between atoms: C_1  and  N_2 
REMARK    2  A    between atoms: C_6  and  C_11 
REMARK    3  A    between atoms: O_10  and  C_11 
ROOT
HETATM    1  C   UNL     1      -0.635   1.265   0.114  1.00  0.00     0.103 A 
HETATM    2  N   UNL     1      -1.330   0.108   0.169  1.00  0.00    -0.352 N 
ATOM      3  HN  UNL     1      -2.348   0.115   0.229  1.00  0.00     0.166 HD
HETATM    4  C   UNL     1       0.757   1.238   0.025  1.00  0.00     0.057 A 
HETATM    5  C   UNL     1       1.456   0.026   0.007  1.00  0.00    -0.030 A 
HETATM    6  C   UNL     1      -0.648  -1.059   0.143  1.00  0.00     0.090 A 
HETATM    7  C   UNL     1       0.728  -1.154   0.064  1.00  0.00     0.026 A 
ENDROOT
BRANCH   1   8
HETATM    8  N   UNL     1      -1.324   2.450   0.098  1.00  0.00    -0.367 N 
HETATM    9  C   UNL     1      -2.764   2.490   0.281  1.00  0.00     0.124 C 
HETATM   10  C   UNL     1      -3.089   3.930  -0.104  1.00  0.00     0.021 C 
HETATM   11  C   UNL     1      -1.897   4.722   0.425  1.00  0.00     0.021 C 
HETATM   12  C   UNL     1      -0.719   3.746   0.363  1.00  0.00     0.124 C 
ENDBRANCH   1   8
BRANCH   5  13
HETATM   13  C   UNL     1       2.956   0.031  -0.064  1.00  0.00     0.203 C 
BRANCH  13  14
HETATM   14  O   UNL     1       3.405   0.650  -1.264  1.00  0.00    -0.396 OA
HETATM   15  H   UNL     1       4.375   0.643  -1.289  1.00  0.00     0.209 HD
ENDBRANCH  13  14
ENDBRANCH   5  13
TORSDOF 3
