REMARK  3 active torsions:
REMARK  status: ('A' for Active; 'I' for Inactive)
REMARK    1  A    between atoms: C_1  and  N_2 
REMARK    2  A    between atoms: C_6  and  C_11 
REMARK    3  A    between atoms: O_10  and  C_11 
ROOT
HETATM    1  C   UNL     1      -0.714   1.238   0.140  1.00  0.00     0.103 A 
HETATM    2  N   UNL     1       0.565   1.298  -0.278  1.00  0.00    -0.352 N 
ATOM      3  HN  UNL     1       0.902   2.089  -0.826  1.00  0.00     0.166 HD
HETATM    4  C   UNL     1      -1.179   0.138   0.866  1.00  0.00     0.057 A 
HETATM    5  C   UNL     1      -0.323  -0.916   1.198  1.00  0.00    -0.030 A 
HETATM    6  C   UNL     1       1.391   0.275   0.052  1.00  0.00     0.090 A 
HETATM    7  C   UNL     1       1.001  -0.836   0.777  1.00  0.00     0.026 A 
ENDROOT
BRANCH   1   8
HETATM    8  N   UNL     1      -1.627   2.229  -0.217  1.00  0.00    -0.367 N 
HETATM    9  C   UNL     1      -1.233   3.127  -1.303  1.00  0.00     0.124 C 
HETATM   10  C   UNL     1      -2.522   3.686  -1.915  1.00  0.00     0.020 C 
HETATM   11  C   UNL     1      -3.408   4.357  -0.861  1.00  0.00     0.003 C 
HETATM   12  C   UNL     1      -3.623   3.462   0.362  1.00  0.00     0.020 C 
HETATM   13  C   UNL     1      -2.298   2.912   0.891  1.00  0.00     0.124 C 
ENDBRANCH   1   8
BRANCH   5  14
HETATM   14  C   UNL     1      -0.831  -2.095   1.973  1.00  0.00     0.203 C 
BRANCH  14  15
HETATM   15  O   UNL     1      -0.701  -3.284   1.206  1.00  0.00    -0.396 OA
HETATM   16  H   UNL     1      -1.034  -4.037   1.719  1.00  0.00     0.209 HD
ENDBRANCH  14  15
ENDBRANCH   5  14
TORSDOF 3
