REMARK  2 active torsions:
REMARK  status: ('A' for Active; 'I' for Inactive)
REMARK    1  A    between atoms: O_4  and  C_6 
REMARK    2  A    between atoms: O_4  and  C_7 
ROOT
HETATM    1  N   UNL     1       5.711  -5.922   2.653  1.00  0.00    -0.191 NA
HETATM    2  C   UNL     1       5.346  -4.893   2.262  1.00  0.00     0.099 C 
HETATM    3  C   UNL     1       4.909  -3.615   1.778  1.00  0.00     0.044 A 
HETATM    4  C   UNL     1       4.096  -1.110   0.807  1.00  0.00     0.069 A 
HETATM    5  C   UNL     1       5.431  -2.442   2.328  1.00  0.00     0.025 A 
HETATM    6  C   UNL     1       3.956  -3.533   0.759  1.00  0.00     0.025 A 
HETATM    7  C   UNL     1       5.022  -1.193   1.846  1.00  0.00     0.038 A 
HETATM    8  C   UNL     1       3.546  -2.283   0.285  1.00  0.00     0.038 A 
ENDROOT
BRANCH   4   9
HETATM    9  O   UNL     1       3.628   0.055   0.267  1.00  0.00    -0.346 OA
BRANCH   9  10
HETATM   10  C   UNL     1       4.531   1.171   0.220  1.00  0.00     0.133 C 
HETATM   11  C   UNL     1       4.234   2.139   1.367  1.00  0.00     0.058 C 
HETATM   12  C   UNL     1       4.949   3.465   1.165  1.00  0.00     0.170 C 
HETATM   13  O   UNL     1       4.622   4.027  -0.102  1.00  0.00    -0.391 OA
HETATM   14  C   UNL     1       5.051   3.198  -1.179  1.00  0.00     0.170 C 
HETATM   15  C   UNL     1       4.337   1.858  -1.137  1.00  0.00     0.058 C 
ENDBRANCH   9  10
ENDBRANCH   4   9
TORSDOF 2
