REMARK  4 active torsions:
REMARK  status: ('A' for Active; 'I' for Inactive)
REMARK    1  A    between atoms: O_1  and  C_2 
REMARK    2  A    between atoms: O_1  and  C_3 
REMARK    3  A    between atoms: C_4  and  C_10 
REMARK    4  A    between atoms: O_9  and  C_10 
ROOT
HETATM    1  C   UNL     1       0.350   1.290  -0.103  1.00  0.00     0.076 A 
HETATM    2  C   UNL     1      -1.203   3.630  -0.088  1.00  0.00    -0.035 A 
HETATM    3  C   UNL     1       0.374   2.152  -1.199  1.00  0.00     0.038 A 
HETATM    4  C   UNL     1      -0.513   1.557   0.965  1.00  0.00     0.038 A 
HETATM    5  C   UNL     1      -1.285   2.720   0.973  1.00  0.00     0.012 A 
HETATM    6  C   UNL     1      -0.376   3.328  -1.180  1.00  0.00     0.012 A 
ENDROOT
BRANCH   1   7
HETATM    7  O   UNL     1       1.081   0.128  -0.005  1.00  0.00    -0.311 OA
BRANCH   7   8
HETATM    8  C   UNL     1       2.327   0.044  -0.589  1.00  0.00     0.076 A 
HETATM    9  C   UNL     1       3.231   1.106  -0.686  1.00  0.00     0.037 A 
HETATM   10  C   UNL     1       4.460   0.921  -1.323  1.00  0.00     0.003 A 
HETATM   11  C   UNL     1       4.812  -0.336  -1.813  1.00  0.00     0.000 A 
HETATM   12  C   UNL     1       3.940  -1.413  -1.657  1.00  0.00     0.003 A 
HETATM   13  C   UNL     1       2.700  -1.223  -1.045  1.00  0.00     0.037 A 
ENDBRANCH   7   8
ENDBRANCH   1   7
BRANCH   2  14
HETATM   14  C   UNL     1      -1.979   4.920  -0.065  1.00  0.00     0.202 C 
BRANCH  14  15
HETATM   15  O   UNL     1      -1.091   6.030  -0.006  1.00  0.00    -0.396 OA
HETATM   16  H   UNL     1      -1.604   6.853   0.009  1.00  0.00     0.209 HD
ENDBRANCH  14  15
ENDBRANCH   2  14
TORSDOF 4
