REMARK  4 active torsions:
REMARK  status: ('A' for Active; 'I' for Inactive)
REMARK    1  A    between atoms: O_1  and  C_2 
REMARK    2  A    between atoms: O_1  and  C_4 
REMARK    3  A    between atoms: N_3  and  C_10 
REMARK    4  A    between atoms: C_5  and  C_10 
ROOT
HETATM    1  C   UNL     1       0.248   1.248  -0.042  1.00  0.00     0.076 A 
HETATM    2  C   UNL     1      -1.305   3.596  -0.048  1.00  0.00    -0.033 A 
HETATM    3  C   UNL     1       0.294   2.119  -1.131  1.00  0.00     0.038 A 
HETATM    4  C   UNL     1      -0.637   1.508   1.006  1.00  0.00     0.038 A 
HETATM    5  C   UNL     1      -1.412   2.672   1.002  1.00  0.00     0.011 A 
HETATM    6  C   UNL     1      -0.445   3.303  -1.115  1.00  0.00     0.011 A 
ENDROOT
BRANCH   1   7
HETATM    7  O   UNL     1       0.993   0.096   0.063  1.00  0.00    -0.311 OA
BRANCH   7   8
HETATM    8  C   UNL     1       2.234   0.018  -0.525  1.00  0.00     0.076 A 
HETATM    9  C   UNL     1       3.128   1.088  -0.637  1.00  0.00     0.037 A 
HETATM   10  C   UNL     1       4.351   0.915  -1.289  1.00  0.00     0.003 A 
HETATM   11  C   UNL     1       4.711  -0.341  -1.774  1.00  0.00     0.000 A 
HETATM   12  C   UNL     1       3.851  -1.426  -1.603  1.00  0.00     0.003 A 
HETATM   13  C   UNL     1       2.614  -1.246  -0.980  1.00  0.00     0.037 A 
ENDBRANCH   7   8
ENDBRANCH   1   7
BRANCH   2  14
HETATM   14  C   UNL     1      -2.070   4.899  -0.013  1.00  0.00     0.270 C 
BRANCH  14  15
HETATM   15  N   UNL     1      -2.946   5.049  -1.175  1.00  0.00    -0.075 N 
HETATM   16  C   UNL     1      -3.642   6.326  -1.142  1.00  0.00     0.267 C 
HETATM   17  H   UNL     1      -3.633   4.295  -1.175  1.00  0.00     0.277 HD
HETATM   18  H   UNL     1      -2.375   5.011  -2.020  1.00  0.00     0.277 HD
ENDBRANCH  14  15
ENDBRANCH   2  14
TORSDOF 4
