REMARK  3 active torsions:
REMARK  status: ('A' for Active; 'I' for Inactive)
REMARK    1  A    between atoms: C_1  and  N_3 
REMARK    2  A    between atoms: C_5  and  C_10 
REMARK    3  A    between atoms: C_10  and  O_11 
ROOT
HETATM    1  C   UNL     1       0.167   1.278  -0.034  1.00  0.00     0.072 A 
HETATM    2  S   UNL     1      -0.880   0.097   0.671  1.00  0.00    -0.075 SA
HETATM    3  C   UNL     1       1.292   0.645  -0.532  1.00  0.00     0.038 A 
HETATM    4  C   UNL     1       0.136  -1.208   0.239  1.00  0.00     0.008 A 
HETATM    5  C   UNL     1       1.274  -0.769  -0.395  1.00  0.00     0.019 A 
ENDROOT
BRANCH   1   6
HETATM    6  N   UNL     1      -0.074   2.629  -0.050  1.00  0.00    -0.371 N 
HETATM    7  C   UNL     1      -1.270   3.228   0.571  1.00  0.00     0.149 C 
HETATM    8  C   UNL     1      -0.973   4.695   0.942  1.00  0.00     0.187 C 
HETATM    9  O   UNL     1      -0.525   5.459  -0.192  1.00  0.00    -0.388 OA
HETATM   10  C   UNL     1       0.661   4.870  -0.746  1.00  0.00     0.187 C 
HETATM   11  C   UNL     1       0.405   3.428  -1.198  1.00  0.00     0.149 C 
ENDBRANCH   1   6
BRANCH   4  12
HETATM   12  C   UNL     1      -0.251  -2.613   0.544  1.00  0.00     0.210 C 
BRANCH  12  13
HETATM   13  O   UNL     1      -0.955  -3.113  -0.586  1.00  0.00    -0.396 OA
HETATM   14  H   UNL     1      -1.734  -2.559  -0.752  1.00  0.00     0.209 HD
ENDBRANCH  12  13
ENDBRANCH   4  12
TORSDOF 3
