REMARK  1 active torsions:
REMARK  status: ('A' for Active; 'I' for Inactive)
REMARK    1  A    between atoms: C_9  and  N_10 
ROOT
HETATM    1  N   UNL     1       1.584   1.046   0.044  1.00  0.00    -0.353 N 
ATOM      2  HN  UNL     1       1.831   2.035   0.072  1.00  0.00     0.166 HD
HETATM    3  S   UNL     1       1.767  -1.523  -0.007  1.00  0.00    -0.075 SA
HETATM    4  C   UNL     1       2.445   0.052   0.021  1.00  0.00     0.048 A 
HETATM    5  C   UNL     1       0.186  -0.842  -0.003  1.00  0.00     0.035 A 
HETATM    6  C   UNL     1       0.292   0.549   0.024  1.00  0.00     0.050 A 
HETATM    7  C   UNL     1      -1.061  -1.492  -0.035  1.00  0.00     0.050 A 
HETATM    8  C   UNL     1      -0.890   1.314   0.007  1.00  0.00     0.033 A 
HETATM    9  C   UNL     1      -2.229  -0.722   0.002  1.00  0.00     0.027 A 
HETATM   10  C   UNL     1      -2.134   0.669  -0.027  1.00  0.00     0.031 A 
HETATM   11  C   UNL     1       3.924   0.222   0.012  1.00  0.00     0.076 C 
ENDROOT
BRANCH   9  12
HETATM   12  N   UNL     1      -3.474  -1.342  -0.167  1.00  0.00    -0.399 N 
HETATM   13  H   UNL     1      -3.543  -2.324  -0.146  1.00  0.00     0.156 HD
HETATM   14  H   UNL     1      -4.281  -0.795  -0.307  1.00  0.00     0.156 HD
ENDBRANCH   9  12
TORSDOF 1
