REMARK  3 active torsions:
REMARK  status: ('A' for Active; 'I' for Inactive)
REMARK    1  A    between atoms: C_5  and  C_7 
REMARK    2  A    between atoms: C_7  and  C_10 
REMARK    3  A    between atoms: O_8  and  C_10 
ROOT
HETATM    1  N   UNL     1      -0.224  -1.357  -0.090  1.00  0.00    -0.357 N 
ATOM      2  HN  UNL     1      -0.680  -2.259  -0.226  1.00  0.00     0.166 HD
HETATM    3  C   UNL     1      -0.850  -0.203   0.010  1.00  0.00     0.046 A 
HETATM    4  S   UNL     1       0.160   1.171   0.215  1.00  0.00    -0.087 SA
HETATM    5  C   UNL     1       1.145  -1.167   0.017  1.00  0.00     0.018 A 
HETATM    6  C   UNL     1       1.533   0.149   0.186  1.00  0.00     0.076 A 
HETATM    7  C   UNL     1      -2.328  -0.034  -0.048  1.00  0.00     0.076 C 
ENDROOT
BRANCH   5   8
HETATM    8  C   UNL     1       2.053  -2.355  -0.054  1.00  0.00     0.083 C 
BRANCH   8   9
HETATM    9  C   UNL     1       1.910  -3.143  -1.354  1.00  0.00     0.170 C 
BRANCH   9  10
HETATM   10  O   UNL     1       2.288  -2.358  -2.482  1.00  0.00    -0.400 OA
HETATM   11  H   UNL     1       2.187  -2.884  -3.290  1.00  0.00     0.209 HD
ENDBRANCH   9  10
ENDBRANCH   8   9
ENDBRANCH   5   8
TORSDOF 3
