REMARK  2 active torsions:
REMARK  status: ('A' for Active; 'I' for Inactive)
REMARK    1  A    between atoms: C_1  and  C_5 
REMARK    2  A    between atoms: C_11  and  N_12 
ROOT
HETATM    1  N   UNL     1      -0.853   3.198   0.962  1.00  0.00    -0.363 N 
ATOM      2  HN  UNL     1      -1.176   2.591   1.716  1.00  0.00     0.165 HD
HETATM    3  C   UNL     1      -0.112   2.718  -0.066  1.00  0.00     0.049 A 
HETATM    4  C   UNL     1       0.292   3.522  -1.125  1.00  0.00     0.033 A 
HETATM    5  C   UNL     1      -1.146   4.523   0.943  1.00  0.00     0.117 A 
HETATM    6  C   UNL     1      -0.712   5.424  -0.028  1.00  0.00     0.041 A 
HETATM    7  C   UNL     1      -0.029   4.881  -1.110  1.00  0.00     0.033 A 
ENDROOT
BRANCH   3   8
HETATM    8  C   UNL     1       0.212   1.286   0.028  1.00  0.00     0.031 A 
HETATM    9  S   UNL     1       1.650   0.657  -0.679  1.00  0.00    -0.100 SA
HETATM   10  C   UNL     1       1.319  -0.927  -0.137  1.00  0.00     0.050 A 
HETATM   11  C   UNL     1       0.143  -0.992   0.574  1.00  0.00     0.008 A 
HETATM   12  C   UNL     1      -0.489   0.282   0.674  1.00  0.00     0.021 A 
ENDBRANCH   3   8
BRANCH   6  13
HETATM   13  N   UNL     1      -1.137   6.757  -0.057  1.00  0.00    -0.398 N 
HETATM   14  H   UNL     1      -0.808   7.363  -0.759  1.00  0.00     0.156 HD
HETATM   15  H   UNL     1      -1.765   7.088   0.625  1.00  0.00     0.156 HD
ENDBRANCH   6  13
TORSDOF 2
