REMARK  3 active torsions:
REMARK  status: ('A' for Active; 'I' for Inactive)
REMARK    1  A    between atoms: C_5  and  C_7 
REMARK    2  A    between atoms: C_7  and  C_10 
REMARK    3  A    between atoms: N_8  and  C_10 
ROOT
HETATM    1  N   UNL     1      -0.229  -1.359  -0.112  1.00  0.00    -0.357 N 
ATOM      2  HN  UNL     1      -0.680  -2.257  -0.286  1.00  0.00     0.166 HD
HETATM    3  C   UNL     1      -0.862  -0.212   0.012  1.00  0.00     0.046 A 
HETATM    4  S   UNL     1       0.142   1.160   0.262  1.00  0.00    -0.087 SA
HETATM    5  C   UNL     1       1.137  -1.172   0.027  1.00  0.00     0.018 A 
HETATM    6  C   UNL     1       1.518   0.141   0.236  1.00  0.00     0.076 A 
HETATM    7  C   UNL     1      -2.341  -0.052  -0.044  1.00  0.00     0.076 C 
ENDROOT
BRANCH   5   8
HETATM    8  C   UNL     1       2.041  -2.363  -0.038  1.00  0.00     0.084 C 
BRANCH   8   9
HETATM    9  C   UNL     1       2.514  -2.661  -1.464  1.00  0.00     0.235 C 
BRANCH   9  10
HETATM   10  N   UNL     1       3.427  -3.806  -1.503  1.00  0.00    -0.079 N 
HETATM   11  H   UNL     1       3.720  -3.975  -2.465  1.00  0.00     0.274 HD
HETATM   12  H   UNL     1       2.950  -4.633  -1.143  1.00  0.00     0.274 HD
HETATM   13  H   UNL     1       4.245  -3.608  -0.928  1.00  0.00     0.274 HD
ENDBRANCH   9  10
ENDBRANCH   8   9
ENDBRANCH   5   8
TORSDOF 3
