REMARK  3 active torsions:
REMARK  status: ('A' for Active; 'I' for Inactive)
REMARK    1  A    between atoms: C_1  and  C_5 
REMARK    2  A    between atoms: C_9  and  C_14 
REMARK    3  A    between atoms: O_13  and  C_14 
ROOT
HETATM    1  N   UNL     1      -0.872   3.181   0.950  1.00  0.00    -0.364 N 
ATOM      2  HN  UNL     1      -1.209   2.563   1.688  1.00  0.00     0.165 HD
HETATM    3  C   UNL     1      -0.128   2.706  -0.079  1.00  0.00     0.049 A 
HETATM    4  C   UNL     1      -0.730   5.401  -0.014  1.00  0.00    -0.019 A 
HETATM    5  C   UNL     1      -1.151   4.505   0.961  1.00  0.00     0.097 A 
HETATM    6  C   UNL     1       0.304   3.522  -1.120  1.00  0.00     0.031 A 
HETATM    7  C   UNL     1       0.001   4.882  -1.083  1.00  0.00     0.013 A 
ENDROOT
BRANCH   3   8
HETATM    8  C   UNL     1       0.189   1.271   0.012  1.00  0.00     0.031 A 
HETATM    9  S   UNL     1       1.621   0.630  -0.696  1.00  0.00    -0.100 SA
HETATM   10  C   UNL     1       1.288  -0.947  -0.137  1.00  0.00     0.050 A 
HETATM   11  C   UNL     1       0.114  -1.004   0.576  1.00  0.00     0.008 A 
HETATM   12  C   UNL     1      -0.514   0.273   0.668  1.00  0.00     0.021 A 
ENDBRANCH   3   8
BRANCH   4  13
HETATM   13  C   UNL     1      -1.041   6.864   0.073  1.00  0.00     0.204 C 
BRANCH  13  14
HETATM   14  O   UNL     1       0.158   7.624   0.154  1.00  0.00    -0.396 OA
HETATM   15  H   UNL     1      -0.061   8.568   0.209  1.00  0.00     0.209 HD
ENDBRANCH  13  14
ENDBRANCH   4  13
TORSDOF 3
