REMARK  4 active torsions:
REMARK  status: ('A' for Active; 'I' for Inactive)
REMARK    1  A    between atoms: N_1  and  C_3 
REMARK    2  A    between atoms: C_3  and  C_7 
REMARK    3  A    between atoms: C_8  and  C_17 
REMARK    4  A    between atoms: N_11  and  C_17 
ROOT
HETATM    1  C   UNL     1       3.508  -1.033   0.052  1.00  0.00    -0.033 A 
HETATM    2  C   UNL     1       5.411  -2.894  -0.928  1.00  0.00    -0.033 A 
HETATM    3  C   UNL     1       4.208  -0.783  -1.133  1.00  0.00     0.009 A 
HETATM    4  C   UNL     1       3.814  -2.202   0.767  1.00  0.00     0.009 A 
HETATM    5  C   UNL     1       4.758  -3.114   0.291  1.00  0.00     0.009 A 
HETATM    6  C   UNL     1       5.132  -1.711  -1.624  1.00  0.00     0.009 A 
ENDROOT
BRANCH   1   7
HETATM    7  C   UNL     1       2.441  -0.071   0.563  1.00  0.00     0.273 C 
BRANCH   7   8
HETATM    8  N   UNL     1       1.329   0.174  -0.384  1.00  0.00    -0.066 N 
HETATM    9  C   UNL     1       0.571  -1.049  -0.691  1.00  0.00     0.263 C 
HETATM   10  C   UNL     1      -0.508  -1.470   0.330  1.00  0.00     0.262 C 
HETATM   11  N   UNL     1      -1.839  -0.939  -0.003  1.00  0.00    -0.073 N 
HETATM   12  C   UNL     1      -1.956   0.506   0.230  1.00  0.00     0.236 C 
HETATM   13  C   UNL     1      -2.873  -1.651   0.751  1.00  0.00     0.269 C 
HETATM   14  H   UNL     1      -1.971  -1.091  -1.003  1.00  0.00     0.279 HD
HETATM   15  C   UNL     1      -0.936   1.385  -0.504  1.00  0.00     0.055 C 
HETATM   16  C   UNL     1       0.482   1.285   0.086  1.00  0.00     0.237 C 
HETATM   17  H   UNL     1       1.732   0.464  -1.275  1.00  0.00     0.280 HD
ENDBRANCH   7   8
ENDBRANCH   1   7
BRANCH   2  18
HETATM   18  C   UNL     1       6.386  -3.902  -1.480  1.00  0.00     0.268 C 
BRANCH  18  19
HETATM   19  N   UNL     1       5.955  -4.408  -2.779  1.00  0.00    -0.075 N 
HETATM   20  H   UNL     1       6.636  -5.086  -3.123  1.00  0.00     0.274 HD
HETATM   21  H   UNL     1       5.884  -3.634  -3.439  1.00  0.00     0.274 HD
HETATM   22  H   UNL     1       5.045  -4.859  -2.683  1.00  0.00     0.274 HD
ENDBRANCH  18  19
ENDBRANCH   2  18
TORSDOF 4
