REMARK  3 active torsions:
REMARK  status: ('A' for Active; 'I' for Inactive)
REMARK    1  A    between atoms: C_1  and  C_3 
REMARK    2  A    between atoms: N_2  and  C_5 
REMARK    3  A    between atoms: C_5  and  C_9 
ROOT
HETATM    1  C   UNL     1       0.864   1.065   1.610  1.00  0.00     0.040 A 
HETATM    2  C   UNL     1      -0.138   0.524   2.424  1.00  0.00     0.019 A 
HETATM    3  C   UNL     1       0.736   2.372   1.130  1.00  0.00     0.019 A 
HETATM    4  C   UNL     1      -1.303   2.654   2.423  1.00  0.00    -0.033 A 
HETATM    5  C   UNL     1      -1.207   1.316   2.837  1.00  0.00     0.010 A 
HETATM    6  C   UNL     1      -0.358   3.151   1.514  1.00  0.00     0.010 A 
ENDROOT
BRANCH   4   7
HETATM    7  C   UNL     1      -2.345   3.576   3.023  1.00  0.00     0.273 C 
BRANCH   7   8
HETATM    8  N   UNL     1      -3.626   3.719   2.334  1.00  0.00    -0.067 N 
HETATM    9  C   UNL     1      -4.407   2.496   2.177  1.00  0.00     0.235 C 
HETATM   10  C   UNL     1      -4.119   2.008   0.769  1.00  0.00     0.029 C 
HETATM   11  C   UNL     1      -3.904   3.288  -0.018  1.00  0.00     0.029 C 
HETATM   12  C   UNL     1      -3.556   4.353   1.017  1.00  0.00     0.235 C 
HETATM   13  H   UNL     1      -4.104   4.334   2.991  1.00  0.00     0.280 HD
ENDBRANCH   7   8
ENDBRANCH   4   7
BRANCH   1  14
HETATM   14  C   UNL     1       2.101   0.317   1.270  1.00  0.00     0.209 C 
HETATM   15  O   UNL     1       2.750   0.512   0.269  1.00  0.00    -0.644 OA
HETATM   16  O   UNL     1       2.487  -0.536   2.254  1.00  0.00    -0.644 OA
ENDBRANCH   1  14
TORSDOF 3
