REMARK  4 active torsions:
REMARK  status: ('A' for Active; 'I' for Inactive)
REMARK    1  A    between atoms: N_1  and  C_2 
REMARK    2  A    between atoms: C_2  and  C_3 
REMARK    3  A    between atoms: C_5  and  C_11 
REMARK    4  A    between atoms: N_6  and  C_11 
ROOT
HETATM    1  C   UNL     1      -0.545   0.050   2.604  1.00  0.00    -0.032 A 
HETATM    2  C   UNL     1       0.748   0.578   2.759  1.00  0.00     0.017 A 
HETATM    3  C   UNL     1       1.660   0.024   3.671  1.00  0.00    -0.033 A 
HETATM    4  C   UNL     1      -0.025  -1.596   4.315  1.00  0.00     0.001 A 
HETATM    5  C   UNL     1      -0.918  -1.045   3.394  1.00  0.00     0.009 A 
HETATM    6  C   UNL     1       1.257  -1.065   4.452  1.00  0.00     0.009 A 
ENDROOT
BRANCH   1   7
HETATM    7  C   UNL     1      -1.483   0.622   1.562  1.00  0.00     0.273 C 
BRANCH   7   8
HETATM    8  N   UNL     1      -2.409   1.687   1.960  1.00  0.00    -0.067 N 
HETATM    9  C   UNL     1      -1.786   2.909   2.464  1.00  0.00     0.235 C 
HETATM   10  C   UNL     1      -1.822   2.794   3.976  1.00  0.00     0.029 C 
HETATM   11  C   UNL     1      -3.041   1.935   4.265  1.00  0.00     0.029 C 
HETATM   12  C   UNL     1      -3.425   1.298   2.935  1.00  0.00     0.235 C 
HETATM   13  H   UNL     1      -2.850   1.876   1.060  1.00  0.00     0.280 HD
ENDBRANCH   7   8
ENDBRANCH   1   7
BRANCH   3  14
HETATM   14  C   UNL     1       3.053   0.589   3.791  1.00  0.00     0.268 C 
BRANCH  14  15
HETATM   15  N   UNL     1       3.758   0.534   2.515  1.00  0.00    -0.075 N 
HETATM   16  H   UNL     1       4.695   0.922   2.627  1.00  0.00     0.274 HD
HETATM   17  H   UNL     1       3.246   1.076   1.820  1.00  0.00     0.274 HD
HETATM   18  H   UNL     1       3.827  -0.436   2.207  1.00  0.00     0.274 HD
ENDBRANCH  14  15
ENDBRANCH   3  14
TORSDOF 4
