REMARK  3 active torsions:
REMARK  status: ('A' for Active; 'I' for Inactive)
REMARK    1  A    between atoms: N_1  and  C_2 
REMARK    2  A    between atoms: C_2  and  C_3 
REMARK    3  A    between atoms: C_5  and  N_6 
ROOT
HETATM    1  C   UNL     1      -0.516   0.041   2.650  1.00  0.00    -0.030 A 
HETATM    2  C   UNL     1      -0.723  -1.263   3.132  1.00  0.00     0.037 A 
HETATM    3  C   UNL     1      -0.014  -1.764   4.232  1.00  0.00     0.026 A 
HETATM    4  C   UNL     1       1.215   0.324   4.338  1.00  0.00     0.003 A 
HETATM    5  C   UNL     1       0.478   0.821   3.258  1.00  0.00     0.009 A 
HETATM    6  C   UNL     1       0.941  -0.943   4.849  1.00  0.00     0.029 A 
ENDROOT
BRANCH   1   7
HETATM    7  C   UNL     1      -1.422   0.643   1.584  1.00  0.00     0.273 C 
BRANCH   7   8
HETATM    8  N   UNL     1      -1.017   0.397   0.192  1.00  0.00    -0.067 N 
HETATM    9  C   UNL     1       0.256   1.012  -0.184  1.00  0.00     0.235 C 
HETATM   10  C   UNL     1      -0.066   2.400  -0.702  1.00  0.00     0.029 C 
HETATM   11  C   UNL     1      -1.436   2.246  -1.332  1.00  0.00     0.029 C 
HETATM   12  C   UNL     1      -1.995   0.935  -0.771  1.00  0.00     0.235 C 
HETATM   13  H   UNL     1      -0.943  -0.620   0.154  1.00  0.00     0.280 HD
ENDBRANCH   7   8
ENDBRANCH   1   7
BRANCH   3  14
HETATM   14  N   UNL     1      -0.442  -2.933   4.869  1.00  0.00    -0.399 N 
HETATM   15  H   UNL     1      -1.112  -3.511   4.437  1.00  0.00     0.156 HD
HETATM   16  H   UNL     1      -0.075  -3.177   5.748  1.00  0.00     0.156 HD
ENDBRANCH   3  14
TORSDOF 3
