REMARK  2 active torsions:
REMARK  status: ('A' for Active; 'I' for Inactive)
REMARK    1  A    between atoms: C_1  and  C_6 
REMARK    2  A    between atoms: C_6  and  N_7 
ROOT
HETATM    1  C   UNL     1      -0.168  -1.250   0.004  1.00  0.00    -0.002 A 
HETATM    2  C   UNL     1       0.704  -0.172   0.006  1.00  0.00     0.056 A 
HETATM    3  O   UNL     1       0.011   1.001   0.009  1.00  0.00    -0.327 OA
HETATM    4  C   UNL     1      -1.307   0.688   0.008  1.00  0.00     0.142 A 
HETATM    5  C   UNL     1      -1.474  -0.674   0.001  1.00  0.00     0.036 A 
HETATM    6  C   UNL     1       2.176  -0.037   0.003  1.00  0.00     0.077 C 
ENDROOT
BRANCH   1   7
HETATM    7  C   UNL     1       0.167  -2.699  -0.014  1.00  0.00     0.270 C 
BRANCH   7   8
HETATM    8  N   UNL     1      -0.385  -3.318   1.184  1.00  0.00    -0.075 N 
HETATM    9  H   UNL     1       0.014  -2.874   2.011  1.00  0.00     0.274 HD
HETATM   10  H   UNL     1      -0.157  -4.312   1.188  1.00  0.00     0.274 HD
HETATM   11  H   UNL     1      -1.398  -3.201   1.191  1.00  0.00     0.274 HD
ENDBRANCH   7   8
ENDBRANCH   1   7
TORSDOF 2
