REMARK  4 active torsions:
REMARK  status: ('A' for Active; 'I' for Inactive)
REMARK    1  A    between atoms: N_1  and  C_7 
REMARK    2  A    between atoms: C_7  and  C_8 
REMARK    3  A    between atoms: C_10  and  C_14 
REMARK    4  A    between atoms: N_11  and  C_14 
ROOT
HETATM    1  C   UNL     1       2.931  -1.199  -1.194  1.00  0.00    -0.038 A 
HETATM    2  C   UNL     1       3.478   0.079  -1.396  1.00  0.00     0.017 A 
HETATM    3  C   UNL     1       4.312   0.346  -2.493  1.00  0.00    -0.033 A 
HETATM    4  C   UNL     1       4.029  -1.954  -3.222  1.00  0.00     0.001 A 
HETATM    5  C   UNL     1       3.208  -2.211  -2.125  1.00  0.00     0.009 A 
HETATM    6  C   UNL     1       4.579  -0.685  -3.404  1.00  0.00     0.009 A 
ENDROOT
BRANCH   1   7
HETATM    7  C   UNL     1       2.054  -1.468   0.002  1.00  0.00     0.186 C 
BRANCH   7   8
HETATM    8  N   UNL     1       0.653  -1.177  -0.270  1.00  0.00    -0.299 N 
HETATM    9  N   UNL     1       0.161   0.063  -0.052  1.00  0.00    -0.310 N 
HETATM   10  C   UNL     1      -1.134  -0.054  -0.357  1.00  0.00     0.108 A 
ATOM     11  HN  UNL     1       0.661   0.892   0.269  1.00  0.00     0.186 HD
HETATM   12  C   UNL     1      -1.482  -1.365  -0.729  1.00  0.00     0.037 A 
HETATM   13  C   UNL     1      -0.307  -2.074  -0.650  1.00  0.00     0.112 A 
ENDBRANCH   7   8
ENDBRANCH   1   7
BRANCH   3  14
HETATM   14  C   UNL     1       4.898   1.720  -2.697  1.00  0.00     0.268 C 
BRANCH  14  15
HETATM   15  N   UNL     1       6.358   1.685  -2.692  1.00  0.00    -0.075 N 
HETATM   16  H   UNL     1       6.721   2.628  -2.832  1.00  0.00     0.274 HD
HETATM   17  H   UNL     1       6.686   1.080  -3.445  1.00  0.00     0.274 HD
HETATM   18  H   UNL     1       6.686   1.323  -1.797  1.00  0.00     0.274 HD
ENDBRANCH  14  15
ENDBRANCH   3  14
TORSDOF 4
