REMARK  3 active torsions:
REMARK  status: ('A' for Active; 'I' for Inactive)
REMARK    1  A    between atoms: N_1  and  C_7 
REMARK    2  A    between atoms: C_7  and  C_8 
REMARK    3  A    between atoms: C_10  and  N_11 
ROOT
HETATM    1  C   UNL     1       2.917  -1.168  -1.253  1.00  0.00    -0.036 A 
HETATM    2  C   UNL     1       3.491   0.098  -1.467  1.00  0.00     0.037 A 
HETATM    3  C   UNL     1       4.215   0.380  -2.629  1.00  0.00     0.026 A 
HETATM    4  C   UNL     1       3.882  -1.914  -3.346  1.00  0.00     0.003 A 
HETATM    5  C   UNL     1       3.109  -2.169  -2.213  1.00  0.00     0.009 A 
HETATM    6  C   UNL     1       4.449  -0.652  -3.539  1.00  0.00     0.029 A 
ENDROOT
BRANCH   1   7
HETATM    7  C   UNL     1       2.101  -1.427  -0.011  1.00  0.00     0.186 C 
BRANCH   7   8
HETATM    8  N   UNL     1       0.696  -1.099  -0.211  1.00  0.00    -0.299 N 
HETATM    9  N   UNL     1       0.245   0.151   0.036  1.00  0.00    -0.310 N 
HETATM   10  C   UNL     1      -1.058   0.078  -0.245  1.00  0.00     0.108 A 
ATOM     11  HN  UNL     1       0.775   0.960   0.361  1.00  0.00     0.186 HD
HETATM   12  C   UNL     1      -1.454  -1.216  -0.628  1.00  0.00     0.037 A 
HETATM   13  C   UNL     1      -0.300  -1.963  -0.578  1.00  0.00     0.112 A 
ENDBRANCH   7   8
ENDBRANCH   1   7
BRANCH   3  14
HETATM   14  N   UNL     1       4.885   1.604  -2.760  1.00  0.00    -0.399 N 
HETATM   15  H   UNL     1       4.716   2.328  -2.115  1.00  0.00     0.156 HD
HETATM   16  H   UNL     1       5.524   1.739  -3.496  1.00  0.00     0.156 HD
ENDBRANCH   3  14
TORSDOF 3
