REMARK  3 active torsions:
REMARK  status: ('A' for Active; 'I' for Inactive)
REMARK    1  A    between atoms: N_1  and  C_7 
REMARK    2  A    between atoms: C_7  and  C_8 
REMARK    3  A    between atoms: C_9  and  N_10 
ROOT
HETATM    1  C   UNL     1       2.926  -1.150  -1.237  1.00  0.00    -0.038 A 
HETATM    2  C   UNL     1       4.407  -0.633  -3.590  1.00  0.00     0.025 A 
HETATM    3  C   UNL     1       3.850  -1.892  -3.361  1.00  0.00     0.029 A 
HETATM    4  C   UNL     1       4.172   0.380  -2.658  1.00  0.00     0.029 A 
HETATM    5  C   UNL     1       3.138  -2.158  -2.186  1.00  0.00     0.011 A 
HETATM    6  C   UNL     1       3.461   0.123  -1.481  1.00  0.00     0.011 A 
ENDROOT
BRANCH   1   7
HETATM    7  C   UNL     1       2.116  -1.423   0.006  1.00  0.00     0.186 C 
BRANCH   7   8
HETATM    8  N   UNL     1       2.947  -1.896   1.105  1.00  0.00    -0.299 N 
HETATM    9  N   UNL     1       3.175  -3.218   1.264  1.00  0.00    -0.310 N 
HETATM   10  C   UNL     1       3.952  -3.276   2.348  1.00  0.00     0.108 A 
ATOM     11  HN  UNL     1       2.834  -3.990   0.691  1.00  0.00     0.186 HD
HETATM   12  C   UNL     1       4.183  -2.008   2.913  1.00  0.00     0.037 A 
HETATM   13  C   UNL     1       3.498  -1.135   2.100  1.00  0.00     0.112 A 
ENDBRANCH   7   8
ENDBRANCH   1   7
BRANCH   2  14
HETATM   14  N   UNL     1       4.981  -0.328  -4.831  1.00  0.00    -0.399 N 
HETATM   15  H   UNL     1       5.372   0.562  -4.987  1.00  0.00     0.156 HD
HETATM   16  H   UNL     1       4.993  -1.004  -5.547  1.00  0.00     0.156 HD
ENDBRANCH   2  14
TORSDOF 3
