REMARK  4 active torsions:
REMARK  status: ('A' for Active; 'I' for Inactive)
REMARK    1  A    between atoms: C_1  and  C_5 
REMARK    2  A    between atoms: C_2  and  C_13 
REMARK    3  A    between atoms: C_3  and  N_4 
REMARK    4  A    between atoms: C_13  and  N_14 
ROOT
HETATM    1  C   UNL     1      -0.147   1.507   3.414  1.00  0.00    -0.005 A 
HETATM    2  C   UNL     1      -0.570   0.380   4.165  1.00  0.00     0.038 A 
HETATM    3  C   UNL     1       0.404   0.073   1.488  1.00  0.00     0.048 A 
HETATM    4  C   UNL     1       0.297   1.336   2.080  1.00  0.00     0.027 A 
HETATM    5  C   UNL     1      -0.436  -0.882   3.552  1.00  0.00     0.031 A 
HETATM    6  C   UNL     1       0.048  -1.040   2.247  1.00  0.00     0.018 A 
ENDROOT
BRANCH   2   7
HETATM    7  N   UNL     1      -1.033   0.467   5.463  1.00  0.00    -0.376 N 
HETATM    8  C   UNL     1      -0.740  -0.551   6.481  1.00  0.00     0.149 C 
HETATM    9  C   UNL     1      -0.476   0.157   7.824  1.00  0.00     0.187 C 
HETATM   10  O   UNL     1      -1.576   1.002   8.212  1.00  0.00    -0.388 OA
HETATM   11  C   UNL     1      -1.814   2.000   7.199  1.00  0.00     0.187 C 
HETATM   12  C   UNL     1      -2.143   1.350   5.847  1.00  0.00     0.149 C 
ENDBRANCH   2   7
BRANCH   1  13
HETATM   13  C   UNL     1      -0.016   2.918   3.977  1.00  0.00     0.272 C 
BRANCH  13  14
HETATM   14  N   UNL     1       0.823   3.029   5.172  1.00  0.00    -0.075 N 
HETATM   15  C   UNL     1       2.213   2.663   4.930  1.00  0.00     0.267 C 
HETATM   16  H   UNL     1       0.446   2.413   5.892  1.00  0.00     0.277 HD
HETATM   17  H   UNL     1       0.813   4.007   5.462  1.00  0.00     0.277 HD
ENDBRANCH  13  14
ENDBRANCH   1  13
BRANCH   3  18
HETATM   18  C   UNL     1       0.922  -0.090   0.080  1.00  0.00     0.417 C 
HETATM   19  F   UNL     1       1.206   1.094  -0.537  1.00  0.00    -0.166 F 
HETATM   20  F   UNL     1       0.039  -0.733  -0.732  1.00  0.00    -0.166 F 
HETATM   21  F   UNL     1       2.072  -0.819   0.031  1.00  0.00    -0.166 F 
ENDBRANCH   3  18
TORSDOF 4
