REMARK  4 active torsions:
REMARK  status: ('A' for Active; 'I' for Inactive)
REMARK    1  A    between atoms: N_1  and  C_2 
REMARK    2  A    between atoms: C_5  and  C_8 
REMARK    3  A    between atoms: C_5  and  O_16 
REMARK    4  A    between atoms: O_16  and  C_19 
ROOT
HETATM    1  N   UNL     1       1.415  -0.013   0.094  1.00  0.00    -0.366 N 
HETATM    2  C   UNL     1      -1.460   0.011  -0.112  1.00  0.00     0.088 C 
HETATM    3  C   UNL     1       0.740   1.256  -0.148  1.00  0.00     0.125 C 
HETATM    4  C   UNL     1       0.730  -1.240  -0.297  1.00  0.00     0.125 C 
HETATM    5  C   UNL     1      -0.692   1.244   0.377  1.00  0.00     0.034 C 
HETATM    6  C   UNL     1      -0.689  -1.261   0.262  1.00  0.00     0.034 C 
ENDROOT
BRANCH   1   7
HETATM    7  C   UNL     1       2.466  -0.068   0.997  1.00  0.00     0.119 A 
HETATM    8  N   UNL     1       2.535   0.828   2.008  1.00  0.00    -0.344 N 
HETATM    9  C   UNL     1       3.593   0.730   2.864  1.00  0.00     0.022 A 
ATOM     10  HN  UNL     1       1.823   1.549   2.126  1.00  0.00     0.167 HD
HETATM   11  C   UNL     1       4.580  -0.231   2.694  1.00  0.00     0.112 A 
HETATM   12  C   UNL     1       3.630   1.667   4.029  1.00  0.00     0.069 C 
HETATM   13  N   UNL     1       4.561  -1.126   1.691  1.00  0.00    -0.370 N 
HETATM   14  C   UNL     1       3.488  -1.017   0.864  1.00  0.00     0.136 A 
ATOM     15  HN  UNL     1       5.290  -1.827   1.562  1.00  0.00     0.164 HD
ENDBRANCH   1   7
BRANCH   2  16
HETATM   16  C   UNL     1      -2.859  -0.028   0.475  1.00  0.00     0.263 C 
HETATM   17  O   UNL     1      -3.313  -0.947   1.141  1.00  0.00    -0.265 OA
BRANCH  16  18
HETATM   18  O   UNL     1      -3.559   1.083   0.105  1.00  0.00    -0.322 OA
BRANCH  18  19
HETATM   19  C   UNL     1      -4.900   1.170   0.610  1.00  0.00     0.174 C 
HETATM   20  C   UNL     1      -5.857   0.390  -0.273  1.00  0.00     0.034 C 
ENDBRANCH  18  19
ENDBRANCH  16  18
ENDBRANCH   2  16
TORSDOF 4
