REMARK  5 active torsions:
REMARK  status: ('A' for Active; 'I' for Inactive)
REMARK    1  A    between atoms: C_1  and  C_2 
REMARK    2  A    between atoms: C_2  and  O_4 
REMARK    3  A    between atoms: C_3  and  C_7 
REMARK    4  A    between atoms: O_4  and  C_5 
REMARK    5  A    between atoms: O_6  and  C_7 
ROOT
HETATM    1  C   UNL     1       1.406  -0.137   0.155  1.00  0.00    -0.026 A 
HETATM    2  C   UNL     1       0.504  -0.670  -0.791  1.00  0.00    -0.026 A 
HETATM    3  C   UNL     1       0.898   0.638   1.218  1.00  0.00     0.010 A 
HETATM    4  C   UNL     1      -0.872  -0.404  -0.646  1.00  0.00     0.010 A 
HETATM    5  C   UNL     1      -0.466   0.886   1.347  1.00  0.00     0.001 A 
HETATM    6  C   UNL     1      -1.354   0.364   0.412  1.00  0.00     0.001 A 
ENDROOT
BRANCH   1   7
HETATM    7  C   UNL     1       2.897  -0.392   0.110  1.00  0.00     0.215 C 
BRANCH   7   8
HETATM    8  O   UNL     1       3.469   0.190  -1.062  1.00  0.00    -0.347 OA
BRANCH   8   9
HETATM    9  C   UNL     1       4.818   0.007  -1.224  1.00  0.00     0.069 A 
HETATM   10  C   UNL     1       5.677  -0.597  -0.302  1.00  0.00     0.037 A 
HETATM   11  C   UNL     1       7.039  -0.726  -0.584  1.00  0.00     0.003 A 
HETATM   12  C   UNL     1       7.553  -0.255  -1.790  1.00  0.00     0.000 A 
HETATM   13  C   UNL     1       6.705   0.351  -2.713  1.00  0.00     0.003 A 
HETATM   14  C   UNL     1       5.342   0.484  -2.428  1.00  0.00     0.037 A 
ENDBRANCH   8   9
ENDBRANCH   7   8
ENDBRANCH   1   7
BRANCH   2  15
HETATM   15  C   UNL     1       0.939  -1.511  -1.969  1.00  0.00     0.203 C 
BRANCH  15  16
HETATM   16  O   UNL     1       0.332  -2.799  -1.913  1.00  0.00    -0.396 OA
HETATM   17  H   UNL     1       0.621  -3.326  -2.675  1.00  0.00     0.209 HD
ENDBRANCH  15  16
ENDBRANCH   2  15
TORSDOF 5
