REMARK  3 active torsions:
REMARK  status: ('A' for Active; 'I' for Inactive)
REMARK    1  A    between atoms: C_3  and  C_7 
REMARK    2  A    between atoms: C_9  and  C_14 
REMARK    3  A    between atoms: N_10  and  C_14 
ROOT
HETATM    1  C   UNL     1       2.439   1.638  -0.077  1.00  0.00    -0.007 A 
HETATM    2  C   UNL     1       3.303   1.621  -1.179  1.00  0.00     0.022 A 
HETATM    3  C   UNL     1       4.336   2.563  -1.301  1.00  0.00    -0.032 A 
HETATM    4  C   UNL     1       2.612   2.610   0.916  1.00  0.00     0.014 A 
HETATM    5  C   UNL     1       3.638   3.548   0.810  1.00  0.00     0.002 A 
HETATM    6  C   UNL     1       4.495   3.525  -0.293  1.00  0.00     0.009 A 
ENDROOT
BRANCH   1   7
HETATM    7  C   UNL     1       1.342   0.680   0.012  1.00  0.00     0.059 A 
HETATM    8  N   UNL     1       0.859   0.262   1.193  1.00  0.00    -0.299 N 
HETATM    9  N   UNL     1      -0.170  -0.539   0.868  1.00  0.00    -0.307 N 
ATOM     10  HN  UNL     1       1.197   0.499   2.126  1.00  0.00     0.187 HD
HETATM   11  C   UNL     1      -0.347  -0.682  -0.471  1.00  0.00     0.112 A 
HETATM   12  C   UNL     1      -0.986  -1.091   1.920  1.00  0.00     0.177 C 
HETATM   13  C   UNL     1       0.619   0.091  -1.064  1.00  0.00     0.050 A 
ENDBRANCH   1   7
BRANCH   3  14
HETATM   14  C   UNL     1       5.232   2.562  -2.510  1.00  0.00     0.268 C 
BRANCH  14  15
HETATM   15  N   UNL     1       5.953   1.302  -2.642  1.00  0.00    -0.075 N 
HETATM   16  H   UNL     1       6.549   1.336  -3.469  1.00  0.00     0.274 HD
HETATM   17  H   UNL     1       5.285   0.537  -2.736  1.00  0.00     0.274 HD
HETATM   18  H   UNL     1       6.529   1.151  -1.814  1.00  0.00     0.274 HD
ENDBRANCH  14  15
ENDBRANCH   3  14
TORSDOF 3
