REMARK  3 active torsions:
REMARK  status: ('A' for Active; 'I' for Inactive)
REMARK    1  A    between atoms: N_1  and  C_3 
REMARK    2  A    between atoms: C_12  and  C_16 
REMARK    3  A    between atoms: O_15  and  C_16 
ROOT
HETATM    1  N   UNL     1      -1.760  -0.803  -0.008  1.00  0.00    -0.379 N 
HETATM    2  N   UNL     1       1.376   0.170  -0.344  1.00  0.00    -0.073 N 
HETATM    3  C   UNL     1      -0.490  -1.456   0.342  1.00  0.00     0.150 C 
HETATM    4  C   UNL     1       0.624  -1.061  -0.647  1.00  0.00     0.254 C 
HETATM    5  C   UNL     1      -0.815   1.467  -0.398  1.00  0.00     0.047 C 
HETATM    6  C   UNL     1      -1.894   0.623   0.285  1.00  0.00     0.124 C 
HETATM    7  C   UNL     1       0.578   1.273   0.208  1.00  0.00     0.236 C 
HETATM    8  C   UNL     1       2.530  -0.101   0.512  1.00  0.00     0.269 C 
HETATM    9  H   UNL     1       1.695   0.497  -1.256  1.00  0.00     0.279 HD
ENDROOT
BRANCH   1  10
HETATM   10  C   UNL     1      -2.799  -1.533  -0.568  1.00  0.00     0.030 A 
HETATM   11  C   UNL     1      -4.145  -1.212  -0.334  1.00  0.00     0.030 A 
HETATM   12  C   UNL     1      -5.198  -1.946  -0.897  1.00  0.00     0.011 A 
HETATM   13  C   UNL     1      -4.937  -3.042  -1.720  1.00  0.00    -0.035 A 
HETATM   14  C   UNL     1      -3.605  -3.382  -1.967  1.00  0.00     0.011 A 
HETATM   15  C   UNL     1      -2.561  -2.639  -1.401  1.00  0.00     0.030 A 
BRANCH  13  16
HETATM   16  C   UNL     1      -6.054  -3.849  -2.320  1.00  0.00     0.202 C 
BRANCH  16  17
HETATM   17  O   UNL     1      -6.021  -3.780  -3.739  1.00  0.00    -0.396 OA
HETATM   18  H   UNL     1      -6.748  -4.306  -4.105  1.00  0.00     0.209 HD
ENDBRANCH  16  17
ENDBRANCH  13  16
ENDBRANCH   1  10
TORSDOF 3
