REMARK  3 active torsions:
REMARK  status: ('A' for Active; 'I' for Inactive)
REMARK    1  A    between atoms: N_1  and  C_3 
REMARK    2  A    between atoms: C_12  and  C_16 
REMARK    3  A    between atoms: N_14  and  C_16 
ROOT
HETATM    1  C   UNL     1      -2.787  -1.528  -0.573  1.00  0.00     0.030 A 
HETATM    2  C   UNL     1      -4.136  -1.216  -0.343  1.00  0.00     0.030 A 
HETATM    3  C   UNL     1      -2.538  -2.613  -1.428  1.00  0.00     0.030 A 
HETATM    4  C   UNL     1      -5.181  -1.936  -0.939  1.00  0.00     0.011 A 
HETATM    5  C   UNL     1      -3.575  -3.341  -2.028  1.00  0.00     0.011 A 
HETATM    6  C   UNL     1      -4.911  -3.007  -1.792  1.00  0.00    -0.033 A 
ENDROOT
BRANCH   1   7
HETATM    7  N   UNL     1      -1.758  -0.809   0.019  1.00  0.00    -0.379 N 
HETATM    8  C   UNL     1      -0.482  -1.460   0.348  1.00  0.00     0.150 C 
HETATM    9  C   UNL     1       0.623  -1.057  -0.647  1.00  0.00     0.254 C 
HETATM   10  N   UNL     1       1.376   0.174  -0.343  1.00  0.00    -0.073 N 
HETATM   11  C   UNL     1       0.577   1.274   0.212  1.00  0.00     0.236 C 
HETATM   12  C   UNL     1       2.531  -0.099   0.512  1.00  0.00     0.269 C 
HETATM   13  H   UNL     1       1.694   0.502  -1.255  1.00  0.00     0.279 HD
HETATM   14  C   UNL     1      -0.819   1.463  -0.389  1.00  0.00     0.047 C 
HETATM   15  C   UNL     1      -1.892   0.619   0.303  1.00  0.00     0.124 C 
ENDBRANCH   1   7
BRANCH   6  16
HETATM   16  C   UNL     1      -6.026  -3.797  -2.424  1.00  0.00     0.268 C 
BRANCH  16  17
HETATM   17  N   UNL     1      -5.976  -3.729  -3.880  1.00  0.00    -0.075 N 
HETATM   18  H   UNL     1      -6.744  -4.273  -4.272  1.00  0.00     0.274 HD
HETATM   19  H   UNL     1      -5.088  -4.108  -4.208  1.00  0.00     0.274 HD
HETATM   20  H   UNL     1      -6.061  -2.757  -4.178  1.00  0.00     0.274 HD
ENDBRANCH  16  17
ENDBRANCH   6  16
TORSDOF 3
