REMARK  1 active torsions:
REMARK  status: ('A' for Active; 'I' for Inactive)
REMARK    1  A    between atoms: C_2  and  N_3 
ROOT
HETATM    1  S   UNL     1       0.882   1.494  -0.331  1.00  0.00    -0.169 SA
HETATM    2  C   UNL     1      -0.724  -1.231   0.235  1.00  0.00     0.185 C 
HETATM    3  C   UNL     1      -1.461   0.026  -0.242  1.00  0.00     0.043 C 
HETATM    4  C   UNL     1       0.730  -1.275  -0.245  1.00  0.00     0.043 C 
HETATM    5  C   UNL     1       1.551  -0.090   0.250  1.00  0.00     0.076 C 
HETATM    6  C   UNL     1      -0.819   1.307   0.272  1.00  0.00     0.076 C 
ENDROOT
BRANCH   2   7
HETATM    7  N   UNL     1      -1.422  -2.431  -0.238  1.00  0.00    -0.075 N 
HETATM    8  H   UNL     1      -1.421  -2.446  -1.257  1.00  0.00     0.274 HD
HETATM    9  H   UNL     1      -2.384  -2.421   0.101  1.00  0.00     0.274 HD
HETATM   10  H   UNL     1      -0.947  -3.262   0.115  1.00  0.00     0.274 HD
ENDBRANCH   2   7
TORSDOF 1
