REMARK  3 active torsions:
REMARK  status: ('A' for Active; 'I' for Inactive)
REMARK    1  A    between atoms: C_3  and  C_7 
REMARK    2  A    between atoms: C_6  and  C_8 
REMARK    3  A    between atoms: C_8  and  N_9 
ROOT
HETATM    1  N   UNL     1       0.922  -0.475   0.019  1.00  0.00    -0.260 N 
ATOM      2  HN  UNL     1       1.874  -0.842   0.017  1.00  0.00     0.195 HD
HETATM    3  C   UNL     1      -0.217  -1.189   0.027  1.00  0.00     0.067 A 
HETATM    4  C   UNL     1      -1.339  -0.320   0.016  1.00  0.00     0.069 A 
HETATM    5  O   UNL     1       0.548   0.855   0.014  1.00  0.00    -0.240 OA
HETATM    6  C   UNL     1      -0.808   0.945   0.006  1.00  0.00     0.104 A 
ENDROOT
BRANCH   3   7
HETATM    7  C   UNL     1      -0.218  -2.651   0.037  1.00  0.00    -0.007 A 
HETATM    8  C   UNL     1      -1.292  -3.360   0.596  1.00  0.00     0.014 A 
HETATM    9  C   UNL     1      -1.300  -4.757   0.593  1.00  0.00     0.001 A 
HETATM   10  C   UNL     1      -0.237  -5.460   0.030  1.00  0.00     0.000 A 
HETATM   11  C   UNL     1       0.837  -4.769  -0.525  1.00  0.00     0.001 A 
HETATM   12  C   UNL     1       0.850  -3.371  -0.519  1.00  0.00     0.014 A 
ENDBRANCH   3   7
BRANCH   6  13
HETATM   13  C   UNL     1      -1.389   2.305  -0.016  1.00  0.00     0.296 C 
BRANCH  13  14
HETATM   14  N   UNL     1      -2.228   2.488  -1.198  1.00  0.00    -0.073 N 
HETATM   15  H   UNL     1      -1.664   2.366  -2.038  1.00  0.00     0.274 HD
HETATM   16  H   UNL     1      -2.627   3.427  -1.189  1.00  0.00     0.274 HD
HETATM   17  H   UNL     1      -2.981   1.799  -1.191  1.00  0.00     0.274 HD
ENDBRANCH  13  14
ENDBRANCH   6  13
TORSDOF 3
