REMARK  2 active torsions:
REMARK  status: ('A' for Active; 'I' for Inactive)
REMARK    1  A    between atoms: C_2  and  C_7 
REMARK    2  A    between atoms: N_6  and  C_7 
ROOT
HETATM    1  S   UNL     1      -0.171  -0.066   1.040  1.00  0.00    -0.098 SA
HETATM    2  C   UNL     1       0.765  -0.650  -0.232  1.00  0.00     0.008 A 
HETATM    3  C   UNL     1      -1.653  -0.450   0.344  1.00  0.00    -0.021 A 
HETATM    4  C   UNL     1      -1.435  -1.041  -0.896  1.00  0.00     0.015 A 
HETATM    5  C   UNL     1      -0.078  -1.153  -1.219  1.00  0.00     0.017 A 
HETATM    6  C   UNL     1      -2.982  -0.196   0.973  1.00  0.00     0.056 C 
ENDROOT
BRANCH   2   7
HETATM    7  C   UNL     1       2.262  -0.642  -0.276  1.00  0.00     0.277 C 
BRANCH   7   8
HETATM    8  N   UNL     1       2.742   0.159  -1.408  1.00  0.00    -0.075 N 
HETATM    9  C   UNL     1       4.206   0.171  -1.441  1.00  0.00     0.267 C 
HETATM   10  H   UNL     1       2.400   1.115  -1.312  1.00  0.00     0.277 HD
HETATM   11  H   UNL     1       2.395  -0.252  -2.275  1.00  0.00     0.277 HD
ENDBRANCH   7   8
ENDBRANCH   2   7
TORSDOF 2
