REMARK  2 active torsions:
REMARK  status: ('A' for Active; 'I' for Inactive)
REMARK    1  A    between atoms: C_1  and  C_6 
REMARK    2  A    between atoms: C_6  and  O_7 
ROOT
HETATM    1  C   UNL     1       1.023   0.757  -0.005  1.00  0.00     0.002 A 
HETATM    2  C   UNL     1       0.999  -0.628  -0.007  1.00  0.00     0.057 A 
HETATM    3  O   UNL     1      -0.282  -1.081  -0.003  1.00  0.00    -0.326 OA
HETATM    4  C   UNL     1      -0.350   1.169   0.002  1.00  0.00    -0.029 A 
HETATM    5  C   UNL     1      -1.090   0.006   0.004  1.00  0.00     0.149 A 
HETATM    6  C   UNL     1       2.059  -1.658  -0.011  1.00  0.00     0.077 C 
HETATM    7  C   UNL     1      -0.867   2.559   0.006  1.00  0.00     0.050 C 
ENDROOT
BRANCH   1   8
HETATM    8  C   UNL     1       2.226   1.632  -0.011  1.00  0.00     0.206 C 
BRANCH   8   9
HETATM    9  O   UNL     1       2.256   2.472  -1.159  1.00  0.00    -0.396 OA
HETATM   10  H   UNL     1       2.288   1.925  -1.960  1.00  0.00     0.209 HD
ENDBRANCH   8   9
ENDBRANCH   1   8
TORSDOF 2
