REMARK  2 active torsions:
REMARK  status: ('A' for Active; 'I' for Inactive)
REMARK    1  A    between atoms: C_1  and  C_7 
REMARK    2  A    between atoms: C_2  and  C_11 
ROOT
HETATM    1  C   UNL     1      -0.126  -1.482  -0.001  1.00  0.00     0.071 A 
HETATM    2  C   UNL     1       0.072   1.231  -0.006  1.00  0.00     0.115 A 
HETATM    3  N   UNL     1      -1.161   0.683   0.034  1.00  0.00    -0.351 N 
ATOM      4  HN  UNL     1      -2.001   1.261   0.062  1.00  0.00     0.166 HD
HETATM    5  N   UNL     1       1.215   0.512  -0.046  1.00  0.00    -0.351 N 
ATOM      6  HN  UNL     1       2.129   0.963  -0.078  1.00  0.00     0.166 HD
HETATM    7  C   UNL     1       1.088  -0.835  -0.042  1.00  0.00     0.109 A 
HETATM    8  C   UNL     1      -1.230  -0.665   0.035  1.00  0.00     0.109 A 
ENDROOT
BRANCH   2   9
HETATM    9  C   UNL     1       0.171   2.704  -0.010  1.00  0.00     0.008 A 
HETATM   10  C   UNL     1       1.416   3.361  -0.061  1.00  0.00     0.015 A 
HETATM   11  C   UNL     1       1.505   4.756  -0.073  1.00  0.00     0.001 A 
HETATM   12  C   UNL     1       0.349   5.530  -0.031  1.00  0.00     0.000 A 
HETATM   13  C   UNL     1      -0.895   4.910   0.025  1.00  0.00     0.001 A 
HETATM   14  C   UNL     1      -0.981   3.515   0.035  1.00  0.00     0.015 A 
ENDBRANCH   2   9
BRANCH   1  15
HETATM   15  C   UNL     1      -0.197  -2.944   0.006  1.00  0.00     0.212 C 
HETATM   16  O   UNL     1       0.756  -3.699  -0.022  1.00  0.00    -0.644 OA
HETATM   17  O   UNL     1      -1.462  -3.396   0.051  1.00  0.00    -0.644 OA
ENDBRANCH   1  15
TORSDOF 2
