REMARK  4 active torsions:
REMARK  status: ('A' for Active; 'I' for Inactive)
REMARK    1  A    between atoms: N_1  and  C_6 
REMARK    2  A    between atoms: C_3  and  C_6 
REMARK    3  A    between atoms: N_10  and  C_14 
REMARK    4  A    between atoms: C_13  and  C_14 
ROOT
HETATM    1  N   UNL     1       1.363   0.008   0.202  1.00  0.00    -0.067 N 
HETATM    2  C   UNL     1       0.642   1.223  -0.212  1.00  0.00     0.235 C 
HETATM    3  C   UNL     1       0.651  -1.197  -0.252  1.00  0.00     0.235 C 
HETATM    4  C   UNL     1      -0.779   1.243   0.354  1.00  0.00     0.034 C 
HETATM    5  C   UNL     1      -0.779  -1.252   0.289  1.00  0.00     0.034 C 
HETATM    6  C   UNL     1      -1.569   0.008  -0.091  1.00  0.00     0.014 C 
HETATM    7  H   UNL     1       1.406   0.012   1.221  1.00  0.00     0.280 HD
ENDROOT
BRANCH   1   8
HETATM    8  C   UNL     1       2.745  -0.006  -0.326  1.00  0.00     0.280 C 
BRANCH   8   9
HETATM    9  C   UNL     1       3.581   1.120   0.221  1.00  0.00     0.008 A 
HETATM   10  S   UNL     1       4.291   2.264  -0.840  1.00  0.00    -0.105 SA
HETATM   11  C   UNL     1       4.931   3.169   0.461  1.00  0.00     0.050 A 
HETATM   12  C   UNL     1       4.644   2.597   1.680  1.00  0.00     0.008 A 
HETATM   13  C   UNL     1       3.875   1.406   1.541  1.00  0.00     0.017 A 
ENDBRANCH   8   9
ENDBRANCH   1   8
BRANCH   6  14
HETATM   14  C   UNL     1      -2.976   0.027   0.521  1.00  0.00     0.234 C 
BRANCH  14  15
HETATM   15  N   UNL     1      -3.791  -1.079   0.028  1.00  0.00    -0.079 N 
HETATM   16  H   UNL     1      -4.716  -1.036   0.454  1.00  0.00     0.274 HD
HETATM   17  H   UNL     1      -3.346  -1.964   0.271  1.00  0.00     0.274 HD
HETATM   18  H   UNL     1      -3.879  -1.010  -0.986  1.00  0.00     0.274 HD
ENDBRANCH  14  15
ENDBRANCH   6  14
TORSDOF 4
