REMARK  2 active torsions:
REMARK  status: ('A' for Active; 'I' for Inactive)
REMARK    1  A    between atoms: C_1  and  C_7 
REMARK    2  A    between atoms: C_2  and  C_8 
ROOT
HETATM    1  C   UNL     1       0.047   1.259   0.026  1.00  0.00     0.122 A 
HETATM    2  C   UNL     1      -0.116  -1.445  -0.018  1.00  0.00     0.071 A 
HETATM    3  N   UNL     1      -1.181   0.705   0.029  1.00  0.00    -0.350 N 
ATOM      4  HN  UNL     1      -2.027   1.275   0.047  1.00  0.00     0.166 HD
HETATM    5  N   UNL     1       1.205   0.568  -0.008  1.00  0.00    -0.350 N 
ATOM      6  HN  UNL     1       2.112   1.034  -0.017  1.00  0.00     0.166 HD
HETATM    7  C   UNL     1       1.091  -0.782  -0.029  1.00  0.00     0.109 A 
HETATM    8  C   UNL     1      -1.234  -0.643   0.007  1.00  0.00     0.109 A 
ENDROOT
BRANCH   1   9
HETATM    9  C   UNL     1       0.145   2.721   0.101  1.00  0.00     0.049 A 
HETATM   10  S   UNL     1      -1.272   3.690   0.244  1.00  0.00    -0.098 SA
HETATM   11  C   UNL     1      -0.373   5.139   0.308  1.00  0.00     0.050 A 
HETATM   12  C   UNL     1       0.979   4.911   0.209  1.00  0.00     0.009 A 
HETATM   13  C   UNL     1       1.277   3.521   0.088  1.00  0.00     0.023 A 
ENDBRANCH   1   9
BRANCH   2  14
HETATM   14  C   UNL     1      -0.172  -2.909  -0.023  1.00  0.00     0.212 C 
HETATM   15  O   UNL     1       0.789  -3.653  -0.040  1.00  0.00    -0.644 OA
HETATM   16  O   UNL     1      -1.433  -3.374   0.003  1.00  0.00    -0.644 OA
ENDBRANCH   2  14
TORSDOF 2
