REMARK  4 active torsions:
REMARK  status: ('A' for Active; 'I' for Inactive)
REMARK    1  A    between atoms: C_1  and  C_4 
REMARK    2  A    between atoms: C_1  and  O_5 
REMARK    3  A    between atoms: C_4  and  C_6 
REMARK    4  A    between atoms: O_5  and  C_9 
ROOT
HETATM    1  O   UNL     1      -0.382   1.665  -4.619  1.00  0.00    -0.391 OA
HETATM    2  C   UNL     1       0.583  -0.032  -2.480  1.00  0.00    -0.001 C 
HETATM    3  C   UNL     1      -0.256   0.264  -4.852  1.00  0.00     0.168 C 
HETATM    4  C   UNL     1       0.633   2.154  -3.746  1.00  0.00     0.168 C 
HETATM    5  C   UNL     1       0.526   1.501  -2.373  1.00  0.00     0.031 C 
HETATM    6  C   UNL     1      -0.410  -0.511  -3.551  1.00  0.00     0.031 C 
ENDROOT
BRANCH   2   7
HETATM    7  C   UNL     1       0.269  -0.730  -1.150  1.00  0.00     0.115 C 
BRANCH   7   8
HETATM    8  C   UNL     1       1.215  -0.373  -0.034  1.00  0.00     0.259 C 
HETATM    9  O   UNL     1       1.034   0.562   0.738  1.00  0.00    -0.265 OA
BRANCH   8  10
HETATM   10  O   UNL     1       2.276  -1.224  -0.005  1.00  0.00    -0.322 OA
BRANCH  10  11
HETATM   11  C   UNL     1       3.196  -1.025   1.082  1.00  0.00     0.174 C 
HETATM   12  C   UNL     1       4.175   0.087   0.757  1.00  0.00     0.034 C 
ENDBRANCH  10  11
ENDBRANCH   8  10
ENDBRANCH   7   8
ENDBRANCH   2   7
TORSDOF 4
