REMARK  3 active torsions:
REMARK  status: ('A' for Active; 'I' for Inactive)
REMARK    1  A    between atoms: O_2  and  C_6 
REMARK    2  A    between atoms: C_3  and  C_7 
REMARK    3  A    between atoms: C_6  and  C_7 
ROOT
HETATM    1  O   UNL     1      -1.368   0.026  -0.313  1.00  0.00    -0.391 OA
HETATM    2  C   UNL     1       1.488  -0.027   0.234  1.00  0.00    -0.009 C 
HETATM    3  C   UNL     1      -0.763  -1.179   0.153  1.00  0.00     0.168 C 
HETATM    4  C   UNL     1      -0.742   1.194   0.215  1.00  0.00     0.168 C 
HETATM    5  C   UNL     1       0.697  -1.240  -0.279  1.00  0.00     0.031 C 
HETATM    6  C   UNL     1       0.733   1.251  -0.176  1.00  0.00     0.031 C 
ENDROOT
BRANCH   2   7
HETATM    7  C   UNL     1       1.743  -0.045   1.756  1.00  0.00     0.031 C 
BRANCH   7   8
HETATM    8  C   UNL     1       2.507  -1.269   2.245  1.00  0.00     0.164 C 
BRANCH   8   9
HETATM    9  O   UNL     1       2.721  -1.172   3.648  1.00  0.00    -0.401 OA
HETATM   10  H   UNL     1       3.208  -1.952   3.955  1.00  0.00     0.209 HD
ENDBRANCH   8   9
ENDBRANCH   7   8
ENDBRANCH   2   7
TORSDOF 3
