REMARK  2 active torsions:
REMARK  status: ('A' for Active; 'I' for Inactive)
REMARK    1  A    between atoms: C_1  and  C_4 
REMARK    2  A    between atoms: C_8  and  N_9 
ROOT
HETATM    1  C   UNL     1       2.030  -2.421  -0.056  1.00  0.00     0.017 A 
HETATM    2  C   UNL     1       1.958  -3.363  -1.108  1.00  0.00     0.038 A 
HETATM    3  C   UNL     1       2.928  -2.647   1.006  1.00  0.00     0.016 A 
HETATM    4  C   UNL     1       2.844  -4.450  -1.112  1.00  0.00     0.030 A 
HETATM    5  C   UNL     1       3.768  -3.761   1.007  1.00  0.00     0.001 A 
HETATM    6  C   UNL     1       3.728  -4.659  -0.053  1.00  0.00     0.002 A 
ENDROOT
BRANCH   1   7
HETATM    7  C   UNL     1       1.153  -1.250  -0.029  1.00  0.00     0.051 A 
HETATM    8  N   UNL     1      -0.133  -1.298  -0.561  1.00  0.00    -0.353 N 
HETATM    9  C   UNL     1      -0.729  -0.136  -0.403  1.00  0.00     0.047 A 
ATOM     10  HN  UNL     1      -0.551  -2.114  -1.008  1.00  0.00     0.166 HD
HETATM   11  S   UNL     1       0.210   1.083   0.359  1.00  0.00    -0.087 SA
HETATM   12  C   UNL     1      -2.121   0.157  -0.837  1.00  0.00     0.076 C 
HETATM   13  C   UNL     1       1.510  -0.025   0.503  1.00  0.00     0.082 A 
ENDBRANCH   1   7
BRANCH   2  14
HETATM   14  N   UNL     1       1.190  -3.123  -2.270  1.00  0.00    -0.398 N 
HETATM   15  H   UNL     1       0.560  -2.367  -2.296  1.00  0.00     0.156 HD
HETATM   16  H   UNL     1       1.285  -3.712  -3.053  1.00  0.00     0.156 HD
ENDBRANCH   2  14
TORSDOF 2
