REMARK  3 active torsions:
REMARK  status: ('A' for Active; 'I' for Inactive)
REMARK    1  A    between atoms: C_1  and  C_7 
REMARK    2  A    between atoms: C_2  and  O_6 
REMARK    3  A    between atoms: C_7  and  N_8 
ROOT
HETATM    1  C   UNL     1       0.082   1.237  -0.031  1.00  0.00     0.041 A 
HETATM    2  C   UNL     1       1.355   0.701  -0.113  1.00  0.00     0.083 A 
HETATM    3  S   UNL     1      -1.114   0.008   0.060  1.00  0.00    -0.102 SA
HETATM    4  C   UNL     1       1.339  -0.726  -0.073  1.00  0.00     0.045 A 
HETATM    5  C   UNL     1       0.061  -1.229   0.015  1.00  0.00     0.053 A 
ENDROOT
BRANCH   1   6
HETATM    6  C   UNL     1      -0.336   2.675  -0.011  1.00  0.00     0.278 C 
BRANCH   6   7
HETATM    7  N   UNL     1      -0.596   3.163  -1.363  1.00  0.00    -0.075 N 
HETATM    8  H   UNL     1       0.254   3.087  -1.921  1.00  0.00     0.274 HD
HETATM    9  H   UNL     1      -0.890   4.139  -1.321  1.00  0.00     0.274 HD
HETATM   10  H   UNL     1      -1.335   2.603  -1.789  1.00  0.00     0.274 HD
ENDBRANCH   6   7
ENDBRANCH   1   6
BRANCH   2  11
HETATM   11  O   UNL     1       2.430   1.528  -0.184  1.00  0.00    -0.355 OA
HETATM   12  C   UNL     1       3.617   0.908  -0.666  1.00  0.00     0.210 C 
ENDBRANCH   2  11
TORSDOF 3
