REMARK  3 active torsions:
REMARK  status: ('A' for Active; 'I' for Inactive)
REMARK    1  A    between atoms: C_2  and  C_6 
REMARK    2  A    between atoms: C_6  and  C_7 
REMARK    3  A    between atoms: C_8  and  N_9 
ROOT
HETATM    1  C   UNL     1      -1.037   3.017  -1.258  1.00  0.00    -0.053 A 
HETATM    2  C   UNL     1      -2.443   3.692  -3.622  1.00  0.00     0.025 A 
HETATM    3  C   UNL     1      -3.026   2.873  -2.653  1.00  0.00     0.029 A 
HETATM    4  C   UNL     1      -1.184   4.235  -3.360  1.00  0.00     0.029 A 
HETATM    5  C   UNL     1      -2.327   2.524  -1.493  1.00  0.00     0.010 A 
HETATM    6  C   UNL     1      -0.474   3.883  -2.205  1.00  0.00     0.010 A 
ENDROOT
BRANCH   1   7
HETATM    7  C   UNL     1      -0.284   2.631  -0.002  1.00  0.00     0.084 C 
BRANCH   7   8
HETATM    8  C   UNL     1       0.537   1.379  -0.148  1.00  0.00    -0.013 A 
HETATM    9  S   UNL     1      -0.154  -0.158   0.178  1.00  0.00    -0.106 SA
HETATM   10  C   UNL     1       1.298  -0.971  -0.222  1.00  0.00     0.050 A 
HETATM   11  C   UNL     1       2.307  -0.091  -0.550  1.00  0.00     0.008 A 
HETATM   12  C   UNL     1       1.870   1.265  -0.498  1.00  0.00     0.015 A 
ENDBRANCH   7   8
ENDBRANCH   1   7
BRANCH   2  13
HETATM   13  N   UNL     1      -3.199   4.140  -4.713  1.00  0.00    -0.399 N 
HETATM   14  H   UNL     1      -4.086   3.751  -4.890  1.00  0.00     0.156 HD
HETATM   15  H   UNL     1      -2.843   4.843  -5.302  1.00  0.00     0.156 HD
ENDBRANCH   2  13
TORSDOF 3
