REMARK  1 active torsions:
REMARK  status: ('A' for Active; 'I' for Inactive)
REMARK    1  A    between atoms: C_1  and  C_3 
ROOT
HETATM    1  C   UNL     1       1.140   1.434  -0.068  1.00  0.00     0.074 A 
HETATM    2  C   UNL     1      -0.040   0.674  -0.016  1.00  0.00     0.092 A 
HETATM    3  O   UNL     1      -1.247   1.324  -0.079  1.00  0.00    -0.349 OA
HETATM    4  C   UNL     1       0.037  -0.732   0.024  1.00  0.00    -0.024 A 
HETATM    5  C   UNL     1       2.386   0.787  -0.052  1.00  0.00     0.021 A 
HETATM    6  C   UNL     1       2.461  -0.602   0.029  1.00  0.00     0.002 A 
HETATM    7  C   UNL     1       1.292  -1.358   0.067  1.00  0.00     0.010 A 
HETATM    8  C   UNL     1      -2.369   0.557   0.363  1.00  0.00     0.176 C 
HETATM    9  C   UNL     1      -1.204  -1.584   0.029  1.00  0.00     0.043 C 
HETATM   10  C   UNL     1      -2.426  -0.771  -0.366  1.00  0.00     0.031 C 
ENDROOT
BRANCH   1  11
HETATM   11  C   UNL     1       1.168   2.911  -0.182  1.00  0.00     0.212 C 
HETATM   12  O   UNL     1       2.056   3.550  -0.723  1.00  0.00    -0.644 OA
HETATM   13  O   UNL     1       0.159   3.534   0.446  1.00  0.00    -0.644 OA
ENDBRANCH   1  11
TORSDOF 1
