REMARK  3 active torsions:
REMARK  status: ('A' for Active; 'I' for Inactive)
REMARK    1  A    between atoms: C_3  and  C_8 
REMARK    2  A    between atoms: C_6  and  C_9 
REMARK    3  A    between atoms: C_9  and  N_10 
ROOT
HETATM    1  N   UNL     1       0.775   0.233  -0.914  1.00  0.00    -0.321 N 
ATOM      2  HN  UNL     1       1.352   0.439  -1.729  1.00  0.00     0.169 HD
HETATM    3  C   UNL     1       0.282   1.102   0.039  1.00  0.00     0.137 A 
HETATM    4  N   UNL     1      -0.469   0.504   0.981  1.00  0.00    -0.242 N 
ATOM      5  HN  UNL     1      -0.945   0.936   1.773  1.00  0.00     0.196 HD
HETATM    6  C   UNL     1       0.312  -0.928  -0.505  1.00  0.00     0.174 A 
HETATM    7  O   UNL     1      -0.446  -0.841   0.623  1.00  0.00    -0.221 OA
ENDROOT
BRANCH   3   8
HETATM    8  C   UNL     1       0.545   2.537   0.001  1.00  0.00     0.010 A 
HETATM    9  C   UNL     1       1.309   3.091  -1.037  1.00  0.00     0.015 A 
HETATM   10  C   UNL     1       1.551   4.466  -1.088  1.00  0.00     0.001 A 
HETATM   11  C   UNL     1       1.035   5.303  -0.100  1.00  0.00     0.000 A 
HETATM   12  C   UNL     1       0.281   4.767   0.941  1.00  0.00     0.001 A 
HETATM   13  C   UNL     1       0.037   3.391   0.992  1.00  0.00     0.015 A 
ENDBRANCH   3   8
BRANCH   6  14
HETATM   14  C   UNL     1       0.480  -2.282  -1.100  1.00  0.00     0.315 C 
BRANCH  14  15
HETATM   15  N   UNL     1       1.886  -2.694  -1.152  1.00  0.00    -0.072 N 
HETATM   16  H   UNL     1       2.410  -2.044  -1.737  1.00  0.00     0.274 HD
HETATM   17  H   UNL     1       1.951  -3.633  -1.545  1.00  0.00     0.274 HD
HETATM   18  H   UNL     1       2.276  -2.692  -0.209  1.00  0.00     0.274 HD
ENDBRANCH  14  15
ENDBRANCH   6  14
TORSDOF 3
