REMARK  1 active torsions:
REMARK  status: ('A' for Active; 'I' for Inactive)
REMARK    1  A    between atoms: C_6  and  N_7 
ROOT
HETATM    1  C   UNL     1      -0.089  -0.713   0.004  1.00  0.00    -0.024 A 
HETATM    2  O   UNL     1      -2.397  -0.396   0.032  1.00  0.00    -0.382 OA
HETATM    3  C   UNL     1      -0.316   0.652   0.031  1.00  0.00    -0.026 A 
HETATM    4  C   UNL     1       1.197  -1.229  -0.036  1.00  0.00     0.038 A 
HETATM    5  C   UNL     1       0.737   1.548   0.010  1.00  0.00     0.012 A 
HETATM    6  C   UNL     1       2.282  -0.347  -0.012  1.00  0.00     0.026 A 
HETATM    7  C   UNL     1      -1.386  -1.430  -0.007  1.00  0.00     0.207 A 
HETATM    8  C   UNL     1       2.039   1.039  -0.033  1.00  0.00     0.029 A 
HETATM    9  C   UNL     1      -1.776   0.911   0.041  1.00  0.00     0.207 A 
ENDROOT
BRANCH   6  10
HETATM   10  N   UNL     1       3.582  -0.833  -0.203  1.00  0.00    -0.399 N 
HETATM   11  H   UNL     1       3.753  -1.802  -0.189  1.00  0.00     0.156 HD
HETATM   12  H   UNL     1       4.326  -0.205  -0.353  1.00  0.00     0.156 HD
ENDBRANCH   6  10
TORSDOF 1
