REMARK  1 active torsions:
REMARK  status: ('A' for Active; 'I' for Inactive)
REMARK    1  A    between atoms: C_1  and  C_6 
ROOT
HETATM    1  C   UNL     1       1.469  -0.746  -0.041  1.00  0.00     0.074 A 
HETATM    2  N   UNL     1       0.057   1.056  -0.025  1.00  0.00    -0.309 N 
ATOM      3  HN  UNL     1      -0.308   2.008  -0.018  1.00  0.00     0.186 HD
HETATM    4  C   UNL     1       0.166  -1.205  -0.020  1.00  0.00     0.129 A 
HETATM    5  N   UNL     1      -0.632  -0.099  -0.024  1.00  0.00    -0.307 N 
HETATM    6  C   UNL     1       1.333   0.660  -0.037  1.00  0.00     0.127 A 
HETATM    7  C   UNL     1      -2.074  -0.066  -0.051  1.00  0.00     0.177 C 
ENDROOT
BRANCH   1   8
HETATM    8  C   UNL     1       2.687  -1.513  -0.069  1.00  0.00     0.212 C 
HETATM    9  O   UNL     1       3.817  -1.047  -0.087  1.00  0.00    -0.644 OA
HETATM   10  O   UNL     1       2.506  -2.853  -0.083  1.00  0.00    -0.644 OA
ENDBRANCH   1   8
TORSDOF 1
