REMARK  3 active torsions:
REMARK  status: ('A' for Active; 'I' for Inactive)
REMARK    1  A    between atoms: C_1  and  C_4 
REMARK    2  A    between atoms: N_2  and  C_3 
REMARK    3  A    between atoms: C_4  and  O_10 
ROOT
HETATM    1  C   UNL     1       1.450  -0.250   0.121  1.00  0.00     0.066 A 
HETATM    2  C   UNL     1       0.565  -1.341   0.001  1.00  0.00     0.054 A 
HETATM    3  C   UNL     1       0.924   1.061   0.133  1.00  0.00     0.020 A 
HETATM    4  C   UNL     1      -0.820  -1.084  -0.091  1.00  0.00     0.031 A 
HETATM    5  C   UNL     1      -0.446   1.295   0.044  1.00  0.00     0.001 A 
HETATM    6  C   UNL     1      -1.319   0.221  -0.067  1.00  0.00     0.002 A 
ENDROOT
BRANCH   2   7
HETATM    7  N   UNL     1       0.981  -2.708  -0.018  1.00  0.00    -0.332 N 
HETATM    8  C   UNL     1       2.074  -3.273   0.605  1.00  0.00     0.096 A 
HETATM    9  C   UNL     1       2.135  -4.616   0.298  1.00  0.00     0.019 A 
HETATM   10  C   UNL     1       1.005  -4.916  -0.487  1.00  0.00     0.019 A 
HETATM   11  C   UNL     1       0.297  -3.745  -0.635  1.00  0.00     0.096 A 
ENDBRANCH   2   7
BRANCH   1  12
HETATM   12  C   UNL     1       2.933  -0.355   0.067  1.00  0.00     0.295 C 
HETATM   13  O   UNL     1       3.555  -1.103  -0.665  1.00  0.00    -0.259 OA
BRANCH  12  14
HETATM   14  O   UNL     1       3.465   0.537   0.943  1.00  0.00    -0.322 OA
HETATM   15  C   UNL     1       4.894   0.609   0.961  1.00  0.00     0.213 C 
ENDBRANCH  12  14
ENDBRANCH   1  12
TORSDOF 3
