REMARK  1 active torsions:
REMARK  status: ('A' for Active; 'I' for Inactive)
REMARK    1  A    between atoms: N_1  and  C_2 
ROOT
HETATM    1  C   UNL     1      -0.745  -2.478   0.022  1.00  0.00     0.038 A 
HETATM    2  C   UNL     1      -0.276  -3.361   1.011  1.00  0.00     0.033 A 
HETATM    3  C   UNL     1      -1.625  -2.966  -0.959  1.00  0.00     0.033 A 
HETATM    4  C   UNL     1      -1.546  -5.161   0.033  1.00  0.00     0.116 A 
HETATM    5  C   UNL     1      -2.021  -4.307  -0.952  1.00  0.00     0.044 A 
HETATM    6  C   UNL     1      -0.679  -4.700   1.014  1.00  0.00     0.044 A 
HETATM    7  F   UNL     1      -1.927  -6.445   0.037  1.00  0.00    -0.206 F 
ENDROOT
BRANCH   1   8
HETATM    8  N   UNL     1      -0.330  -1.109   0.013  1.00  0.00    -0.333 N 
HETATM    9  C   UNL     1       0.569  -0.511   0.879  1.00  0.00     0.096 A 
HETATM   10  C   UNL     1       0.715   0.818   0.547  1.00  0.00     0.019 A 
HETATM   11  C   UNL     1      -0.120   1.064  -0.557  1.00  0.00     0.019 A 
HETATM   12  C   UNL     1      -0.747  -0.124  -0.867  1.00  0.00     0.096 A 
ENDBRANCH   1   8
TORSDOF 1
