REMARK  2 active torsions:
REMARK  status: ('A' for Active; 'I' for Inactive)
REMARK    1  A    between atoms: N_1  and  C_8 
REMARK    2  A    between atoms: C_8  and  C_9 
ROOT
HETATM    1  N   UNL     1       1.470  -4.442  -2.426  1.00  0.00    -0.375 N 
ATOM      2  HN  UNL     1       2.390  -4.882  -2.444  1.00  0.00     0.164 HD
HETATM    3  C   UNL     1      -0.230  -3.177  -1.245  1.00  0.00    -0.025 A 
HETATM    4  C   UNL     1       1.022  -3.778  -1.336  1.00  0.00     0.096 A 
HETATM    5  C   UNL     1       0.640  -4.494  -3.489  1.00  0.00     0.087 A 
HETATM    6  C   UNL     1      -1.054  -3.243  -2.373  1.00  0.00     0.011 A 
HETATM    7  C   UNL     1      -0.616  -3.912  -3.513  1.00  0.00     0.018 A 
ENDROOT
BRANCH   3   8
HETATM    8  C   UNL     1      -0.665  -2.481   0.012  1.00  0.00     0.167 C 
BRANCH   8   9
HETATM    9  N   UNL     1      -0.278  -1.077   0.015  1.00  0.00    -0.362 N 
HETATM   10  C   UNL     1      -1.048  -0.042  -0.453  1.00  0.00     0.090 A 
HETATM   11  C   UNL     1      -0.351   1.130  -0.254  1.00  0.00     0.019 A 
HETATM   12  C   UNL     1       0.870   0.793   0.378  1.00  0.00     0.019 A 
HETATM   13  C   UNL     1       0.882  -0.575   0.548  1.00  0.00     0.090 A 
ENDBRANCH   8   9
ENDBRANCH   3   8
TORSDOF 2
