REMARK  4 active torsions:
REMARK  status: ('A' for Active; 'I' for Inactive)
REMARK    1  A    between atoms: C_1  and  C_5 
REMARK    2  A    between atoms: S_3  and  C_5 
REMARK    3  A    between atoms: S_3  and  C_7 
REMARK    4  A    between atoms: C_6  and  C_7 
ROOT
HETATM    1  C   UNL     1       2.929  -0.947   3.053  1.00  0.00    -0.049 A 
HETATM    2  C   UNL     1       2.722   0.433   2.899  1.00  0.00     0.008 A 
HETATM    3  C   UNL     1       3.392  -1.420   4.291  1.00  0.00     0.008 A 
HETATM    4  C   UNL     1       3.654  -0.538   5.342  1.00  0.00     0.001 A 
HETATM    5  C   UNL     1       2.992   1.316   3.949  1.00  0.00     0.001 A 
HETATM    6  C   UNL     1       3.458   0.829   5.170  1.00  0.00     0.000 A 
ENDROOT
BRANCH   1   7
HETATM    7  C   UNL     1       2.581  -1.925   1.959  1.00  0.00     0.112 C 
BRANCH   7   8
HETATM    8  S   UNL     1       3.380  -1.621   0.351  1.00  0.00    -0.154 SA
BRANCH   8   9
HETATM    9  C   UNL     1       5.138  -1.764   0.796  1.00  0.00     0.187 C 
BRANCH   9  10
HETATM   10  C   UNL     1       5.538  -3.121   1.332  1.00  0.00     0.182 C 
HETATM   11  O   UNL     1       4.841  -4.102   1.536  1.00  0.00    -0.647 OA
HETATM   12  O   UNL     1       6.862  -3.176   1.597  1.00  0.00    -0.647 OA
ENDBRANCH   9  10
ENDBRANCH   8   9
ENDBRANCH   7   8
ENDBRANCH   1   7
TORSDOF 4
