REMARK  2 active torsions:
REMARK  status: ('A' for Active; 'I' for Inactive)
REMARK    1  A    between atoms: C_1  and  N_6 
REMARK    2  A    between atoms: C_3  and  S_7 
ROOT
HETATM    1  C   UNL     1      -1.646  -0.593  -0.029  1.00  0.00     0.044 A 
HETATM    2  C   UNL     1      -0.282  -0.893  -0.144  1.00  0.00     0.054 A 
HETATM    3  C   UNL     1      -2.048   0.760   0.017  1.00  0.00     0.026 A 
HETATM    4  C   UNL     1      -1.080   1.774   0.043  1.00  0.00     0.022 A 
HETATM    5  C   UNL     1       0.672   0.125  -0.106  1.00  0.00     0.036 A 
HETATM    6  C   UNL     1       0.279   1.457  -0.013  1.00  0.00     0.025 A 
HETATM    7 CL   UNL     1       2.345  -0.270  -0.164  1.00  0.00    -0.084 Cl
ENDROOT
BRANCH   1   8
HETATM    8  N   UNL     1      -2.584  -1.637  -0.160  1.00  0.00    -0.398 N 
HETATM    9  H   UNL     1      -2.278  -2.572  -0.189  1.00  0.00     0.156 HD
HETATM   10  H   UNL     1      -3.544  -1.430  -0.221  1.00  0.00     0.156 HD
ENDBRANCH   1   8
BRANCH   3  11
HETATM   11  S   UNL     1      -3.768   1.247   0.197  1.00  0.00    -0.132 SA
HETATM   12  C   UNL     1      -4.393   0.867  -1.460  1.00  0.00     0.095 C 
ENDBRANCH   3  11
TORSDOF 2
