REMARK  0 active torsions:
REMARK  status: ('A' for Active; 'I' for Inactive)
ROOT
HETATM    1  N   UNL     1      -0.644  -1.039  -0.027  1.00  0.00    -0.303 N 
ATOM      2  HN  UNL     1      -1.018  -1.988  -0.036  1.00  0.00     0.186 HD
HETATM    3  N   UNL     1       0.648  -0.661  -0.016  1.00  0.00    -0.301 N 
HETATM    4  C   UNL     1       0.816   0.699  -0.012  1.00  0.00     0.026 A 
HETATM    5  C   UNL     1      -0.459   1.226  -0.002  1.00  0.00     0.052 A 
HETATM    6  C   UNL     1      -1.325   0.111  -0.023  1.00  0.00     0.024 A 
HETATM    7  C   UNL     1       1.660  -1.691  -0.019  1.00  0.00     0.177 C 
HETATM    8  C   UNL     1       2.135   1.375  -0.026  1.00  0.00     0.070 C 
HETATM    9  C   UNL     1      -2.807   0.101  -0.053  1.00  0.00     0.070 C 
ENDROOT
TORSDOF 0
