REMARK  2 active torsions:
REMARK  status: ('A' for Active; 'I' for Inactive)
REMARK    1  A    between atoms: C_2  and  N_7 
REMARK    2  A    between atoms: C_3  and  N_6 
ROOT
HETATM    1  C   UNL     1      -0.571   0.015   0.037  1.00  0.00     0.097 A 
HETATM    2  C   UNL     1       0.123   1.268   0.010  1.00  0.00     0.052 A 
HETATM    3  C   UNL     1       0.103  -1.250  -0.005  1.00  0.00     0.052 A 
HETATM    4  C   UNL     1      -1.990   0.023   0.275  1.00  0.00     0.104 C 
HETATM    5  N   UNL     1      -3.140   0.030   0.441  1.00  0.00    -0.191 NA
HETATM    6  C   UNL     1       1.528   1.202   0.024  1.00  0.00     0.031 A 
HETATM    7  C   UNL     1       1.511  -1.206   0.010  1.00  0.00     0.031 A 
HETATM    8  C   UNL     1       2.214  -0.007   0.033  1.00  0.00     0.005 A 
ENDROOT
BRANCH   2   9
HETATM    9  N   UNL     1      -0.494   2.522   0.001  1.00  0.00    -0.388 N 
HETATM   10  C   UNL     1      -1.724   2.806  -0.734  1.00  0.00     0.149 C 
HETATM   11  C   UNL     1       0.152   3.678   0.618  1.00  0.00     0.149 C 
ENDBRANCH   2   9
BRANCH   3  12
HETATM   12  N   UNL     1      -0.532  -2.493  -0.033  1.00  0.00    -0.388 N 
HETATM   13  C   UNL     1      -1.767  -2.748  -0.772  1.00  0.00     0.149 C 
HETATM   14  C   UNL     1       0.084  -3.661   0.591  1.00  0.00     0.149 C 
ENDBRANCH   3  12
TORSDOF 2
