REMARK  3 active torsions:
REMARK  status: ('A' for Active; 'I' for Inactive)
REMARK    1  A    between atoms: N_1  and  C_4 
REMARK    2  A    between atoms: C_4  and  C_7 
REMARK    3  A    between atoms: N_5  and  C_7 
ROOT
HETATM    1  N   UNL     1       4.497  -1.283  -0.062  1.00  0.00    -0.059 N 
HETATM    2  S   UNL     1       5.018  -4.332   0.863  1.00  0.00    -0.166 SA
HETATM    3  C   UNL     1       3.526  -2.344  -0.406  1.00  0.00     0.246 C 
HETATM    4  C   UNL     1       5.187  -1.575   1.211  1.00  0.00     0.246 C 
HETATM    5  C   UNL     1       4.162  -3.725  -0.622  1.00  0.00     0.101 C 
HETATM    6  C   UNL     1       6.033  -2.855   1.166  1.00  0.00     0.101 C 
HETATM    7  H   UNL     1       5.203  -1.268  -0.798  1.00  0.00     0.281 HD
ENDROOT
BRANCH   1   8
HETATM    8  C   UNL     1       3.856   0.055  -0.037  1.00  0.00     0.338 C 
BRANCH   8   9
HETATM    9  C   UNL     1       2.719   0.213   0.959  1.00  0.00    -0.050 C 
BRANCH   9  10
HETATM   10  N   UNL     1       1.775   0.344   1.785  1.00  0.00    -0.368 N 
ATOM     11  HN2 UNL     1       2.519   0.233   1.096  1.00  0.00     0.165 HD
ATOM     12  HN1 UNL     1       1.012   0.450   2.453  1.00  0.00     0.165 HD
ENDBRANCH   9  10
ENDBRANCH   8   9
ENDBRANCH   1   8
TORSDOF 3
