REMARK  2 active torsions:
REMARK  status: ('A' for Active; 'I' for Inactive)
REMARK    1  A    between atoms: C_1  and  C_2 
REMARK    2  A    between atoms: C_1  and  C_5 
ROOT
HETATM    1  C   UNL     1       1.023   0.269   0.330  1.00  0.00     0.163 C 
HETATM    2  O   UNL     1       0.476   1.213  -0.222  1.00  0.00    -0.292 OA
ENDROOT
BRANCH   1   3
HETATM    3  C   UNL     1       0.228  -0.470   1.361  1.00  0.00     0.010 A 
HETATM    4  C   UNL     1       0.470  -1.806   1.736  1.00  0.00     0.018 A 
HETATM    5  C   UNL     1      -0.296  -2.424   2.732  1.00  0.00     0.043 A 
HETATM    6  C   UNL     1      -1.300  -1.715   3.391  1.00  0.00     0.116 A 
HETATM    7  C   UNL     1      -1.555  -0.389   3.039  1.00  0.00     0.043 A 
HETATM    8  F   UNL     1      -2.022  -2.309   4.373  1.00  0.00    -0.206 F 
HETATM    9  C   UNL     1      -0.813   0.222   2.025  1.00  0.00     0.018 A 
ENDBRANCH   1   3
BRANCH   1  10
HETATM   10  C   UNL     1       2.554   0.140   0.218  1.00  0.00     0.064 C 
HETATM   11  C   UNL     1       3.173   1.373  -0.487  1.00  0.00     0.040 C 
HETATM   12  C   UNL     1       2.954   1.321  -2.009  1.00  0.00     0.233 C 
HETATM   13  N   UNL     1       3.573   0.112  -2.556  1.00  0.00    -0.075 N 
HETATM   14  C   UNL     1       2.976  -1.102  -1.984  1.00  0.00     0.233 C 
HETATM   15  H   UNL     1       4.570   0.124  -2.342  1.00  0.00     0.277 HD
HETATM   16  H   UNL     1       3.420   0.100  -3.564  1.00  0.00     0.277 HD
HETATM   17  C   UNL     1       3.148  -1.121  -0.461  1.00  0.00     0.040 C 
ENDBRANCH   1  10
TORSDOF 2
