REMARK  2 active torsions:
REMARK  status: ('A' for Active; 'I' for Inactive)
REMARK    1  A    between atoms: S_1  and  C_2 
REMARK    2  A    between atoms: S_1  and  N_8 
ROOT
HETATM    1  C   UNL     1       0.454   0.659   1.569  1.00  0.00     0.113 A 
HETATM    2  C   UNL     1       0.612   2.031   1.739  1.00  0.00     0.142 A 
HETATM    3  C   UNL     1      -0.060  -0.130   2.604  1.00  0.00     0.031 A 
HETATM    4  C   UNL     1       0.276   2.633   2.946  1.00  0.00     0.086 A 
HETATM    5  C   UNL     1      -0.220   1.845   3.978  1.00  0.00     0.119 A 
HETATM    6  F   UNL     1       1.125   2.795   0.765  1.00  0.00    -0.204 F 
HETATM    7  C   UNL     1      -0.397   0.473   3.817  1.00  0.00     0.044 A 
HETATM    8  F   UNL     1      -0.523   2.413   5.152  1.00  0.00    -0.206 F 
ENDROOT
BRANCH   1   9
HETATM    9  S   UNL     1       0.957  -0.079   0.052  1.00  0.00     0.242 S 
HETATM   10  O   UNL     1       0.301   0.610  -1.034  1.00  0.00    -0.206 OA
HETATM   11  O   UNL     1       0.894  -1.513   0.213  1.00  0.00    -0.206 OA
BRANCH   9  12
HETATM   12  N   UNL     1       2.577   0.309   0.011  1.00  0.00    -0.225 NA
HETATM   13  H   UNL     1       2.682   1.317  -0.102  1.00  0.00     0.136 HD
HETATM   14  H   UNL     1       3.022  -0.169  -0.772  1.00  0.00     0.136 HD
ENDBRANCH   9  12
ENDBRANCH   1   9
TORSDOF 2
