REMARK  1 active torsions:
REMARK  status: ('A' for Active; 'I' for Inactive)
REMARK    1  A    between atoms: C_3  and  N_7 
ROOT
HETATM    1  N   UNL     1      -0.303  -1.023   0.012  1.00  0.00    -0.301 N 
ATOM      2  HN  UNL     1      -0.572  -2.007   0.020  1.00  0.00     0.187 HD
HETATM    3  C   UNL     1      -0.353   1.247  -0.005  1.00  0.00     0.073 A 
HETATM    4  N   UNL     1       0.941  -0.503   0.007  1.00  0.00    -0.299 N 
HETATM    5  C   UNL     1       0.968   0.869  -0.003  1.00  0.00     0.052 A 
HETATM    6  C   UNL     1      -1.104   0.050   0.004  1.00  0.00     0.050 A 
HETATM    7  C   UNL     1       2.209   1.681  -0.010  1.00  0.00     0.072 C 
HETATM    8  C   UNL     1       2.076  -1.397   0.013  1.00  0.00     0.177 C 
HETATM    9  C   UNL     1      -2.578  -0.109   0.003  1.00  0.00     0.072 C 
ENDROOT
BRANCH   3  10
HETATM   10  N   UNL     1      -0.794   2.511  -0.014  1.00  0.00    -0.396 N 
HETATM   11  H   UNL     1      -1.761   2.695  -0.015  1.00  0.00     0.156 HD
HETATM   12  H   UNL     1      -0.151   3.257  -0.020  1.00  0.00     0.156 HD
ENDBRANCH   3  10
TORSDOF 1
