REMARK  3 active torsions:
REMARK  status: ('A' for Active; 'I' for Inactive)
REMARK    1  A    between atoms: C_1  and  S_4 
REMARK    2  A    between atoms: C_2  and  O_5 
REMARK    3  A    between atoms: C_3  and  O_6 
ROOT
HETATM    1  C   UNL     1       1.553  -0.391   0.197  1.00  0.00     0.067 A 
HETATM    2  C   UNL     1       0.539  -1.354  -0.006  1.00  0.00     0.087 A 
HETATM    3  C   UNL     1       1.173   0.974   0.122  1.00  0.00     0.087 A 
HETATM    4  C   UNL     1      -1.150   0.372  -0.271  1.00  0.00     0.006 A 
HETATM    5  C   UNL     1      -0.794  -0.976  -0.228  1.00  0.00     0.038 A 
HETATM    6  C   UNL     1      -0.163   1.337  -0.095  1.00  0.00     0.038 A 
ENDROOT
BRANCH   1   7
HETATM    7  S   UNL     1       3.158  -0.865   0.874  1.00  0.00    -0.129 SA
HETATM    8  C   UNL     1       4.124  -1.235  -0.619  1.00  0.00     0.096 C 
ENDBRANCH   1   7
BRANCH   2   9
HETATM    9  O   UNL     1       0.697  -2.706   0.200  1.00  0.00    -0.354 OA
HETATM   10  C   UNL     1       1.512  -3.347  -0.771  1.00  0.00     0.210 C 
ENDBRANCH   2   9
BRANCH   3  11
HETATM   11  O   UNL     1       1.973   2.049   0.432  1.00  0.00    -0.354 OA
HETATM   12  C   UNL     1       3.159   2.174  -0.345  1.00  0.00     0.210 C 
ENDBRANCH   3  11
TORSDOF 3
