REMARK  1 active torsions:
REMARK  status: ('A' for Active; 'I' for Inactive)
REMARK    1  A    between atoms: N_5  and  C_11 
ROOT
HETATM    1  C   UNL     1      -3.129   1.199   2.063  1.00  0.00    -0.090 C 
HETATM    2  C   UNL     1      -3.878   2.223   2.365  1.00  0.00     0.013 C 
HETATM    3  C   UNL     1      -2.257   0.005   1.712  1.00  0.00     0.327 C 
ENDROOT
BRANCH   3   4
HETATM    4  N   UNL     1      -2.117  -0.029   0.242  1.00  0.00    -0.059 N 
HETATM    5  C   UNL     1      -1.525   1.170  -0.374  1.00  0.00     0.250 C 
HETATM    6  C   UNL     1      -0.060   1.401  -0.090  1.00  0.00     0.168 C 
HETATM    7  S   UNL     1       0.924  -0.013  -0.507  1.00  0.00     0.147 S 
HETATM    8  C   UNL     1      -0.034  -1.419   0.026  1.00  0.00     0.168 C 
HETATM    9  O   UNL     1       2.116   0.025   0.324  1.00  0.00    -0.228 OA
HETATM   10  O   UNL     1       1.035  -0.077  -1.947  1.00  0.00    -0.228 OA
HETATM   11  C   UNL     1      -1.505  -1.248  -0.287  1.00  0.00     0.250 C 
HETATM   12  H   UNL     1      -3.094  -0.035  -0.048  1.00  0.00     0.281 HD
ENDBRANCH   3   4
TORSDOF 1
