REMARK  2 active torsions:
REMARK  status: ('A' for Active; 'I' for Inactive)
REMARK    1  A    between atoms: C_1  and  N_2 
REMARK    2  A    between atoms: C_7  and  N_10 
ROOT
HETATM    1  C   UNL     1       0.495   1.424   0.006  1.00  0.00     0.052 A 
HETATM    2  C   UNL     1       0.101   0.862   1.243  1.00  0.00     0.062 A 
HETATM    3  C   UNL     1      -0.774  -0.243   1.301  1.00  0.00     0.055 A 
HETATM    4  C   UNL     1      -0.056   0.803  -1.137  1.00  0.00     0.033 A 
HETATM    5  C   UNL     1      -1.310  -0.815   0.150  1.00  0.00     0.027 A 
HETATM    6 CL   UNL     1       0.699   1.380   2.787  1.00  0.00    -0.082 Cl
HETATM    7  C   UNL     1      -0.904  -0.305  -1.073  1.00  0.00     0.031 A 
ENDROOT
BRANCH   1   8
HETATM    8  N   UNL     1       1.317   2.527  -0.197  1.00  0.00    -0.375 N 
HETATM    9  C   UNL     1       1.598   3.552   0.824  1.00  0.00     0.149 C 
HETATM   10  C   UNL     1       1.855   4.905   0.131  1.00  0.00     0.187 C 
HETATM   11  O   UNL     1       2.891   4.826  -0.861  1.00  0.00    -0.388 OA
HETATM   12  C   UNL     1       2.555   3.842  -1.853  1.00  0.00     0.187 C 
HETATM   13  C   UNL     1       2.389   2.456  -1.215  1.00  0.00     0.149 C 
ENDBRANCH   1   8
BRANCH   5  14
HETATM   14  N   UNL     1      -2.038  -2.004   0.218  1.00  0.00    -0.399 N 
HETATM   15  H   UNL     1      -2.412  -2.400  -0.602  1.00  0.00     0.156 HD
HETATM   16  H   UNL     1      -2.178  -2.447   1.086  1.00  0.00     0.156 HD
ENDBRANCH   5  14
TORSDOF 2
