REMARK  1 active torsions:
REMARK  status: ('A' for Active; 'I' for Inactive)
REMARK    1  A    between atoms: C_4  and  O_10 
ROOT
HETATM    1  C   UNL     1      -1.453  -0.075  -0.054  1.00  0.00     0.079 A 
HETATM    2  N   UNL     1      -4.039  -0.194  -0.163  1.00  0.00    -0.191 NA
HETATM    3  C   UNL     1      -2.882  -0.116  -0.106  1.00  0.00     0.102 C 
HETATM    4  C   UNL     1      -0.687  -1.247  -0.043  1.00  0.00     0.086 A 
HETATM    5  C   UNL     1      -0.808   1.169  -0.029  1.00  0.00     0.049 A 
HETATM    6  C   UNL     1       0.706  -1.180   0.000  1.00  0.00     0.040 A 
HETATM    7  C   UNL     1       0.586   1.228  -0.008  1.00  0.00     0.035 A 
HETATM    8  C   UNL     1       1.345   0.060   0.010  1.00  0.00     0.026 A 
HETATM    9 CL   UNL     1       1.373   2.758  -0.018  1.00  0.00    -0.084 Cl
ENDROOT
BRANCH   4  10
HETATM   10  O   UNL     1      -1.218  -2.507  -0.080  1.00  0.00    -0.359 OA
HETATM   11  H   UNL     1      -2.147  -2.623  -0.109  1.00  0.00     0.217 HD
ENDBRANCH   4  10
TORSDOF 1
