REMARK  1 active torsions:
REMARK  status: ('A' for Active; 'I' for Inactive)
REMARK    1  A    between atoms: C_3  and  C_9 
ROOT
HETATM    1  N   UNL     1      -4.169  -1.782  -2.606  1.00  0.00    -0.197 NA
HETATM    2  C   UNL     1      -3.815  -1.629  -1.511  1.00  0.00     0.065 C 
HETATM    3  C   UNL     1      -3.409  -1.431  -0.114  1.00  0.00     0.188 C 
ENDROOT
BRANCH   3   4
HETATM    4  C   UNL     1      -2.016  -0.896  -0.055  1.00  0.00     0.065 A 
HETATM    5  N   UNL     1      -0.940  -1.651   0.006  1.00  0.00    -0.352 N 
HETATM    6  C   UNL     1       0.197  -0.859   0.009  1.00  0.00     0.050 A 
ATOM      7  HN  UNL     1      -0.943  -2.670   0.045  1.00  0.00     0.166 HD
HETATM    8  C   UNL     1      -0.033   0.518  -0.009  1.00  0.00     0.033 A 
HETATM    9  C   UNL     1       1.527  -1.325   0.023  1.00  0.00     0.031 A 
HETATM   10  S   UNL     1      -1.731   0.800  -0.037  1.00  0.00    -0.074 SA
HETATM   11  C   UNL     1       1.022   1.446  -0.009  1.00  0.00     0.021 A 
HETATM   12  C   UNL     1       2.333   0.958  -0.002  1.00  0.00     0.002 A 
HETATM   13  C   UNL     1       2.585  -0.411   0.012  1.00  0.00     0.002 A 
ENDBRANCH   3   4
TORSDOF 1
