REMARK  2 active torsions:
REMARK  status: ('A' for Active; 'I' for Inactive)
REMARK    1  A    between atoms: C_1  and  C_5 
REMARK    2  A    between atoms: C_2  and  N_8 
REMARK       I    between atoms: C_5  and  N_9 
ROOT
HETATM    1  C   UNL     1       1.031   0.670   0.014  1.00  0.00     0.071 A 
HETATM    2  C   UNL     1       1.092  -0.717   0.099  1.00  0.00     0.084 A 
HETATM    3  S   UNL     1      -0.461  -1.430   0.169  1.00  0.00    -0.083 SA
HETATM    4  C   UNL     1      -0.348   1.131  -0.002  1.00  0.00    -0.037 A 
HETATM    5  C   UNL     1      -1.238   0.078   0.056  1.00  0.00     0.059 A 
HETATM    6  C   UNL     1      -0.764   2.568  -0.043  1.00  0.00     0.050 C 
ENDROOT
BRANCH   1   7
HETATM    7  C   UNL     1       2.190   1.566  -0.049  1.00  0.00     0.252 C 
HETATM    8  O   UNL     1       2.167   2.675  -0.571  1.00  0.00    -0.268 OA
HETATM    9  N   UNL     1       3.326   1.126   0.569  1.00  0.00    -0.366 N 
HETATM   10  H   UNL     1       3.345   0.235   0.988  1.00  0.00     0.159 HD
HETATM   11  H   UNL     1       4.125   1.700   0.596  1.00  0.00     0.159 HD
ENDBRANCH   1   7
BRANCH   2  12
HETATM   12  N   UNL     1       2.183  -1.526   0.113  1.00  0.00    -0.393 N 
HETATM   13  H   UNL     1       3.086  -1.136   0.073  1.00  0.00     0.156 HD
HETATM   14  H   UNL     1       2.071  -2.503   0.162  1.00  0.00     0.156 HD
ENDBRANCH   2  12
TORSDOF 2
