REMARK  1 active torsions:
REMARK  status: ('A' for Active; 'I' for Inactive)
REMARK    1  A    between atoms: C_1  and  C_4 
ROOT
HETATM    1  C   UNL     1      -0.777   1.313  -0.006  1.00  0.00     0.081 A 
HETATM    2  S   UNL     1      -1.423  -0.271  -0.009  1.00  0.00    -0.095 SA
HETATM    3  C   UNL     1       0.604   1.286  -0.001  1.00  0.00     0.033 A 
HETATM    4  C   UNL     1       0.134  -0.979  -0.005  1.00  0.00     0.057 A 
HETATM    5  C   UNL     1       1.146  -0.039  -0.001  1.00  0.00    -0.054 A 
HETATM    6  C   UNL     1       2.606  -0.335   0.003  1.00  0.00     0.048 C 
ENDROOT
BRANCH   1   7
HETATM    7  C   UNL     1      -1.660   2.453  -0.010  1.00  0.00     0.216 C 
HETATM    8  O   UNL     1      -2.883   2.481  -0.015  1.00  0.00    -0.643 OA
HETATM    9  O   UNL     1      -0.964   3.614  -0.008  1.00  0.00    -0.643 OA
ENDBRANCH   1   7
TORSDOF 1
