REMARK  2 active torsions:
REMARK  status: ('A' for Active; 'I' for Inactive)
REMARK    1  A    between atoms: C_4  and  C_7 
REMARK    2  A    between atoms: C_5  and  S_8 
ROOT
HETATM    1  C   UNL     1       1.084   0.799  -0.043  1.00  0.00     0.070 A 
HETATM    2  N   UNL     1      -1.054   0.031   0.106  1.00  0.00    -0.299 N 
ATOM      3  HN  UNL     1      -2.069  -0.029   0.182  1.00  0.00     0.187 HD
HETATM    4  C   UNL     1      -0.297   1.138   0.018  1.00  0.00     0.061 A 
HETATM    5  C   UNL     1       1.127  -0.569  -0.006  1.00  0.00     0.086 A 
HETATM    6  N   UNL     1      -0.167  -0.981   0.071  1.00  0.00    -0.294 N 
HETATM    7  H   UNL     1      -0.430  -1.929   0.100  1.00  0.00     0.187 HD
ENDROOT
BRANCH   4   8
HETATM    8  C   UNL     1      -0.874   2.483   0.015  1.00  0.00    -0.008 A 
HETATM    9  C   UNL     1      -2.091   2.740   0.666  1.00  0.00     0.017 A 
HETATM   10  C   UNL     1      -2.616   4.035   0.700  1.00  0.00     0.043 A 
HETATM   11  C   UNL     1      -1.931   5.070   0.074  1.00  0.00     0.116 A 
HETATM   12  C   UNL     1      -0.735   4.836  -0.593  1.00  0.00     0.043 A 
HETATM   13  F   UNL     1      -2.429   6.313   0.113  1.00  0.00    -0.206 F 
HETATM   14  C   UNL     1      -0.207   3.543  -0.623  1.00  0.00     0.017 A 
ENDBRANCH   4   8
BRANCH   5  15
HETATM   15  S   UNL     1       2.398  -1.735  -0.028  1.00  0.00    -0.115 SA
HETATM   16  C   UNL     1       3.869  -0.686  -0.097  1.00  0.00     0.097 C 
ENDBRANCH   5  15
TORSDOF 2
