REMARK  3 active torsions:
REMARK  status: ('A' for Active; 'I' for Inactive)
REMARK    1  A    between atoms: C_1  and  C_3 
REMARK    2  A    between atoms: C_2  and  N_8 
REMARK    3  A    between atoms: C_3  and  O_9 
ROOT
HETATM    1  C   UNL     1      -0.698  -1.223  -0.544  1.00  0.00     0.072 A 
HETATM    2  C   UNL     1      -1.246   0.083  -0.424  1.00  0.00     0.049 A 
HETATM    3  S   UNL     1       1.113   0.394  -1.181  1.00  0.00    -0.110 SA
HETATM    4  C   UNL     1       0.633  -1.199  -0.960  1.00  0.00     0.069 A 
HETATM    5  C   UNL     1      -0.346   1.093  -0.747  1.00  0.00     0.079 A 
ENDROOT
BRANCH   1   6
HETATM    6  C   UNL     1      -1.390  -2.510  -0.274  1.00  0.00     0.295 C 
HETATM    7  O   UNL     1      -2.565  -2.534   0.057  1.00  0.00    -0.259 OA
BRANCH   6   8
HETATM    8  O   UNL     1      -0.698  -3.673  -0.399  1.00  0.00    -0.322 OA
HETATM    9  C   UNL     1      -1.246  -4.919  -0.176  1.00  0.00     0.213 C 
ENDBRANCH   6   8
ENDBRANCH   1   6
BRANCH   2  10
HETATM   10  N   UNL     1      -2.570   0.389  -0.019  1.00  0.00    -0.398 N 
HETATM   11  H   UNL     1      -3.196  -0.336   0.207  1.00  0.00     0.156 HD
HETATM   12  H   UNL     1      -2.864   1.327   0.037  1.00  0.00     0.156 HD
ENDBRANCH   2  10
TORSDOF 3
