REMARK  2 active torsions:
REMARK  status: ('A' for Active; 'I' for Inactive)
REMARK    1  A    between atoms: C_1  and  C_3 
REMARK    2  A    between atoms: C_3  and  O_9 
ROOT
HETATM    1  C   UNL     1       0.233   1.086  -0.013  1.00  0.00     0.101 A 
HETATM    2  C   UNL     1      -0.646   0.015  -0.006  1.00  0.00     0.057 A 
HETATM    3  S   UNL     1       1.866   0.528  -0.003  1.00  0.00    -0.094 SA
HETATM    4  C   UNL     1       0.026  -1.246   0.002  1.00  0.00     0.032 A 
HETATM    5  C   UNL     1       1.393  -1.110   0.006  1.00  0.00     0.052 A 
HETATM    6 CL   UNL     1      -2.361   0.058  -0.008  1.00  0.00    -0.083 Cl
ENDROOT
BRANCH   1   7
HETATM    7  C   UNL     1       0.013   2.523  -0.027  1.00  0.00     0.301 C 
HETATM    8  O   UNL     1       0.883   3.387  -0.029  1.00  0.00    -0.259 OA
BRANCH   7   9
HETATM    9  O   UNL     1      -1.321   2.807  -0.040  1.00  0.00    -0.322 OA
HETATM   10  C   UNL     1      -1.638   4.199  -0.060  1.00  0.00     0.213 C 
ENDBRANCH   7   9
ENDBRANCH   1   7
TORSDOF 2
