REMARK  3 active torsions:
REMARK  status: ('A' for Active; 'I' for Inactive)
REMARK    1  A    between atoms: C_1  and  C_3 
REMARK    2  A    between atoms: C_2  and  N_8 
REMARK    3  A    between atoms: C_3  and  O_9 
ROOT
HETATM    1  C   UNL     1       0.079   1.532   0.013  1.00  0.00     0.073 A 
HETATM    2  C   UNL     1       0.828   0.363   0.012  1.00  0.00     0.084 A 
HETATM    3  S   UNL     1      -0.159  -1.038  -0.008  1.00  0.00    -0.084 SA
HETATM    4  C   UNL     1      -1.332   1.230  -0.000  1.00  0.00     0.028 A 
HETATM    5  C   UNL     1      -1.593  -0.119  -0.011  1.00  0.00     0.053 A 
ENDROOT
BRANCH   1   6
HETATM    6  C   UNL     1       0.649   2.879   0.026  1.00  0.00     0.295 C 
HETATM    7  O   UNL     1       1.854   3.120   0.031  1.00  0.00    -0.259 OA
BRANCH   6   8
HETATM    8  O   UNL     1      -0.319   3.848   0.029  1.00  0.00    -0.322 OA
HETATM    9  C   UNL     1       0.178   5.186   0.041  1.00  0.00     0.213 C 
ENDBRANCH   6   8
ENDBRANCH   1   6
BRANCH   2  10
HETATM   10  N   UNL     1       2.168   0.225   0.026  1.00  0.00    -0.393 N 
HETATM   11  H   UNL     1       2.745   1.022   0.038  1.00  0.00     0.156 HD
HETATM   12  H   UNL     1       2.570  -0.674   0.024  1.00  0.00     0.156 HD
ENDBRANCH   2  10
TORSDOF 3
