REMARK  1 active torsions:
REMARK  status: ('A' for Active; 'I' for Inactive)
REMARK    1  A    between atoms: C_1  and  C_4 
ROOT
HETATM    1  C   UNL     1       1.320   0.693  -0.045  1.00  0.00     0.133 A 
HETATM    2  N   UNL     1       0.025   1.072  -0.054  1.00  0.00    -0.295 N 
ATOM      3  HN  UNL     1      -0.348   2.021  -0.073  1.00  0.00     0.187 HD
HETATM    4  C   UNL     1       1.425  -0.725  -0.010  1.00  0.00     0.054 A 
HETATM    5  N   UNL     1      -0.663  -0.083  -0.032  1.00  0.00    -0.307 N 
HETATM    6  C   UNL     1       0.131  -1.189  -0.001  1.00  0.00     0.112 A 
HETATM    7  C   UNL     1      -2.105  -0.046  -0.055  1.00  0.00     0.177 C 
ENDROOT
BRANCH   1   8
HETATM    8  C   UNL     1       2.466   1.669  -0.077  1.00  0.00     0.433 C 
HETATM    9  F   UNL     1       2.080   2.972  -0.093  1.00  0.00    -0.165 F 
HETATM   10  F   UNL     1       3.283   1.518   1.003  1.00  0.00    -0.165 F 
HETATM   11  F   UNL     1       3.251   1.482  -1.175  1.00  0.00    -0.165 F 
ENDBRANCH   1   8
TORSDOF 1
