REMARK  1 active torsions:
REMARK  status: ('A' for Active; 'I' for Inactive)
REMARK    1  A    between atoms: C_1  and  C_2 
ROOT
HETATM    1  C   UNL     1      -0.352   1.088   0.004  1.00  0.00     0.133 A 
HETATM    2  N   UNL     1      -1.115  -0.025   0.004  1.00  0.00    -0.297 N 
ATOM      3  HN  UNL     1      -2.133  -0.084   0.005  1.00  0.00     0.187 HD
HETATM    4  N   UNL     1      -0.233  -1.038   0.003  1.00  0.00    -0.311 N 
HETATM    5  C   UNL     1       1.029   0.746   0.002  1.00  0.00     0.054 A 
HETATM    6  C   UNL     1       1.065  -0.627   0.001  1.00  0.00     0.109 A 
HETATM    7  H   UNL     1      -0.500  -1.985   0.003  1.00  0.00     0.186 HD
ENDROOT
BRANCH   1   8
HETATM    8  C   UNL     1      -0.919   2.484   0.002  1.00  0.00     0.433 C 
HETATM    9  F   UNL     1      -2.277   2.527   0.019  1.00  0.00    -0.165 F 
HETATM   10  F   UNL     1      -0.493   3.197   1.082  1.00  0.00    -0.165 F 
HETATM   11  F   UNL     1      -0.520   3.184  -1.096  1.00  0.00    -0.165 F 
ENDBRANCH   1   8
TORSDOF 1
