REMARK  5 active torsions:
REMARK  status: ('A' for Active; 'I' for Inactive)
REMARK    1  A    between atoms: C_1  and  C_7 
REMARK    2  A    between atoms: C_2  and  C_6 
REMARK    3  A    between atoms: C_3  and  N_13 
REMARK    4  A    between atoms: C_7  and  O_14 
REMARK    5  A    between atoms: O_14  and  C_15 
ROOT
HETATM    1  C   UNL     1       0.080   1.561   0.070  1.00  0.00     0.084 A 
HETATM    2  C   UNL     1      -1.339   1.267   0.035  1.00  0.00     0.007 A 
HETATM    3  C   UNL     1       0.832   0.393   0.048  1.00  0.00     0.085 A 
HETATM    4  C   UNL     1      -1.583  -0.090   0.082  1.00  0.00     0.065 A 
HETATM    5  S   UNL     1      -0.150  -1.008   0.034  1.00  0.00    -0.083 SA
ENDROOT
BRANCH   1   6
HETATM    6  C   UNL     1       0.667   2.888   0.225  1.00  0.00     0.297 C 
HETATM    7  O   UNL     1       0.156   3.778   0.896  1.00  0.00    -0.259 OA
BRANCH   6   8
HETATM    8  O   UNL     1       1.837   3.054  -0.470  1.00  0.00    -0.318 OA
BRANCH   8   9
HETATM    9  C   UNL     1       2.420   4.362  -0.369  1.00  0.00     0.174 C 
HETATM   10  C   UNL     1       1.775   5.314  -1.361  1.00  0.00     0.034 C 
ENDBRANCH   8   9
ENDBRANCH   6   8
ENDBRANCH   1   6
BRANCH   2  11
HETATM   11  C   UNL     1      -2.468   2.267  -0.031  1.00  0.00     0.016 A 
HETATM   12  S   UNL     1      -4.034   1.991   0.608  1.00  0.00    -0.101 SA
HETATM   13  C   UNL     1      -4.549   3.574   0.213  1.00  0.00     0.050 A 
HETATM   14  C   UNL     1      -3.584   4.269  -0.479  1.00  0.00     0.008 A 
HETATM   15  C   UNL     1      -2.388   3.509  -0.631  1.00  0.00     0.020 A 
ENDBRANCH   2  11
BRANCH   3  16
HETATM   16  N   UNL     1       2.175   0.254   0.084  1.00  0.00    -0.393 N 
HETATM   17  H   UNL     1       2.753   1.051   0.092  1.00  0.00     0.156 HD
HETATM   18  H   UNL     1       2.577  -0.645   0.102  1.00  0.00     0.156 HD
ENDBRANCH   3  16
TORSDOF 5
