REMARK  1 active torsions:
REMARK  status: ('A' for Active; 'I' for Inactive)
REMARK    1  A    between atoms: C_2  and  N_11 
ROOT
HETATM    1  C   UNL     1       1.360  -1.604   0.030  1.00  0.00     0.085 A 
HETATM    2  C   UNL     1       2.484  -0.799   0.020  1.00  0.00     0.089 A 
HETATM    3  C   UNL     1       0.148  -0.847  -0.004  1.00  0.00    -0.018 A 
HETATM    4  C   UNL     1       0.397   0.512  -0.004  1.00  0.00     0.018 A 
HETATM    5  S   UNL     1       2.059   0.865  -0.018  1.00  0.00    -0.074 SA
HETATM    6  C   UNL     1       1.418  -3.035   0.077  1.00  0.00     0.103 C 
HETATM    7  N   UNL     1       1.454  -4.193   0.121  1.00  0.00    -0.191 NA
HETATM    8  N   UNL     1      -1.999   1.053   0.346  1.00  0.00    -0.070 N 
HETATM    9  C   UNL     1      -0.662   1.581  -0.023  1.00  0.00     0.281 C 
HETATM   10  C   UNL     1      -1.261  -1.363   0.007  1.00  0.00     0.069 C 
HETATM   11  C   UNL     1      -2.259  -0.234  -0.339  1.00  0.00     0.239 C 
HETATM   12  C   UNL     1      -2.141   0.932   1.798  1.00  0.00     0.270 C 
HETATM   13  H   UNL     1      -2.703   1.720   0.032  1.00  0.00     0.279 HD
ENDROOT
BRANCH   2  14
HETATM   14  N   UNL     1       3.782  -1.167   0.037  1.00  0.00    -0.392 N 
HETATM   15  H   UNL     1       4.023  -2.121   0.058  1.00  0.00     0.156 HD
HETATM   16  H   UNL     1       4.488  -0.481   0.028  1.00  0.00     0.156 HD
ENDBRANCH   2  14
TORSDOF 1
