REMARK  2 active torsions:
REMARK  status: ('A' for Active; 'I' for Inactive)
REMARK    1  A    between atoms: N_1  and  C_6 
REMARK    2  A    between atoms: C_6  and  C_8 
ROOT
HETATM    1  N   UNL     1       3.368  -3.625  -2.905  1.00  0.00    -0.075 N 
HETATM    2  C   UNL     1       2.822  -1.148  -1.381  1.00  0.00     0.007 C 
HETATM    3  C   UNL     1       2.007  -3.098  -2.845  1.00  0.00     0.232 C 
HETATM    4  C   UNL     1       4.122  -3.338  -1.691  1.00  0.00     0.232 C 
HETATM    5  C   UNL     1       1.982  -1.591  -2.589  1.00  0.00     0.034 C 
HETATM    6  C   UNL     1       4.201  -1.832  -1.436  1.00  0.00     0.034 C 
HETATM    7  H   UNL     1       3.323  -4.636  -3.033  1.00  0.00     0.277 HD
HETATM    8  H   UNL     1       3.845  -3.173  -3.685  1.00  0.00     0.277 HD
ENDROOT
BRANCH   2   9
HETATM    9  C   UNL     1       2.137  -1.358  -0.008  1.00  0.00     0.133 C 
BRANCH   9  10
HETATM   10  N   UNL     1       0.898  -0.605   0.200  1.00  0.00    -0.354 N 
HETATM   11  C   UNL     1       0.754   0.773   0.172  1.00  0.00     0.008 C 
HETATM   12  C   UNL     1      -0.599   1.047   0.219  1.00  0.00     0.026 C 
HETATM   13  C   UNL     1       1.865   1.762   0.116  1.00  0.00     0.068 C 
HETATM   14  C   UNL     1      -1.274  -0.162   0.464  1.00  0.00     0.026 C 
HETATM   15  C   UNL     1      -0.323  -1.159   0.547  1.00  0.00     0.008 C 
HETATM   16  C   UNL     1      -0.519  -2.577   0.956  1.00  0.00     0.068 C 
ENDBRANCH   9  10
ENDBRANCH   2   9
TORSDOF 2
