REMARK  0 active torsions:
REMARK  status: ('A' for Active; 'I' for Inactive)
ROOT
HETATM    1  C   UNL     1      -0.802   1.398   0.617  1.00  0.00     0.224 C 
HETATM    2  N   UNL     1       0.534   1.664   0.618  1.00  0.00    -0.355 N 
HETATM    3  C   UNL     1      -0.701   0.600  -0.687  1.00  0.00     0.104 C 
HETATM    4  C   UNL     1       0.830   0.737  -0.497  1.00  0.00     0.101 C 
HETATM    5  O   UNL     1      -1.678   1.847   1.315  1.00  0.00    -0.273 OA
HETATM    6  C   UNL     1      -0.531  -1.764   0.074  1.00  0.00    -0.030 C 
HETATM    7  C   UNL     1       0.755  -1.614   0.418  1.00  0.00    -0.029 C 
HETATM    8  C   UNL     1      -1.303  -0.786  -0.748  1.00  0.00     0.043 C 
HETATM    9  C   UNL     1       1.630  -0.456   0.030  1.00  0.00     0.053 C 
HETATM   10  H   UNL     1       1.098   2.258   1.163  1.00  0.00     0.162 HD
ENDROOT
TORSDOF 0
