REMARK  2 active torsions:
REMARK  status: ('A' for Active; 'I' for Inactive)
REMARK    1  A    between atoms: S_1  and  C_2 
REMARK    2  A    between atoms: C_5  and  C_6 
ROOT
HETATM    1  C   UNL     1       0.559  -1.198  -1.253  1.00  0.00     0.058 A 
HETATM    2  C   UNL     1      -0.197  -3.100  -3.159  1.00  0.00     0.009 A 
HETATM    3  C   UNL     1       1.027  -2.511  -1.148  1.00  0.00     0.024 A 
HETATM    4  C   UNL     1      -0.309  -0.832  -2.284  1.00  0.00     0.024 A 
HETATM    5  C   UNL     1       0.651  -3.460  -2.103  1.00  0.00     0.016 A 
HETATM    6  C   UNL     1      -0.681  -1.785  -3.237  1.00  0.00     0.016 A 
ENDROOT
BRANCH   1   7
HETATM    7  S   UNL     1       1.025  -0.003  -0.020  1.00  0.00     0.171 S 
HETATM    8  O   UNL     1       1.340  -0.736   1.191  1.00  0.00    -0.223 OA
HETATM    9  O   UNL     1       0.019   1.040  -0.020  1.00  0.00    -0.223 OA
HETATM   10  C   UNL     1       2.533   0.681  -0.658  1.00  0.00     0.167 C 
ENDBRANCH   1   7
BRANCH   2  11
HETATM   11  C   UNL     1      -0.608  -4.076  -4.214  1.00  0.00     0.155 C 
HETATM   12  O   UNL     1      -1.372  -3.721  -5.109  1.00  0.00    -0.293 OA
HETATM   13  C   UNL     1      -0.065  -5.480  -4.160  1.00  0.00     0.096 C 
ENDBRANCH   2  11
TORSDOF 2
