REMARK  0 active torsions:
REMARK  status: ('A' for Active; 'I' for Inactive)
ROOT
HETATM    1  N   UNL     1       1.231  -1.414  -0.024  1.00  0.00    -0.366 N 
ATOM      2  HN  UNL     1       1.238  -2.434  -0.045  1.00  0.00     0.165 HD
HETATM    3  N   UNL     1       1.227   1.415   0.021  1.00  0.00    -0.366 N 
ATOM      4  HN  UNL     1       1.231   2.435   0.042  1.00  0.00     0.165 HD
HETATM    5  C   UNL     1       0.075  -0.701  -0.003  1.00  0.00     0.031 A 
HETATM    6  C   UNL     1       0.073   0.699   0.002  1.00  0.00     0.031 A 
HETATM    7  C   UNL     1       2.370  -0.689  -0.015  1.00  0.00     0.105 A 
HETATM    8  C   UNL     1       2.368   0.693   0.011  1.00  0.00     0.105 A 
HETATM    9  C   UNL     1      -1.208   1.487   0.054  1.00  0.00     0.059 C 
HETATM   10  C   UNL     1      -1.205  -1.490  -0.054  1.00  0.00     0.059 C 
HETATM   11  C   UNL     1      -2.430   0.669  -0.360  1.00  0.00     0.006 C 
HETATM   12  C   UNL     1      -2.427  -0.675   0.360  1.00  0.00     0.006 C 
ENDROOT
TORSDOF 0
