REMARK  0 active torsions:
REMARK  status: ('A' for Active; 'I' for Inactive)
ROOT
HETATM    1  C   UNL     1      -0.426  -1.164  -0.007  1.00  0.00     0.117 A 
HETATM    2  N   UNL     1       0.863  -0.686  -0.005  1.00  0.00    -0.281 N 
HETATM    3  N   UNL     1       0.931   0.664   0.002  1.00  0.00    -0.302 N 
ATOM      4  HN  UNL     1       1.765   1.251   0.006  1.00  0.00     0.186 HD
HETATM    5  C   UNL     1      -1.231  -0.050  -0.003  1.00  0.00     0.075 A 
HETATM    6  C   UNL     1      -0.349   1.053   0.002  1.00  0.00     0.025 A 
HETATM    7  N   UNL     1      -0.765  -2.467  -0.015  1.00  0.00    -0.384 N 
HETATM    8  C   UNL     1       2.100  -1.428  -0.012  1.00  0.00     0.179 C 
HETATM    9  C   UNL     1      -0.693   2.495   0.004  1.00  0.00     0.070 C 
HETATM   10  H   UNL     1      -0.063  -3.158  -0.017  1.00  0.00     0.157 HD
HETATM   11  H   UNL     1      -1.713  -2.729  -0.019  1.00  0.00     0.157 HD
ENDROOT
TORSDOF 0
