REMARK  5 active torsions:
REMARK  status: ('A' for Active; 'I' for Inactive)
REMARK    1  A    between atoms: S_1  and  C_5 
REMARK    2  A    between atoms: S_1  and  C_9 
REMARK    3  A    between atoms: N_2  and  C_6 
REMARK    4  A    between atoms: C_5  and  C_6 
REMARK    5  A    between atoms: C_9  and  C_10 
ROOT
HETATM    1  S   UNL     1       1.197   0.495  -0.579  1.00  0.00     0.159 S 
HETATM    2  O   UNL     1       0.276  -0.629  -0.489  1.00  0.00    -0.227 OA
HETATM    3  O   UNL     1       0.863   1.725   0.117  1.00  0.00    -0.227 OA
ENDROOT
BRANCH   1   4
HETATM    4  C   UNL     1       1.376   0.876  -2.305  1.00  0.00     0.244 C 
BRANCH   4   5
HETATM    5  C   UNL     1       2.390   1.999  -2.447  1.00  0.00    -0.063 C 
BRANCH   5   6
HETATM    6  N   UNL     1       3.232   2.931  -2.564  1.00  0.00    -0.369 N 
ATOM      7  HN2 UNL     1       2.564   2.171  -2.434  1.00  0.00     0.165 HD
ATOM      8  HN1 UNL     1       3.913   3.685  -2.659  1.00  0.00     0.165 HD
ENDBRANCH   5   6
ENDBRANCH   4   5
ENDBRANCH   1   4
BRANCH   1   9
HETATM    9  C   UNL     1       2.801  -0.045   0.024  1.00  0.00     0.179 C 
BRANCH   9  10
HETATM   10  C   UNL     1       3.275  -1.255  -0.736  1.00  0.00    -0.044 A 
HETATM   11  C   UNL     1       4.124  -1.114  -1.844  1.00  0.00     0.010 A 
HETATM   12  C   UNL     1       4.500  -2.231  -2.594  1.00  0.00     0.024 A 
HETATM   13  C   UNL     1       4.058  -3.499  -2.225  1.00  0.00     0.034 A 
HETATM   14  C   UNL     1       3.257  -3.662  -1.098  1.00  0.00     0.024 A 
HETATM   15 CL   UNL     1       4.496  -4.865  -3.172  1.00  0.00    -0.084 Cl
HETATM   16  C   UNL     1       2.866  -2.544  -0.356  1.00  0.00     0.010 A 
ENDBRANCH   9  10
ENDBRANCH   1   9
TORSDOF 5
