REMARK  2 active torsions:
REMARK  status: ('A' for Active; 'I' for Inactive)
REMARK    1  A    between atoms: S_1  and  C_2 
REMARK    2  A    between atoms: S_1  and  C_4 
ROOT
HETATM    1  S   UNL     1       1.109  -0.065   0.061  1.00  0.00     0.207 S 
HETATM    2  O   UNL     1       0.501  -0.904   1.066  1.00  0.00    -0.217 OA
HETATM    3  O   UNL     1       2.552   0.106  -0.026  1.00  0.00    -0.217 OA
ENDROOT
BRANCH   1   4
HETATM    4  C   UNL     1       0.497   1.546   0.345  1.00  0.00     0.077 A 
HETATM    5  C   UNL     1      -0.745   1.883   1.004  1.00  0.00    -0.033 A 
HETATM    6  C   UNL     1      -0.901   3.258   1.076  1.00  0.00     0.057 A 
HETATM    7  C   UNL     1      -1.742   0.919   1.560  1.00  0.00     0.050 C 
HETATM    8  S   UNL     1       0.394   4.120   0.373  1.00  0.00    -0.112 SA
HETATM    9  C   UNL     1       1.204   2.674  -0.031  1.00  0.00     0.073 A 
ENDBRANCH   1   4
BRANCH   1  10
HETATM   10  C   UNL     1       0.518  -0.555  -1.539  1.00  0.00     0.064 A 
HETATM   11  C   UNL     1       1.322  -0.287  -2.653  1.00  0.00     0.025 A 
HETATM   12  C   UNL     1       0.894  -0.661  -3.926  1.00  0.00     0.025 A 
HETATM   13  C   UNL     1      -0.326  -1.316  -4.080  1.00  0.00     0.034 A 
HETATM   14  C   UNL     1      -1.116  -1.616  -2.967  1.00  0.00     0.025 A 
HETATM   15 CL   UNL     1      -0.866  -1.747  -5.655  1.00  0.00    -0.084 Cl
HETATM   16  C   UNL     1      -0.692  -1.243  -1.686  1.00  0.00     0.025 A 
ENDBRANCH   1  10
TORSDOF 2
