REMARK  2 active torsions:
REMARK  status: ('A' for Active; 'I' for Inactive)
REMARK    1  A    between atoms: C_2  and  S_3 
REMARK    2  A    between atoms: C_4  and  C_11 
ROOT
HETATM    1  C   UNL     1      -0.790  -0.006   0.064  1.00  0.00     0.084 A 
HETATM    2  C   UNL     1       0.083   1.067   0.039  1.00  0.00     0.120 A 
HETATM    3  C   UNL     1      -0.112  -1.281   0.009  1.00  0.00     0.003 A 
HETATM    4  S   UNL     1       1.715   0.546   0.033  1.00  0.00    -0.088 SA
HETATM    5  C   UNL     1       1.261  -1.100   0.010  1.00  0.00     0.065 A 
HETATM    6  C   UNL     1      -2.212   0.170   0.123  1.00  0.00     0.102 C 
HETATM    7  N   UNL     1      -3.369   0.251   0.167  1.00  0.00    -0.191 NA
ENDROOT
BRANCH   2   8
HETATM    8  S   UNL     1      -0.168   2.827  -0.023  1.00  0.00     0.179 S 
HETATM    9  O   UNL     1       0.570   3.284  -1.182  1.00  0.00    -0.222 OA
HETATM   10  O   UNL     1      -1.597   3.013   0.090  1.00  0.00    -0.222 OA
HETATM   11  C   UNL     1       0.590   3.456   1.449  1.00  0.00     0.167 C 
ENDBRANCH   2   8
BRANCH   3  12
HETATM   12  C   UNL     1      -0.705  -2.625  -0.058  1.00  0.00    -0.024 A 
HETATM   13  C   UNL     1      -1.900  -2.835  -0.765  1.00  0.00     0.012 A 
HETATM   14  C   UNL     1      -2.511  -4.090  -0.792  1.00  0.00     0.001 A 
HETATM   15  C   UNL     1      -1.916  -5.168  -0.147  1.00  0.00     0.000 A 
HETATM   16  C   UNL     1      -0.709  -4.990   0.526  1.00  0.00     0.001 A 
HETATM   17  C   UNL     1      -0.110  -3.726   0.578  1.00  0.00     0.012 A 
ENDBRANCH   3  12
TORSDOF 2
