REMARK  3 active torsions:
REMARK  status: ('A' for Active; 'I' for Inactive)
REMARK    1  A    between atoms: S_1  and  C_2 
REMARK    2  A    between atoms: S_1  and  C_3 
REMARK    3  A    between atoms: C_3  and  C_5 
ROOT
HETATM    1  S   UNL     1       1.142  -0.127  -0.071  1.00  0.00     0.188 S 
HETATM    2  O   UNL     1       0.544  -1.214  -0.814  1.00  0.00    -0.222 OA
HETATM    3  O   UNL     1       2.581  -0.009   0.084  1.00  0.00    -0.222 OA
ENDROOT
BRANCH   1   4
HETATM    4  C   UNL     1       0.543  -0.301   1.597  1.00  0.00     0.100 A 
HETATM    5  S   UNL     1      -1.151  -0.388   1.811  1.00  0.00    -0.090 SA
HETATM    6  C   UNL     1      -0.991  -0.617   3.501  1.00  0.00     0.051 A 
HETATM    7  C   UNL     1       0.326  -0.610   3.900  1.00  0.00     0.009 A 
HETATM    8  C   UNL     1       1.212  -0.424   2.801  1.00  0.00     0.031 A 
ENDBRANCH   1   4
BRANCH   1   9
HETATM    9  C   UNL     1       0.518   1.432  -0.641  1.00  0.00     0.215 C 
BRANCH   9  10
HETATM   10  C   UNL     1       1.038   1.694  -2.030  1.00  0.00     0.085 C 
HETATM   11  S   UNL     1       0.029   1.874  -3.347  1.00  0.00    -0.065 SA
HETATM   12  N   UNL     1       2.382   1.877  -2.186  1.00  0.00    -0.393 N 
HETATM   13  H   UNL     1       2.985   1.773  -1.415  1.00  0.00     0.156 HD
HETATM   14  H   UNL     1       2.748   2.113  -3.069  1.00  0.00     0.156 HD
ENDBRANCH   9  10
ENDBRANCH   1   9
TORSDOF 3
