REMARK  2 active torsions:
REMARK  status: ('A' for Active; 'I' for Inactive)
REMARK    1  A    between atoms: C_2  and  C_4 
REMARK    2  A    between atoms: C_3  and  C_7 
REMARK       I    between atoms: C_4  and  N_11 
ROOT
HETATM    1  S   UNL     1      -1.028  -0.019  -0.044  1.00  0.00    -0.083 SA
HETATM    2  C   UNL     1       0.134   1.236  -0.055  1.00  0.00     0.073 A 
HETATM    3  C   UNL     1       0.164  -1.250   0.029  1.00  0.00     0.032 A 
HETATM    4  C   UNL     1       1.416   0.723  -0.058  1.00  0.00     0.026 A 
HETATM    5  C   UNL     1       1.433  -0.703  -0.032  1.00  0.00     0.023 A 
ENDROOT
BRANCH   3   6
HETATM    6  C   UNL     1      -0.212  -2.666   0.129  1.00  0.00     0.049 A 
HETATM    7  N   UNL     1       0.664  -3.524  -0.450  1.00  0.00    -0.365 N 
HETATM    8  C   UNL     1       0.394  -4.845  -0.351  1.00  0.00     0.088 A 
ATOM      9  HN  UNL     1       1.493  -3.187  -0.940  1.00  0.00     0.165 HD
HETATM   10  C   UNL     1      -0.704  -5.361   0.315  1.00  0.00     0.017 A 
HETATM   11  C   UNL     1      -1.588  -4.471   0.910  1.00  0.00     0.004 A 
HETATM   12  C   UNL     1      -1.343  -3.104   0.815  1.00  0.00     0.031 A 
ENDBRANCH   3   6
BRANCH   2  13
HETATM   13  C   UNL     1      -0.245   2.639  -0.057  1.00  0.00     0.256 C 
HETATM   14  O   UNL     1       0.557   3.569  -0.049  1.00  0.00    -0.267 OA
HETATM   15  N   UNL     1      -1.584   2.917  -0.059  1.00  0.00    -0.366 N 
HETATM   16  H   UNL     1      -2.240   2.183  -0.065  1.00  0.00     0.159 HD
HETATM   17  H   UNL     1      -1.893   3.852  -0.055  1.00  0.00     0.159 HD
ENDBRANCH   2  13
TORSDOF 2
