REMARK  6 active torsions:
REMARK  status: ('A' for Active; 'I' for Inactive)
REMARK    1  A    between atoms: C_2  and  S_8 
REMARK    2  A    between atoms: C_4  and  C_6 
REMARK    3  A    between atoms: C_6  and  O_12 
REMARK    4  A    between atoms: S_8  and  C_15 
REMARK    5  A    between atoms: O_12  and  C_16 
REMARK    6  A    between atoms: C_15  and  C_17 
ROOT
HETATM    1  C   UNL     1       0.397   0.676  -0.191  1.00  0.00     0.041 C 
HETATM    2  C   UNL     1       1.764   0.849  -0.309  1.00  0.00     0.056 C 
HETATM    3  C   UNL     1       0.046  -0.736  -0.168  1.00  0.00    -0.019 C 
HETATM    4  C   UNL     1       1.155  -1.555  -0.261  1.00  0.00     0.088 C 
HETATM    5  S   UNL     1       2.538  -0.632  -0.702  1.00  0.00    -0.076 SA
HETATM    6  C   UNL     1      -0.628   1.715  -0.038  1.00  0.00     0.162 C 
HETATM    7  O   UNL     1      -0.393   2.919  -0.118  1.00  0.00    -0.292 OA
HETATM    8  C   UNL     1      -1.381  -1.177   0.042  1.00  0.00     0.042 C 
HETATM    9  C   UNL     1      -2.030   1.236   0.313  1.00  0.00     0.084 C 
HETATM   10  C   UNL     1      -2.363  -0.084  -0.374  1.00  0.00     0.012 C 
ENDROOT
BRANCH   4  11
HETATM   11  C   UNL     1       1.311  -2.987  -0.053  1.00  0.00     0.300 C 
HETATM   12  O   UNL     1       2.348  -3.638  -0.165  1.00  0.00    -0.259 OA
BRANCH  11  13
HETATM   13  O   UNL     1       0.126  -3.519   0.357  1.00  0.00    -0.317 OA
BRANCH  13  14
HETATM   14  C   UNL     1       0.110  -4.918   0.681  1.00  0.00     0.174 C 
HETATM   15  C   UNL     1       0.023  -5.754  -0.582  1.00  0.00     0.034 C 
ENDBRANCH  13  14
ENDBRANCH  11  13
ENDBRANCH   4  11
BRANCH   2  16
HETATM   16  S   UNL     1       2.750   2.303  -0.163  1.00  0.00    -0.122 SA
BRANCH  16  17
HETATM   17  C   UNL     1       2.418   2.853   1.547  1.00  0.00     0.080 C 
BRANCH  17  18
HETATM   18  C   UNL     1       2.878   1.926   2.678  1.00  0.00     0.006 C 
HETATM   19  C   UNL     1       4.355   1.560   2.690  1.00  0.00     0.006 C 
ENDBRANCH  17  18
ENDBRANCH  16  17
ENDBRANCH   2  16
TORSDOF 6
