REMARK  2 active torsions:
REMARK  status: ('A' for Active; 'I' for Inactive)
REMARK    1  A    between atoms: C_4  and  S_12 
REMARK    2  A    between atoms: N_10  and  O_13 
ROOT
HETATM    1  C   UNL     1      -2.252   0.885  -0.053  1.00  0.00     0.019 A 
HETATM    2  C   UNL     1      -2.199  -0.574  -0.045  1.00  0.00    -0.037 A 
HETATM    3  C   UNL     1      -0.982   1.636  -0.066  1.00  0.00     0.045 C 
HETATM    4  C   UNL     1      -3.588   1.292   0.038  1.00  0.00     0.053 A 
HETATM    5  S   UNL     1      -4.693  -0.034  -0.046  1.00  0.00    -0.093 SA
HETATM    6  C   UNL     1      -3.445  -1.161  -0.079  1.00  0.00     0.059 A 
HETATM    7  C   UNL     1      -0.963  -1.409   0.040  1.00  0.00     0.049 C 
HETATM    8  C   UNL     1       0.385  -0.671  -0.013  1.00  0.00    -0.038 C 
HETATM    9  C   UNL     1       0.320   0.856   0.197  1.00  0.00     0.069 C 
HETATM   10  N   UNL     1      -0.741   2.902  -0.235  1.00  0.00    -0.273 N 
ATOM     11  HN  UNL     1       0.197   3.288  -0.126  1.00  0.00     0.194 HD
HETATM   12  C   UNL     1       1.069  -0.987  -1.362  1.00  0.00     0.015 C 
HETATM   13  C   UNL     1       1.293  -1.248   1.100  1.00  0.00     0.015 C 
ENDROOT
BRANCH  10  14
HETATM   14  O   UNL     1      -1.819   3.697  -0.569  1.00  0.00    -0.290 OA
HETATM   15  H   UNL     1      -1.699   4.617  -0.702  1.00  0.00     0.244 HD
ENDBRANCH  10  14
BRANCH   4  16
HETATM   16  S   UNL     1      -4.332   2.874   0.330  1.00  0.00    -0.126 SA
HETATM   17  C   UNL     1      -5.264   3.085  -1.210  1.00  0.00     0.096 C 
ENDBRANCH   4  16
TORSDOF 2
