REMARK  3 active torsions:
REMARK  status: ('A' for Active; 'I' for Inactive)
REMARK    1  A    between atoms: C_3  and  C_9 
REMARK    2  A    between atoms: C_9  and  O_14 
REMARK    3  A    between atoms: O_14  and  C_16 
ROOT
HETATM    1  C   UNL     1       0.156   0.671   0.038  1.00  0.00     0.059 A 
HETATM    2  C   UNL     1      -0.132  -0.636   0.028  1.00  0.00     0.003 A 
HETATM    3  C   UNL     1      -2.243   0.269   0.077  1.00  0.00     0.088 A 
HETATM    4  C   UNL     1      -1.519  -0.939   0.041  1.00  0.00    -0.026 A 
HETATM    5  S   UNL     1      -1.183   1.654   0.082  1.00  0.00    -0.075 SA
HETATM    6  S   UNL     1       1.788   1.005   0.003  1.00  0.00    -0.070 SA
HETATM    7  C   UNL     1       2.152  -0.688  -0.009  1.00  0.00     0.093 A 
HETATM    8  C   UNL     1       1.003  -1.489   0.002  1.00  0.00    -0.022 A 
HETATM    9  C   UNL     1       3.504  -1.157  -0.026  1.00  0.00     0.107 C 
HETATM   10  N   UNL     1       4.593  -1.560  -0.036  1.00  0.00    -0.191 NA
HETATM   11  C   UNL     1      -2.113  -2.311   0.004  1.00  0.00     0.050 C 
HETATM   12  C   UNL     1       0.998  -2.984  -0.003  1.00  0.00     0.051 C 
ENDROOT
BRANCH   3  13
HETATM   13  C   UNL     1      -3.692   0.454   0.070  1.00  0.00     0.300 C 
HETATM   14  O   UNL     1      -4.521  -0.449   0.092  1.00  0.00    -0.259 OA
BRANCH  13  15
HETATM   15  O   UNL     1      -4.026   1.773  -0.048  1.00  0.00    -0.317 OA
BRANCH  15  16
HETATM   16  C   UNL     1      -5.371   2.034  -0.471  1.00  0.00     0.174 C 
HETATM   17  C   UNL     1      -5.387   2.060  -1.989  1.00  0.00     0.034 C 
ENDBRANCH  15  16
ENDBRANCH  13  15
ENDBRANCH   3  13
TORSDOF 3
