REMARK  3 active torsions:
REMARK  status: ('A' for Active; 'I' for Inactive)
REMARK    1  A    between atoms: C_1  and  C_4 
REMARK    2  A    between atoms: S_3  and  C_4 
REMARK    3  A    between atoms: S_3  and  C_6 
ROOT
HETATM    1  S   UNL     1       0.720   0.710  -2.576  1.00  0.00    -0.123 SA
ENDROOT
BRANCH   1   2
HETATM    2  C   UNL     1      -0.502  -0.328  -1.695  1.00  0.00     0.148 C 
BRANCH   2   3
HETATM    3  C   UNL     1      -0.302  -1.800  -2.028  1.00  0.00     0.080 C 
HETATM    4  S   UNL     1      -0.567  -3.004  -0.900  1.00  0.00    -0.065 SA
HETATM    5  N   UNL     1       0.018  -2.144  -3.307  1.00  0.00    -0.393 N 
HETATM    6  H   UNL     1       0.152  -3.090  -3.544  1.00  0.00     0.156 HD
HETATM    7  H   UNL     1       0.115  -1.446  -3.994  1.00  0.00     0.156 HD
ENDBRANCH   2   3
ENDBRANCH   1   2
BRANCH   1   8
HETATM    8  C   UNL     1       0.344   2.361  -2.001  1.00  0.00     0.000 A 
HETATM    9  C   UNL     1      -0.175   2.655  -0.735  1.00  0.00     0.018 A 
HETATM   10  C   UNL     1      -0.363   3.982  -0.332  1.00  0.00     0.001 A 
HETATM   11  C   UNL     1      -0.031   5.029  -1.188  1.00  0.00     0.000 A 
HETATM   12  C   UNL     1       0.484   4.751  -2.450  1.00  0.00     0.001 A 
HETATM   13  C   UNL     1       0.670   3.426  -2.853  1.00  0.00     0.018 A 
ENDBRANCH   1   8
TORSDOF 3
