REMARK  2 active torsions:
REMARK  status: ('A' for Active; 'I' for Inactive)
REMARK    1  A    between atoms: C_1  and  S_3 
REMARK    2  A    between atoms: S_3  and  C_7 
ROOT
HETATM    1  C   UNL     1       1.198   3.881  -0.018  1.00  0.00     0.006 A 
HETATM    2  C   UNL     1       2.081   3.740  -1.095  1.00  0.00     0.019 A 
HETATM    3  C   UNL     1       1.488   4.811   0.987  1.00  0.00     0.019 A 
HETATM    4  C   UNL     1       2.648   5.586   0.918  1.00  0.00     0.001 A 
HETATM    5  C   UNL     1       3.242   4.515  -1.162  1.00  0.00     0.001 A 
HETATM    6  C   UNL     1       3.523   5.439  -0.158  1.00  0.00     0.000 A 
ENDROOT
BRANCH   1   7
HETATM    7  S   UNL     1      -0.337   2.983   0.012  1.00  0.00    -0.083 SA
BRANCH   7   8
HETATM    8  C   UNL     1       0.107   1.491   0.834  1.00  0.00     0.046 A 
HETATM    9  S   UNL     1      -1.104   0.302   1.118  1.00  0.00    -0.095 SA
HETATM   10  C   UNL     1       0.001  -0.753   1.878  1.00  0.00     0.051 A 
HETATM   11  C   UNL     1       1.270  -0.222   1.921  1.00  0.00     0.009 A 
HETATM   12  C   UNL     1       1.330   1.074   1.321  1.00  0.00     0.027 A 
ENDBRANCH   7   8
ENDBRANCH   1   7
TORSDOF 2
