REMARK  4 active torsions:
REMARK  status: ('A' for Active; 'I' for Inactive)
REMARK    1  A    between atoms: C_1  and  C_6 
REMARK    2  A    between atoms: C_2  and  N_7 
REMARK    3  A    between atoms: C_6  and  O_9 
REMARK    4  A    between atoms: O_9  and  C_12 
ROOT
HETATM    1  C   UNL     1      -0.135  -1.205  -0.073  1.00  0.00     0.079 A 
HETATM    2  C   UNL     1       1.181  -0.755  -0.076  1.00  0.00     0.085 A 
HETATM    3  S   UNL     1       1.297   0.944  -0.016  1.00  0.00    -0.076 SA
HETATM    4  C   UNL     1      -1.064  -0.072  -0.026  1.00  0.00    -0.030 A 
HETATM    5  C   UNL     1      -0.390   1.141  -0.009  1.00  0.00    -0.012 A 
HETATM    6  C   UNL     1      -2.563  -0.145  -0.008  1.00  0.00     0.050 C 
HETATM    7  C   UNL     1      -0.964   2.522   0.013  1.00  0.00     0.057 C 
ENDROOT
BRANCH   1   8
HETATM    8  C   UNL     1      -0.510  -2.633  -0.120  1.00  0.00     0.296 C 
HETATM    9  O   UNL     1      -1.665  -3.036  -0.174  1.00  0.00    -0.259 OA
BRANCH   8  10
HETATM   10  O   UNL     1       0.569  -3.478  -0.091  1.00  0.00    -0.318 OA
BRANCH  10  11
HETATM   11  C   UNL     1       0.295  -4.883  -0.185  1.00  0.00     0.174 C 
HETATM   12  C   UNL     1       0.018  -5.454   1.192  1.00  0.00     0.034 C 
ENDBRANCH  10  11
ENDBRANCH   8  10
ENDBRANCH   1   8
BRANCH   2  13
HETATM   13  N   UNL     1       2.325  -1.472  -0.125  1.00  0.00    -0.393 N 
HETATM   14  H   UNL     1       2.289  -2.455  -0.161  1.00  0.00     0.156 HD
HETATM   15  H   UNL     1       3.195  -1.011  -0.126  1.00  0.00     0.156 HD
ENDBRANCH   2  13
TORSDOF 4
