REMARK  2 active torsions:
REMARK  status: ('A' for Active; 'I' for Inactive)
REMARK    1  A    between atoms: C_1  and  C_2 
REMARK    2  A    between atoms: C_2  and  O_6 
ROOT
HETATM    1  C   UNL     1      -0.216  -1.098   0.068  1.00  0.00     0.346 C 
HETATM    2  N   UNL     1      -1.604  -0.718   0.332  1.00  0.00    -0.052 N 
HETATM    3  S   UNL     1       0.856   0.092   0.931  1.00  0.00    -0.125 SA
HETATM    4  C   UNL     1      -1.651   0.752   0.377  1.00  0.00     0.244 C 
HETATM    5  C   UNL     1      -0.245   1.312   0.192  1.00  0.00     0.104 C 
HETATM    6  H   UNL     1      -1.909  -1.105   1.225  1.00  0.00     0.279 HD
HETATM    7  H   UNL     1      -2.223  -1.078  -0.395  1.00  0.00     0.279 HD
ENDROOT
BRANCH   1   8
HETATM    8  C   UNL     1       0.084  -2.513   0.492  1.00  0.00     0.299 C 
HETATM    9  O   UNL     1       0.422  -3.330  -0.355  1.00  0.00    -0.262 OA
BRANCH   8  10
HETATM   10  O   UNL     1       0.014  -2.865   1.799  1.00  0.00    -0.324 OA
HETATM   11  C   UNL     1       0.331  -4.126   2.263  1.00  0.00     0.213 C 
ENDBRANCH   8  10
ENDBRANCH   1   8
TORSDOF 2
