REMARK  0 active torsions:
REMARK  status: ('A' for Active; 'I' for Inactive)
ROOT
HETATM    1  O   UNL     1       1.118   1.349   0.044  1.00  0.00    -0.336 OA
HETATM    2  C   UNL     1      -0.030   0.611   0.022  1.00  0.00     0.080 A 
HETATM    3  C   UNL     1      -0.057  -0.785   0.019  1.00  0.00    -0.002 A 
HETATM    4  C   UNL     1       1.187  -1.536   0.038  1.00  0.00     0.013 A 
HETATM    5  N   UNL     1      -4.749  -1.987  -0.003  1.00  0.00    -0.191 NA
HETATM    6  C   UNL     1       2.388   0.665  -0.022  1.00  0.00     0.078 A 
HETATM    7  C   UNL     1       2.329  -0.845   0.021  1.00  0.00     0.011 A 
HETATM    8  C   UNL     1      -3.738  -1.418  -0.003  1.00  0.00     0.099 C 
HETATM    9  C   UNL     1      -1.286  -1.453   0.007  1.00  0.00     0.037 A 
HETATM   10  C   UNL     1      -1.223   1.337   0.016  1.00  0.00     0.039 A 
HETATM   11  C   UNL     1      -2.483  -0.726   0.002  1.00  0.00     0.045 A 
HETATM   12  C   UNL     1      -2.450   0.671   0.005  1.00  0.00     0.025 A 
HETATM   13  C   UNL     1       3.048   1.094  -1.337  1.00  0.00     0.051 C 
HETATM   14  C   UNL     1       3.204   1.165   1.175  1.00  0.00     0.051 C 
ENDROOT
TORSDOF 0
