REMARK  6 active torsions:
REMARK  status: ('A' for Active; 'I' for Inactive)
REMARK    1  A    between atoms: C_1  and  C_6 
REMARK    2  A    between atoms: S_4  and  C_6 
REMARK    3  A    between atoms: S_4  and  C_8 
REMARK    4  A    between atoms: C_5  and  O_7 
REMARK    5  A    between atoms: O_7  and  C_9 
REMARK    6  A    between atoms: C_8  and  C_9 
ROOT
HETATM    1  O   UNL     1       2.782   2.738  -0.373  1.00  0.00    -0.350 OA
ENDROOT
BRANCH   1   2
HETATM    2  C   UNL     1       3.791   3.228  -1.163  1.00  0.00     0.068 A 
HETATM    3  C   UNL     1       4.882   3.980  -0.718  1.00  0.00     0.037 A 
HETATM    4  C   UNL     1       5.895   4.351  -1.607  1.00  0.00     0.003 A 
HETATM    5  C   UNL     1       5.810   3.999  -2.952  1.00  0.00     0.000 A 
HETATM    6  C   UNL     1       4.701   3.294  -3.412  1.00  0.00     0.003 A 
HETATM    7  C   UNL     1       3.694   2.912  -2.520  1.00  0.00     0.037 A 
ENDBRANCH   1   2
BRANCH   1   8
HETATM    8  C   UNL     1       2.978   2.843   1.040  1.00  0.00     0.186 C 
BRANCH   8   9
HETATM    9  C   UNL     1       2.115   1.831   1.793  1.00  0.00     0.101 C 
BRANCH   9  10
HETATM   10  S   UNL     1       0.335   2.240   1.899  1.00  0.00    -0.156 SA
BRANCH  10  11
HETATM   11  C   UNL     1      -0.221   1.879   0.203  1.00  0.00     0.186 C 
BRANCH  11  12
HETATM   12  C   UNL     1       0.002   0.451  -0.238  1.00  0.00     0.182 C 
HETATM   13  O   UNL     1       0.430  -0.496   0.403  1.00  0.00    -0.647 OA
HETATM   14  O   UNL     1      -0.370   0.267  -1.525  1.00  0.00    -0.647 OA
ENDBRANCH  11  12
ENDBRANCH  10  11
ENDBRANCH   9  10
ENDBRANCH   8   9
ENDBRANCH   1   8
TORSDOF 6
