REMARK  0 active torsions:
REMARK  status: ('A' for Active; 'I' for Inactive)
ROOT
HETATM    1  C   UNL     1       0.271  -0.735  -0.000  1.00  0.00     0.086 A 
HETATM    2  C   UNL     1       0.254   0.723  -0.001  1.00  0.00     0.085 A 
HETATM    3  C   UNL     1      -0.904  -1.506   0.000  1.00  0.00     0.057 A 
HETATM    4  O   UNL     1       2.308   0.019  -0.001  1.00  0.00    -0.156 OA
HETATM    5  N   UNL     1       1.547  -1.138  -0.000  1.00  0.00    -0.239 N 
ATOM      6  HN  UNL     1       1.889  -2.099   0.001  1.00  0.00     0.197 HD
HETATM    7  N   UNL     1       1.519   1.158  -0.001  1.00  0.00    -0.240 N 
ATOM      8  HN  UNL     1       1.837   2.127  -0.001  1.00  0.00     0.197 HD
HETATM    9  C   UNL     1      -0.943   1.462  -0.002  1.00  0.00     0.035 A 
HETATM   10  C   UNL     1      -2.087  -0.746   0.001  1.00  0.00     0.036 A 
HETATM   11  C   UNL     1      -2.111   0.675  -0.001  1.00  0.00     0.026 A 
HETATM   12 CL   UNL     1      -3.596  -1.588   0.003  1.00  0.00    -0.084 Cl
ENDROOT
TORSDOF 0
