REMARK  2 active torsions:
REMARK  status: ('A' for Active; 'I' for Inactive)
REMARK    1  A    between atoms: C_2  and  C_8 
REMARK    2  A    between atoms: C_8  and  O_10 
ROOT
HETATM    1  N   UNL     1       1.440   0.031   0.291  1.00  0.00    -0.065 N 
HETATM    2  C   UNL     1       0.777  -1.153  -0.317  1.00  0.00     0.237 C 
HETATM    3  N   UNL     1      -1.431   0.052  -0.296  1.00  0.00    -0.071 N 
HETATM    4  C   UNL     1      -0.710  -1.161   0.152  1.00  0.00     0.269 C 
HETATM    5  C   UNL     1       0.772   1.278  -0.104  1.00  0.00     0.262 C 
HETATM    6  C   UNL     1      -0.741   1.250   0.230  1.00  0.00     0.262 C 
HETATM    7  C   UNL     1       2.882   0.078   0.128  1.00  0.00     0.270 C 
HETATM    8  C   UNL     1      -2.824   0.023   0.138  1.00  0.00     0.269 C 
HETATM    9  H   UNL     1       1.322  -0.078   1.298  1.00  0.00     0.280 HD
HETATM   10  H   UNL     1      -1.429   0.083  -1.316  1.00  0.00     0.279 HD
ENDROOT
BRANCH   2  11
HETATM   11  C   UNL     1       0.804  -1.281  -1.864  1.00  0.00     0.199 C 
BRANCH  11  12
HETATM   12  O   UNL     1       2.124  -1.357  -2.396  1.00  0.00    -0.399 OA
HETATM   13  H   UNL     1       2.606  -0.542  -2.184  1.00  0.00     0.209 HD
ENDBRANCH  11  12
ENDBRANCH   2  11
TORSDOF 2
