REMARK  2 active torsions:
REMARK  status: ('A' for Active; 'I' for Inactive)
REMARK    1  A    between atoms: C_1  and  N_9 
REMARK    2  A    between atoms: C_3  and  C_6 
ROOT
HETATM    1  C   UNL     1      -1.274  -1.606   0.011  1.00  0.00     0.045 A 
HETATM    2  C   UNL     1      -0.174  -0.697  -0.002  1.00  0.00     0.018 A 
HETATM    3  C   UNL     1      -2.749   0.314  -0.030  1.00  0.00     0.119 A 
HETATM    4  N   UNL     1      -1.702   1.178  -0.038  1.00  0.00    -0.352 N 
ATOM      5  HN  UNL     1      -1.861   2.185  -0.056  1.00  0.00     0.166 HD
HETATM    6  C   UNL     1      -2.565  -1.067  -0.004  1.00  0.00     0.064 A 
HETATM    7  C   UNL     1      -0.457   0.685  -0.022  1.00  0.00     0.045 A 
HETATM    8  C   UNL     1       1.187  -1.094   0.040  1.00  0.00     0.022 A 
HETATM    9  C   UNL     1       0.593   1.593  -0.012  1.00  0.00     0.031 A 
HETATM   10  C   UNL     1       2.238  -0.170   0.007  1.00  0.00    -0.061 A 
HETATM   11  C   UNL     1       1.928   1.185  -0.007  1.00  0.00     0.009 A 
HETATM   12  C   UNL     1       3.658  -0.649  -0.026  1.00  0.00     0.048 C 
ENDROOT
BRANCH   1  13
HETATM   13  N   UNL     1      -1.068  -2.989   0.094  1.00  0.00    -0.377 N 
HETATM   14  C   UNL     1      -2.054  -3.831   0.795  1.00  0.00     0.150 C 
HETATM   15  C   UNL     1      -1.383  -5.164   1.205  1.00  0.00     0.252 C 
HETATM   16  N   UNL     1      -0.772  -5.896   0.075  1.00  0.00    -0.072 N 
HETATM   17  C   UNL     1       0.154  -4.993  -0.648  1.00  0.00     0.252 C 
HETATM   18  H   UNL     1      -0.255  -6.701   0.430  1.00  0.00     0.277 HD
HETATM   19  H   UNL     1      -1.502  -6.218  -0.559  1.00  0.00     0.277 HD
HETATM   20  C   UNL     1      -0.500  -3.660  -1.095  1.00  0.00     0.150 C 
ENDBRANCH   1  13
BRANCH   3  21
HETATM   21  C   UNL     1      -4.168   0.862  -0.048  1.00  0.00     0.432 C 
HETATM   22  F   UNL     1      -4.250   2.223  -0.063  1.00  0.00    -0.165 F 
HETATM   23  F   UNL     1      -4.876   0.436  -1.135  1.00  0.00    -0.165 F 
HETATM   24  F   UNL     1      -4.896   0.460   1.036  1.00  0.00    -0.165 F 
ENDBRANCH   3  21
TORSDOF 2
