REMARK  5 active torsions:
REMARK  status: ('A' for Active; 'I' for Inactive)
REMARK    1  A    between atoms: C_1  and  N_9 
REMARK    2  A    between atoms: C_2  and  C_5 
REMARK    3  A    between atoms: N_9  and  C_16 
REMARK    4  A    between atoms: O_14  and  C_18 
REMARK    5  A    between atoms: C_16  and  C_18 
ROOT
HETATM    1  C   UNL     1      -1.106  -1.538  -0.081  1.00  0.00     0.044 A 
HETATM    2  C   UNL     1      -2.273   0.608  -0.007  1.00  0.00     0.119 A 
HETATM    3  N   UNL     1      -1.115   1.302   0.034  1.00  0.00    -0.352 N 
ATOM      4  HN  UNL     1      -1.121   2.321   0.078  1.00  0.00     0.166 HD
HETATM    5  C   UNL     1      -2.294  -0.787  -0.055  1.00  0.00     0.064 A 
HETATM    6  C   UNL     1       0.124  -0.788  -0.052  1.00  0.00     0.017 A 
HETATM    7  C   UNL     1       0.037   0.629   0.016  1.00  0.00     0.045 A 
HETATM    8  C   UNL     1       1.439  -1.323  -0.125  1.00  0.00     0.016 A 
HETATM    9  C   UNL     1       1.185   1.408   0.047  1.00  0.00     0.030 A 
HETATM   10  C   UNL     1       2.583  -0.525  -0.073  1.00  0.00     0.001 A 
HETATM   11  C   UNL     1       2.457   0.851   0.017  1.00  0.00     0.002 A 
ENDROOT
BRANCH   1  12
HETATM   12  N   UNL     1      -1.166  -2.944  -0.130  1.00  0.00    -0.382 N 
HETATM   13  C   UNL     1      -0.364  -3.724   0.822  1.00  0.00     0.150 C 
BRANCH  12  14
HETATM   14  C   UNL     1      -2.327  -3.664  -0.713  1.00  0.00     0.148 C 
BRANCH  14  15
HETATM   15  C   UNL     1      -2.082  -3.977  -2.193  1.00  0.00     0.183 C 
BRANCH  15  16
HETATM   16  O   UNL     1      -0.892  -4.746  -2.354  1.00  0.00    -0.399 OA
HETATM   17  H   UNL     1      -0.754  -4.935  -3.296  1.00  0.00     0.209 HD
ENDBRANCH  15  16
ENDBRANCH  14  15
ENDBRANCH  12  14
ENDBRANCH   1  12
BRANCH   2  18
HETATM   18  C   UNL     1      -3.593   1.365   0.002  1.00  0.00     0.432 C 
HETATM   19  F   UNL     1      -3.467   2.723   0.035  1.00  0.00    -0.165 F 
HETATM   20  F   UNL     1      -4.357   1.092  -1.097  1.00  0.00    -0.165 F 
HETATM   21  F   UNL     1      -4.374   1.040   1.074  1.00  0.00    -0.165 F 
ENDBRANCH   2  18
TORSDOF 5
