REMARK  2 active torsions:
REMARK  status: ('A' for Active; 'I' for Inactive)
REMARK    1  A    between atoms: O_2  and  C_6 
REMARK    2  A    between atoms: C_5  and  C_6 
ROOT
HETATM    1  N   UNL     1       1.395  -0.032   0.207  1.00  0.00    -0.075 N 
HETATM    2  C   UNL     1       0.687  -1.218  -0.271  1.00  0.00     0.232 C 
HETATM    3  C   UNL     1       0.754   1.191  -0.272  1.00  0.00     0.232 C 
HETATM    4  C   UNL     1      -1.506   0.049  -0.169  1.00  0.00     0.012 C 
HETATM    5  C   UNL     1      -0.686   1.287   0.226  1.00  0.00     0.034 C 
HETATM    6  C   UNL     1      -0.758  -1.232   0.224  1.00  0.00     0.034 C 
HETATM    7  H   UNL     1       2.357  -0.059  -0.133  1.00  0.00     0.277 HD
HETATM    8  H   UNL     1       1.376  -0.031   1.226  1.00  0.00     0.277 HD
ENDROOT
BRANCH   4   9
HETATM    9  C   UNL     1      -2.902   0.064   0.460  1.00  0.00     0.168 C 
BRANCH   9  10
HETATM   10  O   UNL     1      -3.635   1.209   0.044  1.00  0.00    -0.400 OA
HETATM   11  H   UNL     1      -4.514   1.196   0.454  1.00  0.00     0.209 HD
ENDBRANCH   9  10
ENDBRANCH   4   9
TORSDOF 2
