REMARK  5 active torsions:
REMARK  status: ('A' for Active; 'I' for Inactive)
REMARK    1  A    between atoms: C_1  and  C_3 
REMARK    2  A    between atoms: C_4  and  C_6 
REMARK    3  A    between atoms: C_7  and  C_11 
REMARK    4  A    between atoms: C_11  and  C_12 
REMARK    5  A    between atoms: C_12  and  C_13 
ROOT
HETATM    1  C   UNL     1      -0.337  -1.053  -0.000  1.00  0.00     0.153 A 
HETATM    2  O   UNL     1       0.972  -0.633  -0.025  1.00  0.00    -0.295 OA
HETATM    3  C   UNL     1       0.949   0.724  -0.035  1.00  0.00     0.129 A 
HETATM    4  C   UNL     1      -1.170   0.054   0.007  1.00  0.00     0.048 A 
HETATM    5  C   UNL     1      -0.339   1.198  -0.014  1.00  0.00     0.050 A 
ENDROOT
BRANCH   3   6
HETATM    6  C   UNL     1       2.182   1.418  -0.061  1.00  0.00    -0.041 C 
HETATM    7  C   UNL     1       3.176   2.090  -0.070  1.00  0.00    -0.099 C 
BRANCH   7   8
HETATM    8  C   UNL     1       4.351   2.975  -0.055  1.00  0.00     0.094 C 
BRANCH   8   9
HETATM    9  C   UNL     1       3.986   4.432  -0.359  1.00  0.00     0.012 C 
BRANCH   9  10
HETATM   10  C   UNL     1       3.031   5.050   0.668  1.00  0.00    -0.004 C 
HETATM   11  C   UNL     1       2.721   6.504   0.342  1.00  0.00     0.005 C 
ENDBRANCH   9  10
ENDBRANCH   8   9
ENDBRANCH   7   8
ENDBRANCH   3   6
BRANCH   1  12
HETATM   12  C   UNL     1      -0.617  -2.463   0.012  1.00  0.00     0.234 C 
HETATM   13  O   UNL     1       0.164  -3.403   0.009  1.00  0.00    -0.642 OA
HETATM   14  O   UNL     1      -1.952  -2.699   0.028  1.00  0.00    -0.642 OA
ENDBRANCH   1  12
TORSDOF 5
