REMARK  4 active torsions:
REMARK  status: ('A' for Active; 'I' for Inactive)
REMARK    1  A    between atoms: C_4  and  C_7 
REMARK    2  A    between atoms: N_5  and  C_7 
REMARK    3  A    between atoms: N_5  and  C_9 
REMARK    4  A    between atoms: C_6  and  C_9 
ROOT
HETATM    1  N   UNL     1       4.782   1.325   2.042  1.00  0.00    -0.197 NA
HETATM    2  C   UNL     1       4.407   0.769   1.096  1.00  0.00     0.060 C 
HETATM    3  C   UNL     1       3.933   0.048  -0.094  1.00  0.00     0.151 C 
ENDROOT
BRANCH   3   4
HETATM    4  C   UNL     1       4.385  -1.412  -0.037  1.00  0.00     0.246 C 
BRANCH   4   5
HETATM    5  N   UNL     1       3.896  -2.174  -1.194  1.00  0.00    -0.072 N 
HETATM    6  H   UNL     1       4.217  -1.718  -2.048  1.00  0.00     0.277 HD
HETATM    7  H   UNL     1       2.878  -2.197  -1.148  1.00  0.00     0.277 HD
BRANCH   5   8
HETATM    8  C   UNL     1       4.385  -3.568  -1.185  1.00  0.00     0.264 C 
BRANCH   8   9
HETATM    9  C   UNL     1       3.859  -4.404  -0.006  1.00  0.00     0.147 C 
HETATM   10  O   UNL     1       2.416  -4.416  -0.013  1.00  0.00    -0.384 OA
HETATM   11  C   UNL     1       1.976  -5.743   0.310  1.00  0.00     0.168 C 
HETATM   12  C   UNL     1       3.198  -6.521   0.751  1.00  0.00     0.029 C 
HETATM   13  C   UNL     1       4.300  -5.856  -0.036  1.00  0.00     0.036 C 
ENDBRANCH   8   9
ENDBRANCH   5   8
ENDBRANCH   4   5
ENDBRANCH   3   4
TORSDOF 4
