REMARK  3 active torsions:
REMARK  status: ('A' for Active; 'I' for Inactive)
REMARK    1  A    between atoms: C_1  and  C_2 
REMARK    2  A    between atoms: C_1  and  O_11 
REMARK    3  A    between atoms: C_2  and  N_4 
ROOT
HETATM    1  C   UNL     1       0.765   1.410  -0.305  1.00  0.00     0.156 C 
HETATM    2  N   UNL     1      -1.302  -0.024   0.013  1.00  0.00    -0.067 N 
HETATM    3  C   UNL     1      -0.790   1.341  -0.302  1.00  0.00     0.287 C 
HETATM    4  C   UNL     1       1.302  -0.014   0.014  1.00  0.00     0.038 C 
HETATM    5  C   UNL     1       0.746  -1.020  -1.016  1.00  0.00     0.036 C 
HETATM    6  C   UNL     1       0.748  -0.450   1.384  1.00  0.00     0.036 C 
HETATM    7  C   UNL     1      -0.791  -0.969  -1.006  1.00  0.00     0.235 C 
HETATM    8  C   UNL     1      -0.789  -0.429   1.342  1.00  0.00     0.235 C 
HETATM    9  H   UNL     1      -2.322  -0.027   0.015  1.00  0.00     0.280 HD
ENDROOT
BRANCH   1  10
HETATM   10  C   UNL     1       1.272   1.848  -1.669  1.00  0.00    -0.037 C 
BRANCH  10  11
HETATM   11  N   UNL     1       1.692   2.211  -2.801  1.00  0.00    -0.367 N 
ATOM     12  HN2 UNL     1       1.326   1.902  -1.900  1.00  0.00     0.165 HD
ATOM     13  HN1 UNL     1       2.032   2.505  -3.717  1.00  0.00     0.165 HD
ENDBRANCH  10  11
ENDBRANCH   1  10
BRANCH   1  14
HETATM   14  O   UNL     1       1.231   2.313   0.709  1.00  0.00    -0.374 OA
HETATM   15  H   UNL     1       0.902   3.207   0.521  1.00  0.00     0.212 HD
ENDBRANCH   1  14
TORSDOF 3
