REMARK  1 active torsions:
REMARK  status: ('A' for Active; 'I' for Inactive)
REMARK    1  A    between atoms: C_2  and  N_3 
ROOT
HETATM    1  C   UNL     1      -1.060  -0.872  -0.040  1.00  0.00     0.017 A 
HETATM    2  C   UNL     1      -2.428  -1.284  -0.025  1.00  0.00     0.044 A 
HETATM    3  C   UNL     1      -0.778   0.518  -0.062  1.00  0.00     0.046 A 
HETATM    4  C   UNL     1       0.040  -1.765   0.017  1.00  0.00     0.018 A 
HETATM    5  C   UNL     1       0.541   0.951  -0.048  1.00  0.00     0.054 A 
HETATM    6  N   UNL     1      -1.733   1.456  -0.070  1.00  0.00    -0.365 N 
ATOM      7  HN  UNL     1      -1.497   2.448  -0.089  1.00  0.00     0.165 HD
HETATM    8  C   UNL     1       1.602   0.051  -0.028  1.00  0.00     0.036 A 
HETATM    9  C   UNL     1      -3.403  -0.277  -0.033  1.00  0.00     0.047 A 
HETATM   10  C   UNL     1       1.358  -1.313  -0.001  1.00  0.00     0.025 A 
HETATM   11  C   UNL     1      -3.016   1.046  -0.052  1.00  0.00     0.090 A 
HETATM   12 CL   UNL     1       3.223   0.629  -0.023  1.00  0.00    -0.084 Cl
ENDROOT
BRANCH   2  13
HETATM   13  N   UNL     1      -2.789  -2.627   0.077  1.00  0.00    -0.377 N 
HETATM   14  C   UNL     1      -4.025  -3.006   0.782  1.00  0.00     0.150 C 
HETATM   15  C   UNL     1      -3.863  -4.442   1.333  1.00  0.00     0.252 C 
HETATM   16  N   UNL     1      -3.510  -5.444   0.299  1.00  0.00    -0.072 N 
HETATM   17  C   UNL     1      -2.315  -4.977  -0.443  1.00  0.00     0.252 C 
HETATM   18  H   UNL     1      -3.307  -6.338   0.746  1.00  0.00     0.277 HD
HETATM   19  H   UNL     1      -4.291  -5.560  -0.346  1.00  0.00     0.277 HD
HETATM   20  C   UNL     1      -2.464  -3.548  -1.028  1.00  0.00     0.150 C 
ENDBRANCH   2  13
TORSDOF 1
