REMARK  1 active torsions:
REMARK  status: ('A' for Active; 'I' for Inactive)
REMARK    1  A    between atoms: C_7  and  O_10 
ROOT
HETATM    1  N   UNL     1       1.087   0.028   0.175  1.00  0.00    -0.191 NA
HETATM    2  C   UNL     1       3.672   0.003  -0.017  1.00  0.00     0.083 A 
HETATM    3  C   UNL     1       2.245   0.035   0.096  1.00  0.00     0.102 C 
HETATM    4  C   UNL     1       4.400   1.191  -0.095  1.00  0.00     0.139 A 
HETATM    5  C   UNL     1       5.787   1.180  -0.234  1.00  0.00     0.080 A 
HETATM    6  C   UNL     1       4.352  -1.219  -0.068  1.00  0.00     0.028 A 
HETATM    7  C   UNL     1       6.445  -0.041  -0.309  1.00  0.00     0.068 A 
HETATM    8  F   UNL     1       3.773   2.375  -0.041  1.00  0.00    -0.204 F 
HETATM    9  C   UNL     1       5.741  -1.238  -0.219  1.00  0.00     0.038 A 
ENDROOT
BRANCH   7  10
HETATM   10  O   UNL     1       7.795  -0.113  -0.480  1.00  0.00    -0.361 OA
HETATM   11  H   UNL     1       8.217  -0.949  -0.528  1.00  0.00     0.217 HD
ENDBRANCH   7  10
TORSDOF 1
