REMARK  1 active torsions:
REMARK  status: ('A' for Active; 'I' for Inactive)
REMARK    1  A    between atoms: C_3  and  N_7 
ROOT
HETATM    1  N   UNL     1      -1.935  -0.778   0.001  1.00  0.00    -0.244 N 
ATOM      2  HN  UNL     1      -2.909  -1.081   0.002  1.00  0.00     0.196 HD
HETATM    3  C   UNL     1      -1.483   0.479  -0.009  1.00  0.00     0.132 A 
HETATM    4  C   UNL     1      -0.065   0.524  -0.003  1.00  0.00     0.045 A 
HETATM    5  O   UNL     1      -0.809  -1.586   0.010  1.00  0.00    -0.235 OA
HETATM    6  C   UNL     1       0.306  -0.809   0.007  1.00  0.00     0.112 A 
HETATM    7  C   UNL     1       0.943   1.506  -0.006  1.00  0.00     0.018 A 
HETATM    8  C   UNL     1       1.624  -1.258   0.012  1.00  0.00     0.040 A 
HETATM    9  C   UNL     1       2.282   1.089  -0.000  1.00  0.00     0.001 A 
HETATM   10  C   UNL     1       2.615  -0.269   0.008  1.00  0.00     0.003 A 
ENDROOT
BRANCH   3  11
HETATM   11  N   UNL     1      -2.267   1.568  -0.025  1.00  0.00    -0.383 N 
HETATM   12  H   UNL     1      -3.247   1.469  -0.028  1.00  0.00     0.157 HD
HETATM   13  H   UNL     1      -1.863   2.465  -0.033  1.00  0.00     0.157 HD
ENDBRANCH   3  11
TORSDOF 1
