REMARK  2 active torsions:
REMARK  status: ('A' for Active; 'I' for Inactive)
REMARK    1  A    between atoms: C_2  and  C_3 
REMARK    2  A    between atoms: C_3  and  O_8 
ROOT
HETATM    1  N   UNL     1       1.560   1.186  -0.298  1.00  0.00    -0.376 N 
HETATM    2  C   UNL     1       2.451   0.035   0.025  1.00  0.00     0.186 C 
HETATM    3  C   UNL     1       0.266   0.671  -0.088  1.00  0.00     0.035 A 
HETATM    4  C   UNL     1       1.624  -1.253  -0.190  1.00  0.00     0.076 C 
HETATM    5  C   UNL     1       0.235  -0.722  -0.060  1.00  0.00    -0.029 A 
HETATM    6  C   UNL     1      -0.903   1.407  -0.058  1.00  0.00     0.029 A 
HETATM    7  C   UNL     1      -0.960  -1.416   0.028  1.00  0.00     0.009 A 
HETATM    8  C   UNL     1      -2.117   0.723   0.040  1.00  0.00     0.002 A 
HETATM    9  C   UNL     1      -2.145  -0.680   0.083  1.00  0.00     0.001 A 
HETATM   10  H   UNL     1       1.816   2.091  -0.588  1.00  0.00     0.160 HD
ENDROOT
BRANCH   2  11
HETATM   11  C   UNL     1       3.728   0.032  -0.819  1.00  0.00     0.281 C 
HETATM   12  O   UNL     1       4.352  -0.976  -1.129  1.00  0.00    -0.263 OA
BRANCH  11  13
HETATM   13  O   UNL     1       4.131   1.308  -1.101  1.00  0.00    -0.325 OA
HETATM   14  C   UNL     1       5.306   1.393  -1.905  1.00  0.00     0.213 C 
ENDBRANCH  11  13
ENDBRANCH   2  11
TORSDOF 2
