REMARK  2 active torsions:
REMARK  status: ('A' for Active; 'I' for Inactive)
REMARK    1  A    between atoms: N_1  and  C_4 
REMARK    2  A    between atoms: C_7  and  N_9 
ROOT
HETATM    1  C   UNL     1      -0.788  -2.443   0.016  1.00  0.00     0.082 A 
HETATM    2  C   UNL     1      -1.563  -2.957  -1.046  1.00  0.00     0.054 A 
HETATM    3  C   UNL     1      -0.352  -3.303   1.042  1.00  0.00     0.034 A 
HETATM    4  C   UNL     1      -1.971  -4.299  -0.986  1.00  0.00     0.031 A 
HETATM    5  C   UNL     1      -0.721  -4.650   1.045  1.00  0.00     0.002 A 
HETATM    6  C   UNL     1      -1.543  -5.143   0.040  1.00  0.00     0.002 A 
ENDROOT
BRANCH   1   7
HETATM    7  N   UNL     1      -0.420  -1.065   0.065  1.00  0.00    -0.266 N 
HETATM    8  N   UNL     1      -0.460  -0.265  -1.042  1.00  0.00    -0.305 N 
HETATM    9  C   UNL     1      -0.059   0.931  -0.610  1.00  0.00     0.109 A 
ATOM     10  HN  UNL     1      -0.736  -0.525  -1.989  1.00  0.00     0.186 HD
HETATM   11  C   UNL     1       0.237   0.942   0.758  1.00  0.00     0.038 A 
HETATM   12  C   UNL     1       0.017  -0.352   1.167  1.00  0.00     0.118 A 
ENDBRANCH   1   7
BRANCH   2  13
HETATM   13  N   UNL     1      -2.167  -2.136  -2.018  1.00  0.00    -0.397 N 
HETATM   14  H   UNL     1      -1.909  -1.189  -2.092  1.00  0.00     0.156 HD
HETATM   15  H   UNL     1      -2.848  -2.510  -2.623  1.00  0.00     0.156 HD
ENDBRANCH   2  13
TORSDOF 2
