REMARK  4 active torsions:
REMARK  status: ('A' for Active; 'I' for Inactive)
REMARK    1  A    between atoms: C_3  and  C_8 
REMARK    2  A    between atoms: C_5  and  C_17 
REMARK    3  A    between atoms: C_7  and  C_9 
REMARK    4  A    between atoms: C_17  and  O_19 
ROOT
HETATM    1  N   UNL     1       0.186   0.627   1.095  1.00  0.00    -0.353 N 
ATOM      2  HN  UNL     1       0.337   0.998   2.033  1.00  0.00     0.166 HD
HETATM    3  C   UNL     1       0.624   1.193  -0.012  1.00  0.00     0.085 A 
HETATM    4  S   UNL     1       0.195   0.359  -1.456  1.00  0.00    -0.072 SA
HETATM    5  C   UNL     1      -0.609  -0.843  -0.535  1.00  0.00     0.030 A 
HETATM    6  C   UNL     1      -0.507  -0.540   0.812  1.00  0.00     0.021 A 
HETATM    7  C   UNL     1      -1.050  -1.315   1.960  1.00  0.00     0.069 C 
ENDROOT
BRANCH   3   8
HETATM    8  C   UNL     1       1.364   2.466  -0.056  1.00  0.00    -0.002 A 
HETATM    9  C   UNL     1       2.277   2.779  -1.074  1.00  0.00     0.015 A 
HETATM   10  C   UNL     1       2.945   4.009  -1.087  1.00  0.00     0.017 A 
HETATM   11  C   UNL     1       2.721   4.956  -0.076  1.00  0.00     0.048 A 
HETATM   12  C   UNL     1       1.825   4.640   0.953  1.00  0.00     0.017 A 
HETATM   13  C   UNL     1       1.162   3.409   0.965  1.00  0.00     0.015 A 
BRANCH  11  14
HETATM   14  C   UNL     1       3.439   6.282  -0.113  1.00  0.00     0.417 C 
HETATM   15  F   UNL     1       3.117   7.107   0.921  1.00  0.00    -0.166 F 
HETATM   16  F   UNL     1       4.793   6.141  -0.070  1.00  0.00    -0.166 F 
HETATM   17  F   UNL     1       3.172   6.985  -1.249  1.00  0.00    -0.166 F 
ENDBRANCH  11  14
ENDBRANCH   3   8
BRANCH   5  18
HETATM   18  C   UNL     1      -1.286  -1.980  -1.213  1.00  0.00     0.212 C 
BRANCH  18  19
HETATM   19  O   UNL     1      -0.650  -3.178  -0.786  1.00  0.00    -0.396 OA
HETATM   20  H   UNL     1       0.291  -3.145  -1.019  1.00  0.00     0.209 HD
ENDBRANCH  18  19
ENDBRANCH   5  18
TORSDOF 4
