REMARK  3 active torsions:
REMARK  status: ('A' for Active; 'I' for Inactive)
REMARK    1  A    between atoms: N_1  and  C_8 
REMARK    2  A    between atoms: C_2  and  C_8 
REMARK    3  A    between atoms: C_3  and  C_10 
ROOT
HETATM    1  C   UNL     1       1.021   1.830  -1.544  1.00  0.00    -0.033 A 
HETATM    2  C   UNL     1       1.868   3.001  -3.966  1.00  0.00    -0.059 A 
HETATM    3  C   UNL     1       0.689   3.157  -1.850  1.00  0.00     0.009 A 
HETATM    4  C   UNL     1       2.222   1.683  -3.651  1.00  0.00     0.007 A 
HETATM    5  C   UNL     1       1.806   1.105  -2.449  1.00  0.00     0.009 A 
HETATM    6  C   UNL     1       1.105   3.736  -3.051  1.00  0.00     0.007 A 
ENDROOT
BRANCH   1   7
HETATM    7  C   UNL     1       0.524   1.185  -0.271  1.00  0.00     0.270 C 
BRANCH   7   8
HETATM    8  N   UNL     1      -0.939   1.172  -0.143  1.00  0.00    -0.075 N 
HETATM    9  C   UNL     1      -1.577   0.367  -1.178  1.00  0.00     0.267 C 
HETATM   10  H   UNL     1      -1.282   2.130  -0.213  1.00  0.00     0.277 HD
HETATM   11  H   UNL     1      -1.169   0.759   0.761  1.00  0.00     0.277 HD
ENDBRANCH   7   8
ENDBRANCH   1   7
BRANCH   2  12
HETATM   12  C   UNL     1       2.261   3.600  -5.292  1.00  0.00     0.034 C 
HETATM   13  C   UNL     1       1.203   3.352  -6.357  1.00  0.00     0.010 C 
ENDBRANCH   2  12
TORSDOF 3
