REMARK  3 active torsions:
REMARK  status: ('A' for Active; 'I' for Inactive)
REMARK    1  A    between atoms: N_1  and  C_7 
REMARK    2  A    between atoms: C_5  and  C_10 
REMARK    3  A    between atoms: C_10  and  O_16 
ROOT
HETATM    1  N   UNL     1       1.006  -0.594  -0.080  1.00  0.00    -0.261 N 
HETATM    2  N   UNL     1      -0.241  -1.071  -0.331  1.00  0.00    -0.304 N 
ATOM      3  HN  UNL     1      -0.506  -2.030  -0.558  1.00  0.00     0.186 HD
HETATM    4  C   UNL     1       0.999   0.792   0.014  1.00  0.00     0.040 C 
HETATM    5  C   UNL     1      -0.334   1.182  -0.018  1.00  0.00     0.006 C 
HETATM    6  C   UNL     1      -1.041  -0.016  -0.216  1.00  0.00     0.119 C 
HETATM    7  C   UNL     1       2.202   1.668   0.026  1.00  0.00     0.071 C 
ENDROOT
BRANCH   1   8
HETATM    8  C   UNL     1       2.085  -1.511   0.045  1.00  0.00     0.056 A 
HETATM    9  C   UNL     1       2.033  -2.724  -0.661  1.00  0.00     0.034 A 
HETATM   10  C   UNL     1       3.093  -3.631  -0.574  1.00  0.00     0.044 A 
HETATM   11  C   UNL     1       4.177  -3.340   0.244  1.00  0.00     0.116 A 
HETATM   12  C   UNL     1       4.224  -2.162   0.981  1.00  0.00     0.044 A 
HETATM   13  F   UNL     1       5.190  -4.212   0.333  1.00  0.00    -0.206 F 
HETATM   14  C   UNL     1       3.177  -1.240   0.881  1.00  0.00     0.034 A 
ENDBRANCH   1   8
BRANCH   5  15
HETATM   15  C   UNL     1      -0.896   2.555   0.061  1.00  0.00     0.206 C 
BRANCH  15  16
HETATM   16  O   UNL     1      -0.488   3.222   1.249  1.00  0.00    -0.396 OA
HETATM   17  H   UNL     1      -0.809   2.730   2.022  1.00  0.00     0.209 HD
ENDBRANCH  15  16
ENDBRANCH   5  15
TORSDOF 3
