REMARK  2 active torsions:
REMARK  status: ('A' for Active; 'I' for Inactive)
REMARK    1  A    between atoms: N_3  and  C_7 
REMARK    2  A    between atoms: C_4  and  C_7 
ROOT
HETATM    1  N   UNL     1      -1.373  -0.045   0.015  1.00  0.00    -0.375 N 
ATOM      2  HN  UNL     1      -2.393  -0.075   0.023  1.00  0.00     0.164 HD
HETATM    3  C   UNL     1       1.441   0.039  -0.004  1.00  0.00    -0.030 A 
HETATM    4  C   UNL     1      -0.696   1.123  -0.002  1.00  0.00     0.088 A 
HETATM    5  C   UNL     1      -0.630  -1.170   0.021  1.00  0.00     0.088 A 
HETATM    6  C   UNL     1       0.688   1.216  -0.012  1.00  0.00     0.026 A 
HETATM    7  C   UNL     1       0.757  -1.181   0.021  1.00  0.00     0.026 A 
ENDROOT
BRANCH   3   8
HETATM    8  C   UNL     1       2.951   0.086  -0.005  1.00  0.00     0.270 C 
BRANCH   8   9
HETATM    9  N   UNL     1       3.504  -0.544  -1.203  1.00  0.00    -0.075 N 
HETATM   10  C   UNL     1       4.959  -0.508  -1.192  1.00  0.00     0.267 C 
HETATM   11  H   UNL     1       3.165  -0.048  -2.027  1.00  0.00     0.277 HD
HETATM   12  H   UNL     1       3.206  -1.519  -1.223  1.00  0.00     0.277 HD
ENDBRANCH   8   9
ENDBRANCH   3   8
TORSDOF 2
