REMARK  2 active torsions:
REMARK  status: ('A' for Active; 'I' for Inactive)
REMARK    1  A    between atoms: N_2  and  C_9 
REMARK    2  A    between atoms: C_3  and  C_9 
ROOT
HETATM    1  C   UNL     1      -0.387  -0.001  -0.019  1.00  0.00     0.034 A 
HETATM    2  C   UNL     1       2.417   0.005   0.023  1.00  0.00    -0.033 A 
HETATM    3 CL   UNL     1      -2.107  -0.005  -0.040  1.00  0.00    -0.084 Cl
HETATM    4  C   UNL     1       0.304   1.209  -0.009  1.00  0.00     0.024 A 
HETATM    5  C   UNL     1       0.306  -1.209  -0.008  1.00  0.00     0.024 A 
HETATM    6  C   UNL     1       1.703   1.212   0.010  1.00  0.00     0.010 A 
HETATM    7  C   UNL     1       1.702  -1.204   0.020  1.00  0.00     0.010 A 
ENDROOT
BRANCH   2   8
HETATM    8  C   UNL     1       3.929   0.004   0.056  1.00  0.00     0.270 C 
BRANCH   8   9
HETATM    9  N   UNL     1       4.486  -0.664  -1.122  1.00  0.00    -0.075 N 
HETATM   10  C   UNL     1       5.939  -0.676  -1.083  1.00  0.00     0.267 C 
HETATM   11  H   UNL     1       4.180  -0.170  -1.961  1.00  0.00     0.277 HD
HETATM   12  H   UNL     1       4.156  -1.629  -1.133  1.00  0.00     0.277 HD
ENDBRANCH   8   9
ENDBRANCH   2   8
TORSDOF 2
