REMARK  2 active torsions:
REMARK  status: ('A' for Active; 'I' for Inactive)
REMARK    1  A    between atoms: C_1  and  C_5 
REMARK    2  A    between atoms: N_4  and  C_5 
ROOT
HETATM    1  C   UNL     1       0.284   1.204  -0.033  1.00  0.00    -0.011 A 
HETATM    2  C   UNL     1      -0.381  -0.034  -0.032  1.00  0.00     0.042 A 
HETATM    3 CL   UNL     1      -2.106  -0.166  -0.032  1.00  0.00    -0.084 Cl
HETATM    4  C   UNL     1       1.694   1.194   0.011  1.00  0.00     0.010 A 
HETATM    5  C   UNL     1       0.343  -1.233  -0.015  1.00  0.00     0.024 A 
HETATM    6  C   UNL     1       2.412  -0.003   0.021  1.00  0.00     0.001 A 
HETATM    7  C   UNL     1       1.737  -1.218   0.005  1.00  0.00     0.002 A 
ENDROOT
BRANCH   1   8
HETATM    8  C   UNL     1      -0.437   2.535  -0.048  1.00  0.00     0.272 C 
BRANCH   8   9
HETATM    9  N   UNL     1      -0.082   3.332  -1.229  1.00  0.00    -0.075 N 
HETATM   10  C   UNL     1      -0.783   4.608  -1.229  1.00  0.00     0.267 C 
HETATM   11  H   UNL     1      -0.335   2.812  -2.069  1.00  0.00     0.277 HD
HETATM   12  H   UNL     1       0.921   3.513  -1.208  1.00  0.00     0.277 HD
ENDBRANCH   8   9
ENDBRANCH   1   8
TORSDOF 2
