REMARK  3 active torsions:
REMARK  status: ('A' for Active; 'I' for Inactive)
REMARK    1  A    between atoms: C_1  and  N_2 
REMARK    2  A    between atoms: C_3  and  C_6 
REMARK    3  A    between atoms: C_6  and  O_10 
ROOT
HETATM    1  C   UNL     1      -0.603   1.352   0.024  1.00  0.00     0.090 A 
HETATM    2  C   UNL     1       0.803   1.277   0.013  1.00  0.00     0.004 A 
HETATM    3  N   UNL     1      -1.357   0.232   0.013  1.00  0.00    -0.356 N 
ATOM      4  HN  UNL     1      -2.375   0.292   0.008  1.00  0.00     0.166 HD
HETATM    5  C   UNL     1       1.410   0.007   0.010  1.00  0.00     0.014 A 
HETATM    6  C   UNL     1      -0.738  -0.972   0.009  1.00  0.00     0.089 A 
HETATM    7  C   UNL     1       0.628  -1.137   0.001  1.00  0.00     0.018 A 
ENDROOT
BRANCH   1   8
HETATM    8  N   UNL     1      -1.238   2.583  -0.110  1.00  0.00    -0.269 NA
HETATM    9  C   UNL     1      -2.629   2.583  -0.560  1.00  0.00     0.097 C 
HETATM   10  C   UNL     1      -2.883   4.084  -0.640  1.00  0.00     0.016 C 
HETATM   11  C   UNL     1      -2.219   4.608   0.630  1.00  0.00     0.016 C 
HETATM   12  C   UNL     1      -1.135   3.571   0.970  1.00  0.00     0.097 C 
ENDBRANCH   1   8
BRANCH   2  13
HETATM   13  C   UNL     1       1.702   2.483  -0.059  1.00  0.00     0.206 C 
BRANCH  13  14
HETATM   14  O   UNL     1       1.361   3.357  -1.132  1.00  0.00    -0.396 OA
HETATM   15  H   UNL     1       1.459   2.887  -1.975  1.00  0.00     0.209 HD
ENDBRANCH  13  14
ENDBRANCH   2  13
TORSDOF 3
