REMARK  2 active torsions:
REMARK  status: ('A' for Active; 'I' for Inactive)
REMARK    1  A    between atoms: C_1  and  C_7 
REMARK    2  A    between atoms: C_4  and  C_8 
ROOT
HETATM    1  C   UNK     1       1.264   0.791   0.330  1.00  0.00     0.117 A 
HETATM    2  N   UNK     1       1.320  -0.596   0.488  1.00  0.00    -0.344 N 
ATOM      3  HN  UNK     1       2.086  -1.097   0.938  1.00  0.00     0.167 HD
HETATM    4  C   UNK     1       0.249  -1.169  -0.024  1.00  0.00     0.085 A 
HETATM    5  S   UNK     1      -0.919  -0.070  -0.658  1.00  0.00    -0.081 SA
HETATM    6  C   UNK     1       0.103   1.242  -0.270  1.00  0.00     0.088 A 
ENDROOT
BRANCH   4   7
HETATM    7  C   UNK     1       0.012  -2.622  -0.040  1.00  0.00    -0.001 A 
HETATM    8  C   UNK     1       0.534  -3.417   0.992  1.00  0.00     0.038 A 
HETATM    9  C   UNK     1       0.328  -4.797   0.995  1.00  0.00     0.035 A 
HETATM   10 CL   UNK     1       0.960  -5.756   2.277  1.00  0.00    -0.084 Cl
HETATM   11  C   UNK     1      -0.386  -5.410  -0.033  1.00  0.00     0.024 A 
HETATM   12  C   UNK     1      -0.898  -4.638  -1.071  1.00  0.00     0.003 A 
HETATM   13  C   UNK     1      -0.700  -3.254  -1.075  1.00  0.00     0.014 A 
ENDBRANCH   4   7
BRANCH   1  14
HETATM   14  C   UNK     1       2.338   1.682   0.755  1.00  0.00     0.227 C 
HETATM   15  O   UNK     1       2.332   2.901   0.636  1.00  0.00    -0.643 OA
HETATM   16  O   UNK     1       3.407   1.064   1.308  1.00  0.00    -0.643 OA
ENDBRANCH   1  14
TORSDOF 2
