REMARK  1 active torsions:
REMARK  status: ('A' for Active; 'I' for Inactive)
REMARK       I    between atoms: C_1  and  N_2 
REMARK    1  A    between atoms: C_1  and  C_3 
ROOT
HETATM    1  C   UNL     1      -0.132   0.274  -1.004  1.00  0.00     0.277 C 
HETATM    2  N   UNL     1      -1.020  -0.893  -1.132  1.00  0.00    -0.062 N 
HETATM    3  C   UNL     1      -1.590  -1.004  -2.487  1.00  0.00     0.233 C 
HETATM    4  C   UNL     1      -0.894   1.566  -1.358  1.00  0.00     0.043 C 
HETATM    5  C   UNL     1      -2.408   0.246  -2.826  1.00  0.00     0.027 C 
HETATM    6  C   UNL     1      -1.508   1.478  -2.749  1.00  0.00     0.004 C 
HETATM    7  H   UNL     1      -1.783  -0.803  -0.461  1.00  0.00     0.278 HD
HETATM    8  H   UNL     1      -0.468  -1.732  -0.952  1.00  0.00     0.278 HD
ENDROOT
BRANCH   1   9
HETATM    9  C   UNL     1       0.445   0.491   0.391  1.00  0.00     0.250 C 
HETATM   10  N   UNL     1      -0.022  -0.082   1.545  1.00  0.00    -0.350 N 
HETATM   11  C   UNL     1       0.521   0.262   2.839  1.00  0.00     0.126 C 
HETATM   12  C   UNL     1      -1.102  -1.043   1.669  1.00  0.00     0.126 C 
HETATM   13  C   UNL     1       0.033  -0.867   3.735  1.00  0.00     0.021 C 
HETATM   14  C   UNL     1      -1.351  -1.109   3.180  1.00  0.00     0.021 C 
HETATM   15  O   UNL     1       1.349   1.312   0.475  1.00  0.00    -0.271 OA
ENDBRANCH   1   9
TORSDOF 1
