REMARK  2 active torsions:
REMARK  status: ('A' for Active; 'I' for Inactive)
REMARK    1  A    between atoms: C_1  and  C_6 
REMARK    2  A    between atoms: C_3  and  C_7 
ROOT
HETATM    1  C   UNL     1       0.253  -0.877  -0.487  1.00  0.00     0.072 A 
HETATM    2  C   UNL     1      -0.402   0.304  -0.946  1.00  0.00     0.059 A 
HETATM    3  C   UNL     1      -1.382   0.613  -0.030  1.00  0.00     0.087 A 
HETATM    4  C   UNL     1      -0.379  -1.211   0.698  1.00  0.00     0.067 A 
HETATM    5  O   UNL     1      -1.359  -0.305   0.979  1.00  0.00    -0.314 OA
HETATM    6  C   UNL     1      -0.242  -2.308   1.682  1.00  0.00     0.078 C 
ENDROOT
BRANCH   3   7
HETATM    7  C   UNL     1      -2.411   1.644   0.036  1.00  0.00    -0.002 A 
HETATM    8  C   UNL     1      -2.524   2.598  -0.985  1.00  0.00     0.015 A 
HETATM    9  C   UNL     1      -3.565   3.530  -0.982  1.00  0.00     0.007 A 
HETATM   10  C   UNL     1      -4.508   3.532   0.050  1.00  0.00    -0.062 A 
HETATM   11  C   UNL     1      -4.378   2.609   1.090  1.00  0.00     0.007 A 
HETATM   12  C   UNL     1      -5.654   4.497   0.018  1.00  0.00     0.048 C 
HETATM   13  C   UNL     1      -3.338   1.677   1.085  1.00  0.00     0.015 A 
ENDBRANCH   3   7
BRANCH   1  14
HETATM   14  C   UNL     1       1.332  -1.583  -1.132  1.00  0.00     0.212 C 
HETATM   15  O   UNL     1       1.886  -2.594  -0.724  1.00  0.00    -0.644 OA
HETATM   16  O   UNL     1       1.724  -1.023  -2.300  1.00  0.00    -0.644 OA
ENDBRANCH   1  14
TORSDOF 2
