REMARK  4 active torsions:
REMARK  status: ('A' for Active; 'I' for Inactive)
REMARK    1  A    between atoms: N_1  and  C_2 
REMARK    2  A    between atoms: C_2  and  C_3 
REMARK    3  A    between atoms: C_7  and  C_14 
REMARK    4  A    between atoms: N_8  and  C_14 
ROOT
HETATM    1  C   UNL     1       0.408   0.161  -2.524  1.00  0.00    -0.032 A 
HETATM    2  C   UNL     1      -0.479   1.193  -2.176  1.00  0.00     0.017 A 
HETATM    3  C   UNL     1      -1.775   1.247  -2.704  1.00  0.00    -0.033 A 
HETATM    4  C   UNL     1      -1.259  -0.706  -4.055  1.00  0.00     0.001 A 
HETATM    5  C   UNL     1       0.014  -0.777  -3.486  1.00  0.00     0.009 A 
HETATM    6  C   UNL     1      -2.152   0.291  -3.656  1.00  0.00     0.009 A 
ENDROOT
BRANCH   1   7
HETATM    7  C   UNL     1       1.737   0.038  -1.803  1.00  0.00     0.273 C 
BRANCH   7   8
HETATM    8  N   UNL     1       1.572   0.072  -0.337  1.00  0.00    -0.067 N 
HETATM    9  C   UNL     1       0.846  -1.086   0.202  1.00  0.00     0.235 C 
HETATM   10  C   UNL     1       1.652  -2.385   0.217  1.00  0.00     0.032 C 
HETATM   11  C   UNL     1       3.028  -2.215   0.872  1.00  0.00    -0.015 C 
HETATM   12  C   UNL     1       3.747  -0.959   0.363  1.00  0.00     0.032 C 
HETATM   13  C   UNL     1       3.889  -3.454   0.626  1.00  0.00     0.010 C 
HETATM   14  C   UNL     1       2.838   0.269   0.372  1.00  0.00     0.235 C 
HETATM   15  H   UNL     1       0.990   0.891  -0.165  1.00  0.00     0.280 HD
ENDBRANCH   7   8
ENDBRANCH   1   7
BRANCH   3  16
HETATM   16  C   UNL     1      -2.769   2.242  -2.157  1.00  0.00     0.268 C 
BRANCH  16  17
HETATM   17  N   UNL     1      -3.349   3.082  -3.196  1.00  0.00    -0.075 N 
HETATM   18  H   UNL     1      -4.011   3.735  -2.776  1.00  0.00     0.274 HD
HETATM   19  H   UNL     1      -3.834   2.496  -3.876  1.00  0.00     0.274 HD
HETATM   20  H   UNL     1      -2.608   3.604  -3.665  1.00  0.00     0.274 HD
ENDBRANCH  16  17
ENDBRANCH   3  16
TORSDOF 4
