REMARK  2 active torsions:
REMARK  status: ('A' for Active; 'I' for Inactive)
REMARK    1  A    between atoms: C_1  and  C_3 
REMARK    2  A    between atoms: C_8  and  N_9 
ROOT
HETATM    1  C   UNL     1      -0.209   2.695  -0.011  1.00  0.00    -0.017 A 
HETATM    2  C   UNL     1       0.260   3.525  -1.047  1.00  0.00     0.041 A 
HETATM    3  C   UNL     1      -0.058   4.887  -1.098  1.00  0.00     0.026 A 
HETATM    4  C   UNL     1      -0.981   3.279   1.004  1.00  0.00     0.013 A 
HETATM    5  C   UNL     1      -1.259   4.646   0.992  1.00  0.00     0.003 A 
HETATM    6  C   UNL     1      -0.778   5.447  -0.043  1.00  0.00     0.029 A 
ENDROOT
BRANCH   1   7
HETATM    7  C   UNL     1       0.150   1.264   0.004  1.00  0.00     0.015 A 
HETATM    8  S   UNL     1      -0.916   0.088   0.667  1.00  0.00    -0.101 SA
HETATM    9  C   UNL     1       0.154  -1.195   0.315  1.00  0.00     0.050 A 
HETATM   10  C   UNL     1       1.297  -0.756  -0.310  1.00  0.00     0.008 A 
HETATM   11  C   UNL     1       1.294   0.657  -0.489  1.00  0.00     0.020 A 
ENDBRANCH   1   7
BRANCH   3  12
HETATM   12  N   UNL     1       0.535   5.712  -2.063  1.00  0.00    -0.399 N 
HETATM   13  H   UNL     1       1.042   5.313  -2.807  1.00  0.00     0.156 HD
HETATM   14  H   UNL     1       0.445   6.690  -1.997  1.00  0.00     0.156 HD
ENDBRANCH   3  12
TORSDOF 2
