REMARK  3 active torsions:
REMARK  status: ('A' for Active; 'I' for Inactive)
REMARK    1  A    between atoms: N_1  and  C_3 
REMARK    2  A    between atoms: C_2  and  C_3 
REMARK    3  A    between atoms: C_2  and  N_4 
ROOT
HETATM    1  C   UNL     1      -0.510  -0.256   2.715  1.00  0.00     0.140 C 
HETATM    2  C   UNL     1      -1.198   0.121   4.044  1.00  0.00     0.047 C 
HETATM    3  C   UNL     1      -0.449  -1.792   2.664  1.00  0.00     0.047 C 
ENDROOT
BRANCH   1   4
HETATM    4  C   UNL     1      -1.343   0.368   1.534  1.00  0.00     0.272 C 
BRANCH   4   5
HETATM    5  N   UNL     1      -0.896   0.383   0.135  1.00  0.00    -0.069 N 
HETATM    6  C   UNL     1      -0.678  -0.882  -0.543  1.00  0.00     0.235 C 
HETATM    7  C   UNL     1       0.828  -1.019  -0.649  1.00  0.00     0.029 C 
HETATM    8  C   UNL     1       1.323   0.412  -0.763  1.00  0.00     0.029 C 
HETATM    9  C   UNL     1       0.205   1.281  -0.196  1.00  0.00     0.235 C 
HETATM   10  H   UNL     1      -1.763   0.767  -0.239  1.00  0.00     0.280 HD
ENDBRANCH   4   5
ENDBRANCH   1   4
BRANCH   1  11
HETATM   11  N   UNL     1       0.857   0.285   2.780  1.00  0.00    -0.070 N 
HETATM   12  H   UNL     1       0.819   1.303   2.814  1.00  0.00     0.275 HD
HETATM   13  H   UNL     1       1.378  -0.009   1.954  1.00  0.00     0.275 HD
HETATM   14  H   UNL     1       1.322  -0.066   3.618  1.00  0.00     0.275 HD
ENDBRANCH   1  11
TORSDOF 3
