REMARK  1 active torsions:
REMARK  status: ('A' for Active; 'I' for Inactive)
REMARK       I    between atoms: C_1  and  N_2 
REMARK    1  A    between atoms: C_1  and  C_7 
ROOT
HETATM    1  C   UNL     1      -2.672  -0.318  -0.088  1.00  0.00     0.224 C 
HETATM    2  N   UNL     1      -3.647  -0.030   0.837  1.00  0.00    -0.352 N 
HETATM    3  O   UNL     1      -2.982  -0.944  -1.097  1.00  0.00    -0.273 OA
HETATM    4  C   UNL     1      -3.417   0.710   2.076  1.00  0.00     0.126 C 
HETATM    5  C   UNL     1      -4.998  -0.564   0.672  1.00  0.00     0.126 C 
HETATM    6  C   UNL     1      -5.259  -1.553   1.819  1.00  0.00     0.024 C 
HETATM    7  C   UNL     1      -3.704  -0.201   3.275  1.00  0.00     0.024 C 
HETATM    8  C   UNL     1      -5.109  -0.828   3.171  1.00  0.00    -0.015 C 
HETATM    9  C   UNL     1      -5.344  -1.802   4.332  1.00  0.00     0.010 C 
ENDROOT
BRANCH   1  10
HETATM   10  C   UNL     1      -1.177  -0.045   0.132  1.00  0.00     0.081 C 
HETATM   11  C   UNL     1      -0.341  -0.953  -0.803  1.00  0.00     0.041 C 
HETATM   12  C   UNL     1       1.153  -0.756  -0.556  1.00  0.00     0.233 C 
HETATM   13  N   UNL     1       1.531   0.644  -0.781  1.00  0.00    -0.075 N 
HETATM   14  C   UNL     1       0.785   1.547   0.112  1.00  0.00     0.233 C 
HETATM   15  H   UNL     1       1.329   0.892  -1.749  1.00  0.00     0.277 HD
HETATM   16  H   UNL     1       2.527   0.745  -0.584  1.00  0.00     0.277 HD
HETATM   17  C   UNL     1      -0.741   1.420  -0.097  1.00  0.00     0.041 C 
ENDBRANCH   1  10
TORSDOF 1
