REMARK  1 active torsions:
REMARK  status: ('A' for Active; 'I' for Inactive)
REMARK       I    between atoms: C_1  and  N_2 
REMARK    1  A    between atoms: C_1  and  C_5 
ROOT
HETATM    1  N   UNL     1       3.289   0.100  -2.739  1.00  0.00    -0.075 N 
HETATM    2  C   UNL     1       2.430  -0.078   0.058  1.00  0.00     0.081 C 
HETATM    3  C   UNL     1       2.599   1.232  -2.123  1.00  0.00     0.233 C 
HETATM    4  C   UNL     1       2.763  -1.166  -2.228  1.00  0.00     0.233 C 
HETATM    5  C   UNL     1       2.807   1.251  -0.609  1.00  0.00     0.041 C 
HETATM    6  C   UNL     1       2.977  -1.278  -0.722  1.00  0.00     0.041 C 
HETATM    7  H   UNL     1       3.154   0.135  -3.749  1.00  0.00     0.277 HD
HETATM    8  H   UNL     1       4.282   0.158  -2.513  1.00  0.00     0.277 HD
ENDROOT
BRANCH   2   9
HETATM    9  C   UNL     1       0.914  -0.187   0.264  1.00  0.00     0.224 C 
HETATM   10  N   UNL     1       0.403   0.371   1.419  1.00  0.00    -0.352 N 
HETATM   11  C   UNL     1      -1.010   0.290   1.732  1.00  0.00     0.126 C 
HETATM   12  C   UNL     1       1.157   0.862   2.560  1.00  0.00     0.126 C 
HETATM   13  C   UNL     1      -1.201   1.331   2.822  1.00  0.00     0.021 C 
HETATM   14  C   UNL     1       0.117   1.291   3.589  1.00  0.00     0.021 C 
HETATM   15  O   UNL     1       0.179  -0.709  -0.577  1.00  0.00    -0.273 OA
ENDBRANCH   2   9
TORSDOF 1
