REMARK  1 active torsions:
REMARK  status: ('A' for Active; 'I' for Inactive)
REMARK       I    between atoms: C_1  and  N_2 
REMARK    1  A    between atoms: C_1  and  C_3 
ROOT
HETATM    1  C   UNL     1       0.636  -0.242   0.217  1.00  0.00     0.250 C 
HETATM    2  N   UNL     1       0.027  -1.167  -0.614  1.00  0.00    -0.350 N 
HETATM    3  O   UNL     1       1.739  -0.489   0.682  1.00  0.00    -0.271 OA
HETATM    4  C   UNL     1       0.666  -2.461  -0.886  1.00  0.00     0.126 C 
HETATM    5  C   UNL     1      -1.278  -0.961  -1.250  1.00  0.00     0.126 C 
HETATM    6  C   UNL     1      -1.171  -1.179  -2.766  1.00  0.00     0.024 C 
HETATM    7  C   UNL     1       0.788  -2.691  -2.398  1.00  0.00     0.024 C 
HETATM    8  C   UNL     1      -0.604  -2.581  -3.047  1.00  0.00    -0.015 C 
HETATM    9  C   UNL     1      -0.542  -2.868  -4.549  1.00  0.00     0.010 C 
ENDROOT
BRANCH   1  10
HETATM   10  C   UNL     1       0.006   1.077   0.645  1.00  0.00     0.277 C 
HETATM   11  N   UNL     1      -0.312   1.915  -0.527  1.00  0.00    -0.062 N 
HETATM   12  C   UNL     1      -0.910   3.200  -0.136  1.00  0.00     0.233 C 
HETATM   13  H   UNL     1      -0.970   1.413  -1.123  1.00  0.00     0.278 HD
HETATM   14  H   UNL     1       0.558   2.109  -1.022  1.00  0.00     0.278 HD
HETATM   15  C   UNL     1      -2.194   2.975   0.672  1.00  0.00     0.027 C 
HETATM   16  C   UNL     1      -1.868   2.174   1.933  1.00  0.00     0.004 C 
HETATM   17  C   UNL     1      -1.240   0.837   1.535  1.00  0.00     0.043 C 
ENDBRANCH   1  10
TORSDOF 1
