REMARK  2 active torsions:
REMARK  status: ('A' for Active; 'I' for Inactive)
REMARK    1  A    between atoms: C_1  and  C_7 
REMARK    2  A    between atoms: C_4  and  C_8 
ROOT
HETATM    1  C   UNK     1       0.629   0.899   0.750  1.00  0.00     0.117 A 
HETATM    2  N   UNK     1       0.416  -0.446   1.061  1.00  0.00    -0.344 N 
ATOM      3  HN  UNK     1       0.397  -0.825   2.008  1.00  0.00     0.167 HD
HETATM    4  C   UNK     1       0.242  -1.160  -0.036  1.00  0.00     0.085 A 
HETATM    5  S   UNK     1       0.364  -0.257  -1.501  1.00  0.00    -0.081 SA
HETATM    6  C   UNK     1       0.630   1.171  -0.605  1.00  0.00     0.088 A 
ENDROOT
BRANCH   4   7
HETATM    7  C   UNK     1       0.022  -2.617  -0.058  1.00  0.00    -0.002 A 
HETATM    8  C   UNK     1      -0.679  -3.258  -1.093  1.00  0.00     0.015 A 
HETATM    9  C   UNK     1      -0.844  -4.647  -1.098  1.00  0.00     0.007 A 
HETATM   10  C   UNK     1      -0.318  -5.428  -0.066  1.00  0.00    -0.062 A 
HETATM   11  C   UNK     1       0.362  -4.799   0.982  1.00  0.00     0.007 A 
HETATM   12  C   UNK     1      -0.482  -6.919  -0.102  1.00  0.00     0.048 C 
HETATM   13  C   UNK     1       0.524  -3.408   0.986  1.00  0.00     0.015 A 
ENDBRANCH   4   7
BRANCH   1  14
HETATM   14  C   UNK     1       0.839   1.925   1.767  1.00  0.00     0.227 C 
HETATM   15  O   UNK     1       1.033   3.113   1.541  1.00  0.00    -0.643 OA
HETATM   16  O   UNK     1       0.810   1.479   3.043  1.00  0.00    -0.643 OA
ENDBRANCH   1  14
TORSDOF 2
