REMARK  3 active torsions:
REMARK  status: ('A' for Active; 'I' for Inactive)
REMARK    1  A    between atoms: C_3  and  N_6 
REMARK    2  A    between atoms: C_4  and  C_10 
REMARK    3  A    between atoms: O_9  and  C_10 
ROOT
HETATM    1  N   UNL     1       0.333   1.117   0.053  1.00  0.00    -0.352 N 
ATOM      2  HN  UNL     1       0.903   1.962   0.071  1.00  0.00     0.166 HD
HETATM    3  C   UNL     1       0.891  -0.103   0.108  1.00  0.00     0.098 A 
HETATM    4  C   UNL     1      -1.852   0.070  -0.064  1.00  0.00    -0.019 A 
HETATM    5  C   UNL     1      -1.017   1.180  -0.027  1.00  0.00     0.099 A 
HETATM    6  C   UNL     1       0.144  -1.271   0.092  1.00  0.00     0.048 A 
HETATM    7  C   UNL     1      -1.243  -1.184  -0.001  1.00  0.00     0.014 A 
ENDROOT
BRANCH   3   8
HETATM    8  N   UNL     1       2.277  -0.148   0.230  1.00  0.00    -0.385 N 
HETATM    9  H   UNL     1       2.798   0.688   0.241  1.00  0.00     0.157 HD
HETATM   10  H   UNL     1       2.737  -1.015   0.306  1.00  0.00     0.157 HD
ENDBRANCH   3   8
BRANCH   4  11
HETATM   11  C   UNL     1      -3.341   0.213  -0.137  1.00  0.00     0.204 C 
BRANCH  11  12
HETATM   12  O   UNL     1      -3.848  -0.410  -1.310  1.00  0.00    -0.396 OA
HETATM   13  H   UNL     1      -4.812  -0.307  -1.340  1.00  0.00     0.209 HD
ENDBRANCH  11  12
ENDBRANCH   4  11
TORSDOF 3
