REMARK  2 active torsions:
REMARK  status: ('A' for Active; 'I' for Inactive)
REMARK    1  A    between atoms: C_5  and  C_10 
REMARK    2  A    between atoms: O_7  and  C_10 
ROOT
HETATM    1  O   UNL     1      -1.175   1.335  -0.011  1.00  0.00    -0.343 OA
HETATM    2  C   UNL     1       0.004   0.629  -0.002  1.00  0.00     0.075 A 
HETATM    3  C   UNL     1       0.068  -0.771   0.015  1.00  0.00    -0.025 A 
HETATM    4  C   UNL     1      -1.186  -1.598   0.017  1.00  0.00     0.044 C 
HETATM    5  C   UNL     1      -2.322   0.565   0.393  1.00  0.00     0.152 C 
HETATM    6  C   UNL     1      -2.387  -0.749  -0.382  1.00  0.00     0.039 C 
HETATM    7  C   UNL     1       1.174   1.384  -0.056  1.00  0.00     0.037 A 
HETATM    8  C   UNL     1       1.320  -1.398   0.059  1.00  0.00     0.010 A 
HETATM    9  C   UNL     1       2.418   0.752  -0.037  1.00  0.00     0.003 A 
HETATM   10  C   UNL     1       2.490  -0.641   0.031  1.00  0.00     0.001 A 
ENDROOT
BRANCH   5  11
HETATM   11  C   UNL     1      -3.578   1.420   0.179  1.00  0.00     0.196 C 
BRANCH  11  12
HETATM   12  O   UNL     1      -3.747   1.800  -1.184  1.00  0.00    -0.398 OA
HETATM   13  H   UNL     1      -4.550   2.337  -1.273  1.00  0.00     0.209 HD
ENDBRANCH  11  12
ENDBRANCH   5  11
TORSDOF 2
