REMARK  2 active torsions:
REMARK  status: ('A' for Active; 'I' for Inactive)
REMARK       I    between atoms: C_1  and  N_2 
REMARK       I    between atoms: C_1  and  N_6 
REMARK    1  A    between atoms: C_7  and  C_10 
REMARK    2  A    between atoms: C_7  and  C_11 
ROOT
HETATM    1  C   UNL     1       1.150   0.114  -0.655  1.00  0.00     0.667 C 
HETATM    2  N   UNL     1       0.315  -0.944  -1.171  1.00  0.00    -0.219 N 
HETATM    3  N   UNL     1       2.420  -0.048  -0.501  1.00  0.00    -0.235 N 
HETATM    4  C   UNL     1       0.657  -2.359  -1.032  1.00  0.00     0.141 C 
HETATM    5  C   UNL     1      -0.937  -0.656  -1.859  1.00  0.00     0.141 C 
HETATM    6  N   UNL     1       0.598   1.380  -0.312  1.00  0.00    -0.235 N 
HETATM    7  C   UNL     1      -2.092  -1.336  -1.129  1.00  0.00     0.025 C 
HETATM    8  C   UNL     1      -0.487  -3.090  -0.306  1.00  0.00     0.025 C 
HETATM    9  C   UNL     1      -1.827  -2.856  -1.035  1.00  0.00    -0.007 C 
HETATM   10  H   UNL     1       2.838  -0.911  -0.728  1.00  0.00     0.174 HD
HETATM   11  H   UNL     1       2.973   0.691  -0.157  1.00  0.00     0.174 HD
HETATM   12  H   UNL     1      -0.368   1.541  -0.417  1.00  0.00     0.174 HD
HETATM   13  H   UNL     1       1.182   2.095   0.029  1.00  0.00     0.174 HD
ENDROOT
BRANCH   9  14
HETATM   14  C   UNL     1      -2.986  -3.581  -0.313  1.00  0.00     0.043 C 
BRANCH  14  15
HETATM   15  C   UNL     1      -4.304  -3.389  -1.032  1.00  0.00    -0.058 A 
HETATM   16  C   UNL     1      -4.471  -3.851  -2.350  1.00  0.00     0.007 A 
HETATM   17  C   UNL     1      -5.682  -3.652  -3.020  1.00  0.00     0.001 A 
HETATM   18  C   UNL     1      -6.736  -2.996  -2.382  1.00  0.00     0.000 A 
HETATM   19  C   UNL     1      -6.584  -2.538  -1.071  1.00  0.00     0.001 A 
HETATM   20  C   UNL     1      -5.374  -2.733  -0.397  1.00  0.00     0.007 A 
ENDBRANCH  14  15
ENDBRANCH   9  14
TORSDOF 2
