REMARK  2 active torsions:
REMARK  status: ('A' for Active; 'I' for Inactive)
REMARK    1  A    between atoms: C_3  and  C_8 
REMARK    2  A    between atoms: C_4  and  N_9 
ROOT
HETATM    1  N   UNL     1      -0.172  -0.893  -0.468  1.00  0.00    -0.183 N 
ATOM      2  HN  UNL     1      -0.332  -1.788  -0.931  1.00  0.00     0.185 HD
HETATM    3  C   UNL     1       0.970  -0.493   0.062  1.00  0.00     0.117 A 
HETATM    4  C   UNL     1      -1.112   0.100  -0.291  1.00  0.00     0.683 A 
HETATM    5  N   UNL     1      -0.787   1.221   0.343  1.00  0.00    -0.159 N 
ATOM      6  HN  UNL     1      -1.403   2.008   0.548  1.00  0.00     0.193 HD
HETATM    7  S   UNL     1       0.823   1.088   0.737  1.00  0.00     0.021 SA
ENDROOT
BRANCH   3   8
HETATM    8  C   UNL     1       2.250  -1.214   0.038  1.00  0.00    -0.000 A 
HETATM    9  C   UNL     1       2.522  -2.109  -1.009  1.00  0.00     0.014 A 
HETATM   10  C   UNL     1       3.760  -2.753  -1.099  1.00  0.00     0.001 A 
HETATM   11  C   UNL     1       4.738  -2.526  -0.134  1.00  0.00     0.000 A 
HETATM   12  C   UNL     1       4.473  -1.673   0.933  1.00  0.00     0.001 A 
HETATM   13  C   UNL     1       3.236  -1.027   1.022  1.00  0.00     0.014 A 
ENDBRANCH   3   8
BRANCH   4  14
HETATM   14  N   UNL     1      -2.338  -0.155  -0.761  1.00  0.00    -0.234 N 
HETATM   15  H   UNL     1      -2.520  -1.005  -1.224  1.00  0.00     0.174 HD
HETATM   16  H   UNL     1      -3.057   0.506  -0.645  1.00  0.00     0.174 HD
ENDBRANCH   4  14
TORSDOF 2
