REMARK  2 active torsions:
REMARK  status: ('A' for Active; 'I' for Inactive)
REMARK    1  A    between atoms: C_1  and  C_5 
REMARK    2  A    between atoms: C_2  and  C_4 
ROOT
HETATM    1  C   UNL     1       5.046   2.987   0.137  1.00  0.00     0.040 A 
HETATM    2  C   UNL     1       2.647   1.517   0.028  1.00  0.00    -0.025 A 
HETATM    3  C   UNL     1       4.812   2.099  -0.917  1.00  0.00     0.019 A 
HETATM    4  C   UNL     1       4.077   3.148   1.133  1.00  0.00     0.019 A 
HETATM    5  C   UNL     1       3.617   1.379  -0.976  1.00  0.00     0.013 A 
HETATM    6  C   UNL     1       2.884   2.418   1.076  1.00  0.00     0.013 A 
ENDROOT
BRANCH   2   7
HETATM    7  C   UNL     1       1.416   0.730  -0.004  1.00  0.00    -0.019 A 
HETATM    8  C   UNL     1       1.382  -0.557  -0.512  1.00  0.00     0.061 A 
HETATM    9  S   UNL     1      -0.170  -1.270  -0.420  1.00  0.00    -0.113 SA
HETATM   10  C   UNL     1      -0.822   0.127   0.315  1.00  0.00     0.050 A 
HETATM   11  C   UNL     1       0.124   1.113   0.484  1.00  0.00     0.020 A 
ENDBRANCH   2   7
BRANCH   1  12
HETATM   12  C   UNL     1       6.328   3.730   0.154  1.00  0.00     0.209 C 
HETATM   13  O   UNL     1       7.219   3.630  -0.668  1.00  0.00    -0.644 OA
HETATM   14  O   UNL     1       6.432   4.569   1.199  1.00  0.00    -0.644 OA
ENDBRANCH   1  12
TORSDOF 2
