REMARK  1 active torsions:
REMARK  status: ('A' for Active; 'I' for Inactive)
REMARK    1  A    between atoms: C_2  and  N_10 
ROOT
HETATM    1  C   UNL     1       0.238  -0.680  -0.000  1.00  0.00     0.093 A 
HETATM    2  C   UNL     1       1.606  -1.106   0.000  1.00  0.00     0.062 A 
HETATM    3  C   UNL     1       0.148   0.711  -0.002  1.00  0.00     0.103 A 
HETATM    4  S   UNL     1       1.674   1.465  -0.003  1.00  0.00    -0.080 SA
HETATM    5  C   UNL     1       2.486  -0.048  -0.001  1.00  0.00     0.083 A 
HETATM    6  N   UNL     1      -0.882  -1.471   0.001  1.00  0.00    -0.361 N 
ATOM      7  HN  UNL     1      -0.849  -2.490   0.002  1.00  0.00     0.165 HD
HETATM    8  N   UNL     1      -1.005   1.423  -0.003  1.00  0.00    -0.357 N 
ATOM      9  HN  UNL     1      -1.047   2.442  -0.004  1.00  0.00     0.166 HD
HETATM   10  C   UNL     1      -2.033  -0.764   0.000  1.00  0.00     0.105 A 
HETATM   11  C   UNL     1      -2.091   0.621  -0.002  1.00  0.00     0.106 A 
ENDROOT
BRANCH   2  12
HETATM   12  N   UNL     1       1.997  -2.398   0.002  1.00  0.00    -0.397 N 
HETATM   13  H   UNL     1       1.324  -3.116   0.003  1.00  0.00     0.156 HD
HETATM   14  H   UNL     1       2.956  -2.622   0.003  1.00  0.00     0.156 HD
ENDBRANCH   2  12
TORSDOF 1
