REMARK  0 active torsions:
REMARK  status: ('A' for Active; 'I' for Inactive)
ROOT
HETATM    1  N   UNL     1       1.205   0.134  -0.450  1.00  0.00    -0.190 NA
HETATM    2  C   UNL     1       3.779   0.012  -0.133  1.00  0.00     0.152 A 
HETATM    3  C   UNL     1       2.358   0.086  -0.311  1.00  0.00     0.121 C 
HETATM    4  N   UNL     1       4.436   1.201  -0.042  1.00  0.00    -0.355 N 
ATOM      5  HN  UNL     1       3.943   2.092  -0.108  1.00  0.00     0.166 HD
HETATM    6  C   UNL     1       4.417  -1.216  -0.051  1.00  0.00     0.153 A 
HETATM    7  F   UNL     1       3.740  -2.368  -0.147  1.00  0.00    -0.203 F 
HETATM    8  C   UNL     1       5.775   1.142   0.141  1.00  0.00     0.089 A 
HETATM    9  C   UNL     1       5.793  -1.246   0.139  1.00  0.00     0.047 A 
HETATM   10  C   UNL     1       6.489  -0.044   0.239  1.00  0.00     0.020 A 
ENDROOT
TORSDOF 0
