REMARK  2 active torsions:
REMARK  status: ('A' for Active; 'I' for Inactive)
REMARK    1  A    between atoms: N_1  and  C_7 
REMARK    2  A    between atoms: C_7  and  C_11 
ROOT
HETATM    1  N   UNL     1       1.427  -0.211  -1.557  1.00  0.00    -0.058 N 
HETATM    2  C   UNL     1       1.141  -1.295  -2.511  1.00  0.00     0.196 C 
HETATM    3  C   UNL     1       0.157  -0.066  -0.830  1.00  0.00     0.196 C 
HETATM    4  C   UNL     1      -0.863   0.096  -3.121  1.00  0.00     0.131 C 
HETATM    5  C   UNL     1       0.350  -0.643  -3.652  1.00  0.00     0.111 C 
HETATM    6  C   UNL     1      -0.762   0.744  -1.752  1.00  0.00     0.111 C 
HETATM    7  C   UNL     1      -0.374  -1.488  -0.632  1.00  0.00     0.036 C 
HETATM    8  C   UNL     1       0.290  -2.305  -1.736  1.00  0.00     0.036 C 
HETATM    9  O   UNL     1      -1.861   0.255  -3.820  1.00  0.00    -0.298 OA
HETATM   10  H   UNL     1       1.707   0.653  -2.022  1.00  0.00     0.281 HD
ENDROOT
BRANCH   1  11
HETATM   11  C   UNL     1       2.600  -0.440  -0.705  1.00  0.00     0.274 C 
BRANCH  11  12
HETATM   12  C   UNL     1       3.926  -0.284  -1.439  1.00  0.00    -0.033 A 
HETATM   13  C   UNL     1       4.061   0.525  -2.580  1.00  0.00     0.009 A 
HETATM   14  C   UNL     1       5.289   0.650  -3.235  1.00  0.00     0.001 A 
HETATM   15  C   UNL     1       6.413  -0.006  -2.739  1.00  0.00     0.000 A 
HETATM   16  C   UNL     1       6.309  -0.774  -1.581  1.00  0.00     0.001 A 
HETATM   17  C   UNL     1       5.077  -0.908  -0.932  1.00  0.00     0.009 A 
ENDBRANCH  11  12
ENDBRANCH   1  11
TORSDOF 2
