REMARK  1 active torsions:
REMARK  status: ('A' for Active; 'I' for Inactive)
REMARK       I    between atoms: C_1  and  N_2 
REMARK    1  A    between atoms: C_1  and  C_4 
ROOT
HETATM    1  C   UNL     1       2.571   0.001  -0.039  1.00  0.00     0.082 C 
HETATM    2  O   UNL     1       4.981  -0.012  -1.607  1.00  0.00    -0.391 OA
HETATM    3  C   UNL     1       4.608   1.181  -0.921  1.00  0.00     0.168 C 
HETATM    4  C   UNL     1       4.598  -1.190  -0.901  1.00  0.00     0.168 C 
HETATM    5  C   UNL     1       3.100   1.257  -0.743  1.00  0.00     0.040 C 
HETATM    6  C   UNL     1       3.086  -1.256  -0.742  1.00  0.00     0.040 C 
ENDROOT
BRANCH   1   7
HETATM    7  C   UNL     1       1.039   0.018  -0.034  1.00  0.00     0.223 C 
HETATM    8  N   UNL     1       0.383  -0.621   1.012  1.00  0.00    -0.360 N 
HETATM    9  C   UNL     1      -1.073  -0.628   1.033  1.00  0.00     0.152 C 
HETATM   10  C   UNL     1       1.054  -1.266   2.127  1.00  0.00     0.152 C 
HETATM   11  O   UNL     1       0.422   0.550  -0.955  1.00  0.00    -0.273 OA
ENDBRANCH   1   7
TORSDOF 1
