REMARK  1 active torsions:
REMARK  status: ('A' for Active; 'I' for Inactive)
REMARK    1  A    between atoms: C_1  and  C_7 
REMARK       I    between atoms: C_7  and  N_9 
ROOT
HETATM    1  C   UNL     1      -1.684  -0.439   0.014  1.00  0.00     0.117 A 
HETATM    2  N   UNL     1      -1.180   0.814   0.026  1.00  0.00    -0.294 N 
ATOM      3  HN  UNL     1      -1.693   1.696   0.038  1.00  0.00     0.187 HD
HETATM    4  N   UNL     1       0.161   0.632   0.019  1.00  0.00    -0.301 N 
HETATM    5  C   UNL     1      -0.641  -1.399   0.003  1.00  0.00     0.063 A 
HETATM    6  C   UNL     1       0.540  -0.686   0.005  1.00  0.00     0.026 A 
HETATM    7  C   UNL     1       1.035   1.783   0.025  1.00  0.00     0.177 C 
HETATM    8  C   UNL     1       1.942  -1.171  -0.003  1.00  0.00     0.070 C 
ENDROOT
BRANCH   1   9
HETATM    9  C   UNL     1      -3.132  -0.728   0.014  1.00  0.00     0.269 C 
HETATM   10  O   UNL     1      -3.571  -1.876  -0.001  1.00  0.00    -0.266 OA
HETATM   11  N   UNL     1      -3.935   0.392   0.031  1.00  0.00    -0.360 N 
HETATM   12  C   UNL     1      -5.374   0.335   0.033  1.00  0.00     0.149 C 
HETATM   13  H   UNL     1      -3.502   1.276   0.043  1.00  0.00     0.162 HD
ENDBRANCH   1   9
TORSDOF 1
