REMARK  1 active torsions:
REMARK  status: ('A' for Active; 'I' for Inactive)
REMARK    1  A    between atoms: C_1  and  C_2 
REMARK       I    between atoms: C_1  and  N_4 
ROOT
HETATM    1  C   UNL     1       0.981   0.061   0.090  1.00  0.00     0.270 C 
HETATM    2  N   UNL     1       0.215   1.207   0.320  1.00  0.00    -0.343 N 
HETATM    3  O   UNL     1       2.199   0.081   0.277  1.00  0.00    -0.266 OA
HETATM    4  O   UNL     1      -1.130   2.926   2.163  1.00  0.00    -0.388 OA
HETATM    5  C   UNL     1      -1.250   1.305   0.333  1.00  0.00     0.152 C 
HETATM    6  C   UNL     1       0.868   2.412   0.840  1.00  0.00     0.152 C 
HETATM    7  C   UNL     1       0.298   2.771   2.220  1.00  0.00     0.187 C 
HETATM    8  C   UNL     1      -1.753   1.712   1.720  1.00  0.00     0.187 C 
ENDROOT
BRANCH   1   9
HETATM    9  C   UNL     1       0.310  -1.162  -0.331  1.00  0.00     0.102 A 
HETATM   10  N   UNL     1       0.637  -2.434   0.107  1.00  0.00    -0.357 N 
HETATM   11  C   UNL     1      -0.236  -3.353  -0.423  1.00  0.00     0.091 A 
HETATM   12  C   UNL     1       1.704  -2.809   1.011  1.00  0.00     0.156 C 
HETATM   13  C   UNL     1      -1.085  -2.696  -1.277  1.00  0.00     0.020 A 
HETATM   14  C   UNL     1      -0.699  -1.338  -1.273  1.00  0.00     0.037 A 
ENDBRANCH   1   9
TORSDOF 1
