REMARK  2 active torsions:
REMARK  status: ('A' for Active; 'I' for Inactive)
REMARK    1  A    between atoms: C_1  and  S_2 
REMARK    2  A    between atoms: S_2  and  N_8 
ROOT
HETATM    1  C   UNL     1       1.766   0.093  -0.002  1.00  0.00     0.161 A 
HETATM    2  N   UNL     1       1.004  -1.066   0.033  1.00  0.00    -0.335 N 
ATOM      3  HN  UNL     1       1.347  -2.026   0.068  1.00  0.00     0.168 HD
HETATM    4  C   UNL     1       0.946   1.200  -0.029  1.00  0.00     0.135 A 
HETATM    5  C   UNL     1      -0.254  -0.672   0.012  1.00  0.00     0.079 A 
HETATM    6  N   UNL     1      -0.327   0.702  -0.006  1.00  0.00    -0.348 N 
HETATM    7  C   UNL     1      -1.530   1.498   0.004  1.00  0.00     0.156 C 
HETATM    8  C   UNL     1      -1.431  -1.580  -0.002  1.00  0.00     0.089 C 
ENDROOT
BRANCH   1   9
HETATM    9  S   UNL     1       3.516   0.105  -0.025  1.00  0.00     0.260 S 
HETATM   10  O   UNL     1       3.842   0.633  -1.332  1.00  0.00    -0.204 OA
HETATM   11  O   UNL     1       3.875   0.813   1.189  1.00  0.00    -0.204 OA
BRANCH   9  12
HETATM   12  N   UNL     1       4.096  -1.502   0.080  1.00  0.00    -0.213 NA
HETATM   13  C   UNL     1       3.890  -2.140   1.392  1.00  0.00     0.129 C 
HETATM   14  C   UNL     1       3.702  -2.374  -1.046  1.00  0.00     0.129 C 
ENDBRANCH   9  12
ENDBRANCH   1   9
TORSDOF 2
