REMARK  1 active torsions:
REMARK  status: ('A' for Active; 'I' for Inactive)
REMARK    1  A    between atoms: C_1  and  C_2 
REMARK       I    between atoms: C_2  and  N_3 
ROOT
HETATM    1  C   UNL     1      -1.432   2.323   0.078  1.00  0.00     0.279 C 
HETATM    2  N   UNL     1      -0.613   3.442  -0.018  1.00  0.00    -0.346 N 
HETATM    3  O   UNL     1      -2.349   2.303   0.904  1.00  0.00    -0.265 OA
HETATM    4  C   UNL     1       0.347   3.788  -1.051  1.00  0.00     0.126 C 
HETATM    5  C   UNL     1      -0.814   4.568   0.881  1.00  0.00     0.126 C 
HETATM    6  C   UNL     1       0.274   5.578   0.524  1.00  0.00     0.021 C 
HETATM    7  C   UNL     1       1.240   4.803  -0.362  1.00  0.00     0.021 C 
ENDROOT
BRANCH   1   8
HETATM    8  C   UNL     1      -1.208   1.192  -0.796  1.00  0.00     0.167 A 
HETATM    9  O   UNL     1       0.023   0.949  -1.327  1.00  0.00    -0.233 OA
HETATM   10  N   UNL     1      -0.012  -0.190  -2.110  1.00  0.00    -0.272 N 
HETATM   11  C   UNL     1      -1.261  -0.646  -2.006  1.00  0.00     0.117 A 
ATOM     12  HN  UNL     1       0.753  -0.594  -2.651  1.00  0.00     0.194 HD
HETATM   13  C   UNL     1      -2.051   0.172  -1.182  1.00  0.00     0.064 A 
ENDBRANCH   1   8
TORSDOF 1
