REMARK  2 active torsions:
REMARK  status: ('A' for Active; 'I' for Inactive)
REMARK    1  A    between atoms: C_3  and  N_5 
REMARK    2  A    between atoms: C_4  and  O_6 
ROOT
HETATM    1  N   UNL     1       0.364   1.113   0.088  1.00  0.00    -0.324 N 
ATOM      2  HN  UNL     1       0.941   1.954   0.117  1.00  0.00     0.169 HD
HETATM    3  C   UNL     1       0.910  -0.112   0.127  1.00  0.00     0.100 A 
HETATM    4  C   UNL     1      -0.983   1.184   0.008  1.00  0.00     0.143 A 
HETATM    5  C   UNL     1      -1.228  -1.181   0.019  1.00  0.00     0.008 A 
HETATM    6  C   UNL     1       0.158  -1.278   0.102  1.00  0.00     0.048 A 
HETATM    7  C   UNL     1      -1.815   0.077  -0.030  1.00  0.00     0.056 A 
ENDROOT
BRANCH   3   8
HETATM    8  N   UNL     1       2.298  -0.164   0.228  1.00  0.00    -0.385 N 
HETATM    9  H   UNL     1       2.822   0.669   0.244  1.00  0.00     0.157 HD
HETATM   10  H   UNL     1       2.756  -1.035   0.282  1.00  0.00     0.157 HD
ENDBRANCH   3   8
BRANCH   4  11
HETATM   11  O   UNL     1      -1.601   2.418  -0.052  1.00  0.00    -0.341 OA
HETATM   12  C   UNL     1      -0.674   3.499   0.014  1.00  0.00     0.211 C 
ENDBRANCH   4  11
TORSDOF 2
