REMARK  1 active torsions:
REMARK  status: ('A' for Active; 'I' for Inactive)
REMARK    1  A    between atoms: C_2  and  C_4 
REMARK       I    between atoms: C_4  and  N_9 
ROOT
HETATM    1  C   UNL     1      -0.313  -0.634   0.036  1.00  0.00     0.092 A 
HETATM    2  C   UNL     1      -1.438  -1.447   0.006  1.00  0.00     0.065 A 
HETATM    3  O   UNL     1       0.980  -1.089   0.072  1.00  0.00    -0.339 OA
HETATM    4  C   UNL     1      -0.406   0.750   0.041  1.00  0.00    -0.021 A 
HETATM    5  C   UNL     1       1.823   0.089  -0.013  1.00  0.00     0.064 C 
HETATM    6  C   UNL     1       0.945   1.354   0.110  1.00  0.00     0.079 C 
HETATM    7  C   UNL     1      -2.690  -0.814  -0.028  1.00  0.00     0.020 A 
HETATM    8  C   UNL     1      -1.639   1.381   0.013  1.00  0.00     0.010 A 
HETATM    9  C   UNL     1      -2.788   0.588  -0.026  1.00  0.00     0.002 A 
HETATM   10  C   UNL     1       2.540   0.028  -1.364  1.00  0.00     0.046 C 
HETATM   11  C   UNL     1       2.828  -0.021   1.134  1.00  0.00     0.046 C 
ENDROOT
BRANCH   2  12
HETATM   12  C   UNL     1      -1.375  -2.933   0.005  1.00  0.00     0.252 C 
HETATM   13  O   UNL     1      -2.392  -3.619  -0.025  1.00  0.00    -0.268 OA
HETATM   14  N   UNL     1      -0.142  -3.516   0.037  1.00  0.00    -0.366 N 
HETATM   15  H   UNL     1       0.667  -2.956   0.061  1.00  0.00     0.159 HD
HETATM   16  H   UNL     1      -0.062  -4.497   0.038  1.00  0.00     0.159 HD
ENDBRANCH   2  12
TORSDOF 1
