REMARK  1 active torsions:
REMARK  status: ('A' for Active; 'I' for Inactive)
REMARK    1  A    between atoms: C_1  and  C_4 
REMARK       I    between atoms: C_4  and  N_7 
ROOT
HETATM    1  C   UNL     1       1.999   0.885   0.023  1.00  0.00     0.150 A 
HETATM    2  O   UNL     1       0.852   1.639   0.020  1.00  0.00    -0.304 OA
HETATM    3  C   UNL     1       1.650  -0.468   0.018  1.00  0.00    -0.009 A 
HETATM    4  C   UNL     1       0.221  -0.520   0.006  1.00  0.00     0.007 A 
HETATM    5  C   UNL     1      -0.212   0.795   0.015  1.00  0.00     0.087 A 
HETATM    6  C   UNL     1       2.542  -1.658   0.033  1.00  0.00     0.052 C 
HETATM    7  C   UNL     1      -0.743  -1.546  -0.006  1.00  0.00     0.015 A 
HETATM    8  C   UNL     1      -1.553   1.174   0.020  1.00  0.00     0.038 A 
HETATM    9  C   UNL     1      -2.101  -1.199  -0.001  1.00  0.00     0.001 A 
HETATM   10  C   UNL     1      -2.498   0.140   0.015  1.00  0.00     0.003 A 
ENDROOT
BRANCH   1  11
HETATM   11  C   UNL     1       3.323   1.514   0.031  1.00  0.00     0.277 C 
HETATM   12  N   UNL     1       3.470   2.911   0.039  1.00  0.00    -0.355 N 
HETATM   13  C   UNL     1       4.812   3.474   0.047  1.00  0.00     0.152 C 
HETATM   14  C   UNL     1       2.376   3.865   0.041  1.00  0.00     0.152 C 
HETATM   15  O   UNL     1       4.341   0.814   0.030  1.00  0.00    -0.265 OA
ENDBRANCH   1  11
TORSDOF 1
