REMARK  2 active torsions:
REMARK  status: ('A' for Active; 'I' for Inactive)
REMARK    1  A    between atoms: S_1  and  C_2 
REMARK    2  A    between atoms: S_1  and  N_5 
ROOT
HETATM    1  S   UNL     1       1.055   0.112  -0.046  1.00  0.00     0.260 S 
HETATM    2  O   UNL     1       0.638   1.189  -0.922  1.00  0.00    -0.204 OA
HETATM    3  O   UNL     1       0.625   0.055   1.335  1.00  0.00    -0.204 OA
ENDROOT
BRANCH   1   4
HETATM    4  C   UNL     1       2.791   0.317   0.064  1.00  0.00     0.160 A 
HETATM    5  N   UNL     1       3.715  -0.575  -0.466  1.00  0.00    -0.341 N 
HETATM    6  C   UNL     1       4.890  -0.064  -0.175  1.00  0.00     0.183 A 
ATOM      7  HN  UNL     1       3.523  -1.440  -0.972  1.00  0.00     0.167 HD
HETATM    8  N   UNL     1       4.770   1.101   0.528  1.00  0.00    -0.354 N 
HETATM    9  C   UNL     1       3.441   1.370   0.680  1.00  0.00     0.134 A 
HETATM   10  C   UNL     1       5.854   1.900   1.042  1.00  0.00     0.156 C 
ENDBRANCH   1   4
BRANCH   1  11
HETATM   11  N   UNL     1       0.687  -1.385  -0.802  1.00  0.00    -0.205 NA
HETATM   12  C   UNL     1       1.036  -2.575   0.016  1.00  0.00     0.107 C 
HETATM   13  C   UNL     1       0.478  -3.841  -0.630  1.00  0.00     0.015 C 
HETATM   14  C   UNL     1       0.960  -3.984  -2.068  1.00  0.00     0.002 C 
HETATM   15  C   UNL     1       0.597  -2.739  -2.869  1.00  0.00     0.015 C 
HETATM   16  C   UNL     1       1.153  -1.480  -2.211  1.00  0.00     0.107 C 
ENDBRANCH   1  11
TORSDOF 2
