REMARK  2 active torsions:
REMARK  status: ('A' for Active; 'I' for Inactive)
REMARK    1  A    between atoms: C_4  and  N_15 
REMARK    2  A    between atoms: C_5  and  C_8 
ROOT
HETATM    1  C   UNL     1      -0.067   0.523  -0.007  1.00  0.00     0.046 A 
HETATM    2  N   UNL     1      -1.931  -0.785   0.003  1.00  0.00    -0.244 N 
ATOM      3  HN  UNL     1      -2.904  -1.091   0.005  1.00  0.00     0.196 HD
HETATM    4  C   UNL     1      -1.482   0.472  -0.009  1.00  0.00     0.132 A 
HETATM    5  C   UNL     1       0.931   1.513  -0.014  1.00  0.00     0.034 A 
HETATM    6  O   UNL     1      -0.800  -1.588   0.012  1.00  0.00    -0.235 OA
HETATM    7  C   UNL     1       2.286   1.123  -0.010  1.00  0.00     0.049 A 
HETATM    8  C   UNL     1       0.313  -0.806   0.005  1.00  0.00     0.113 A 
HETATM    9  C   UNL     1       2.619  -0.246   0.002  1.00  0.00     0.019 A 
HETATM   10  C   UNL     1       1.634  -1.244   0.010  1.00  0.00     0.041 A 
ENDROOT
BRANCH   7  11
HETATM   11  C   UNL     1       3.375   2.171  -0.019  1.00  0.00     0.417 C 
HETATM   12  F   UNL     1       2.895   3.447  -0.031  1.00  0.00    -0.166 F 
HETATM   13  F   UNL     1       4.186   2.090   1.070  1.00  0.00    -0.166 F 
HETATM   14  F   UNL     1       4.189   2.070  -1.105  1.00  0.00    -0.166 F 
ENDBRANCH   7  11
BRANCH   4  15
HETATM   15  N   UNL     1      -2.264   1.564  -0.025  1.00  0.00    -0.383 N 
HETATM   16  H   UNL     1      -3.244   1.467  -0.026  1.00  0.00     0.157 HD
HETATM   17  H   UNL     1      -1.858   2.461  -0.035  1.00  0.00     0.157 HD
ENDBRANCH   4  15
TORSDOF 2
