REMARK  2 active torsions:
REMARK  status: ('A' for Active; 'I' for Inactive)
REMARK    1  A    between atoms: S_1  and  C_2 
REMARK    2  A    between atoms: S_1  and  N_3 
ROOT
HETATM    1  S   UNL     1       1.005   0.097   0.093  1.00  0.00     0.260 S 
HETATM    2  O   UNL     1       0.318  -0.412   1.260  1.00  0.00    -0.200 OA
HETATM    3  O   UNL     1       2.447   0.190   0.032  1.00  0.00    -0.200 OA
ENDROOT
BRANCH   1   4
HETATM    4  C   UNL     1       0.466   1.746  -0.030  1.00  0.00     0.086 A 
HETATM    5  C   UNL     1      -0.784   2.219   0.474  1.00  0.00     0.033 A 
HETATM    6  C   UNL     1      -0.968   3.561   0.213  1.00  0.00     0.051 A 
HETATM    7  S   UNL     1       0.360   4.241  -0.626  1.00  0.00    -0.112 SA
HETATM    8  C   UNL     1       1.194   2.747  -0.637  1.00  0.00     0.074 A 
ENDBRANCH   1   4
BRANCH   1   9
HETATM    9  N   UNL     1       0.454  -0.742  -1.278  1.00  0.00    -0.315 N 
HETATM   10  C   UNL     1      -0.996  -0.974  -1.373  1.00  0.00     0.162 C 
HETATM   11  C   UNL     1       1.073  -0.368  -2.561  1.00  0.00     0.162 C 
ENDBRANCH   1   9
TORSDOF 2
