REMARK  3 active torsions:
REMARK  status: ('A' for Active; 'I' for Inactive)
REMARK    1  A    between atoms: S_1  and  C_4 
REMARK    2  A    between atoms: S_1  and  C_5 
REMARK    3  A    between atoms: C_3  and  C_5 
ROOT
HETATM    1  C   UNL     1       0.483   1.703  -0.389  1.00  0.00     0.001 A 
HETATM    2  C   UNL     1      -0.326   4.325  -1.033  1.00  0.00    -0.062 A 
HETATM    3  C   UNL     1       1.206   2.801   0.084  1.00  0.00     0.019 A 
HETATM    4  C   UNL     1      -0.637   1.923  -1.195  1.00  0.00     0.019 A 
HETATM    5  C   UNL     1       0.803   4.103  -0.234  1.00  0.00     0.008 A 
HETATM    6  C   UNL     1      -1.044   3.224  -1.509  1.00  0.00     0.008 A 
HETATM    7  C   UNL     1      -0.742   5.726  -1.376  1.00  0.00     0.048 C 
ENDROOT
BRANCH   1   8
HETATM    8  S   UNL     1       0.997   0.026  -0.066  1.00  0.00    -0.123 SA
BRANCH   8   9
HETATM    9  C   UNL     1       0.814  -0.038   1.744  1.00  0.00     0.157 C 
BRANCH   9  10
HETATM   10  C   UNL     1       1.147  -1.430   2.254  1.00  0.00     0.132 C 
HETATM   11  O   UNL     1       2.092  -1.617   3.026  1.00  0.00    -0.298 OA
HETATM   12  C   UNL     1       0.245  -2.570   1.852  1.00  0.00     0.091 C 
ENDBRANCH   9  10
ENDBRANCH   8   9
ENDBRANCH   1   8
TORSDOF 3
