REMARK  1 active torsions:
REMARK  status: ('A' for Active; 'I' for Inactive)
REMARK       I    between atoms: C_5  and  N_6 
REMARK    1  A    between atoms: N_6  and  C_8 
ROOT
HETATM    1  C   UNL     1      -0.039   0.434  -0.033  1.00  0.00     0.016 A 
HETATM    2  C   UNL     1      -0.348  -0.931  -0.014  1.00  0.00    -0.042 A 
HETATM    3  C   UNL     1       1.378   0.880  -0.131  1.00  0.00     0.160 C 
HETATM    4  C   UNL     1      -1.064   1.384   0.006  1.00  0.00     0.018 A 
HETATM    5  C   UNL     1      -1.698  -1.325  -0.008  1.00  0.00     0.037 A 
HETATM    6  C   UNL     1      -2.734  -0.386   0.003  1.00  0.00     0.035 A 
HETATM    7  O   UNL     1       1.663   2.072  -0.085  1.00  0.00    -0.292 OA
HETATM    8  C   UNL     1      -2.405   0.973   0.025  1.00  0.00     0.030 A 
HETATM    9  C   UNL     1       0.721  -1.992  -0.059  1.00  0.00     0.040 C 
HETATM   10  C   UNL     1       2.424  -0.185  -0.378  1.00  0.00     0.084 C 
HETATM   11  C   UNL     1       2.081  -1.459   0.377  1.00  0.00     0.012 C 
ENDROOT
BRANCH   6  12
HETATM   12  N   UNL     1      -4.106  -0.734  -0.018  1.00  0.00    -0.328 N 
HETATM   13  C   UNL     1      -4.638  -2.012  -0.074  1.00  0.00     0.218 C 
HETATM   14  O   UNL     1      -4.015  -3.070  -0.100  1.00  0.00    -0.274 OA
HETATM   15  C   UNL     1      -6.145  -2.018  -0.109  1.00  0.00     0.117 C 
HETATM   16  H   UNL     1      -4.749   0.010   0.011  1.00  0.00     0.169 HD
ENDBRANCH   6  12
TORSDOF 1
