REMARK  1 active torsions:
REMARK  status: ('A' for Active; 'I' for Inactive)
REMARK    1  A    between atoms: C_1  and  N_2 
ROOT
HETATM    1  N   UNL     1       0.366   1.270   0.496  1.00  0.00    -0.354 N 
HETATM    2  O   UNL     1      -0.251   3.627   1.989  1.00  0.00    -0.388 OA
HETATM    3  C   UNL     1       0.813   2.597   0.042  1.00  0.00     0.151 C 
HETATM    4  C   UNL     1      -0.858   1.344   1.311  1.00  0.00     0.151 C 
HETATM    5  C   UNL     1       0.970   3.541   1.235  1.00  0.00     0.187 C 
HETATM    6  C   UNL     1      -0.648   2.330   2.467  1.00  0.00     0.187 C 
ENDROOT
BRANCH   1   7
HETATM    7  C   UNL     1       0.924   0.087   0.066  1.00  0.00     0.167 C 
HETATM    8  S   UNL     1       0.202  -1.415   0.037  1.00  0.00    -0.041 SA
HETATM    9  N   UNL     1       2.210   0.173  -0.366  1.00  0.00    -0.376 N 
HETATM   10  H   UNL     1       2.673   1.042  -0.365  1.00  0.00     0.158 HD
HETATM   11  H   UNL     1       2.679  -0.634  -0.681  1.00  0.00     0.158 HD
ENDBRANCH   1   7
TORSDOF 1
