REMARK  1 active torsions:
REMARK  status: ('A' for Active; 'I' for Inactive)
REMARK    1  A    between atoms: C_8  and  O_9 
ROOT
HETATM    1  C   UNL     1      -0.711   1.252   0.000  1.00  0.00     0.056 A 
HETATM    2  C   UNL     1      -1.423   0.029  -0.002  1.00  0.00    -0.038 A 
HETATM    3  C   UNL     1       0.702   1.248   0.001  1.00  0.00    -0.038 A 
HETATM    4  N   UNL     1      -2.005   3.508   0.002  1.00  0.00    -0.191 NA
HETATM    5  C   UNL     1      -1.426   2.501   0.001  1.00  0.00     0.100 C 
HETATM    6  C   UNL     1       1.383   0.019   0.001  1.00  0.00     0.044 A 
HETATM    7  C   UNL     1      -0.710  -1.184  -0.001  1.00  0.00     0.044 A 
HETATM    8  C   UNL     1       0.679  -1.177   0.001  1.00  0.00     0.066 A 
HETATM    9  C   UNL     1       1.537   2.502   0.004  1.00  0.00     0.050 C 
HETATM   10  C   UNL     1      -2.929  -0.048  -0.007  1.00  0.00     0.050 C 
ENDROOT
BRANCH   8  11
HETATM   11  O   UNL     1       1.400  -2.333   0.002  1.00  0.00    -0.361 OA
HETATM   12  H   UNL     1       0.959  -3.160   0.002  1.00  0.00     0.217 HD
ENDBRANCH   8  11
TORSDOF 1
