REMARK  3 active torsions:
REMARK  status: ('A' for Active; 'I' for Inactive)
REMARK    1  A    between atoms: C_1  and  C_4 
REMARK    2  A    between atoms: S_2  and  C_4 
REMARK    3  A    between atoms: S_2  and  C_5 
ROOT
HETATM    1  C   UNL     1       0.201  -2.996   1.106  1.00  0.00     0.001 A 
HETATM    2  C   UNL     1      -0.224  -5.226  -0.548  1.00  0.00     0.034 A 
HETATM    3 CL   UNL     1      -0.467  -6.586  -1.572  1.00  0.00    -0.084 Cl
HETATM    4  C   UNL     1      -0.459  -2.854  -0.119  1.00  0.00     0.020 A 
HETATM    5  C   UNL     1       0.644  -4.271   1.489  1.00  0.00     0.020 A 
HETATM    6  C   UNL     1       0.429  -5.384   0.670  1.00  0.00     0.025 A 
HETATM    7  C   UNL     1      -0.671  -3.968  -0.944  1.00  0.00     0.025 A 
ENDROOT
BRANCH   1   8
HETATM    8  S   UNL     1       0.621  -1.637   2.187  1.00  0.00    -0.119 SA
BRANCH   8   9
HETATM    9  C   UNL     1      -0.747  -0.455   1.941  1.00  0.00     0.192 C 
BRANCH   9  10
HETATM   10  C   UNL     1      -0.560   0.761   2.823  1.00  0.00     0.182 C 
HETATM   11  O   UNL     1       0.479   1.255   3.226  1.00  0.00    -0.647 OA
HETATM   12  O   UNL     1      -1.734   1.370   3.106  1.00  0.00    -0.647 OA
ENDBRANCH   9  10
ENDBRANCH   8   9
ENDBRANCH   1   8
TORSDOF 3
