REMARK  1 active torsions:
REMARK  status: ('A' for Active; 'I' for Inactive)
REMARK    1  A    between atoms: C_3  and  C_7 
ROOT
HETATM    1  N   UNL     1       0.141   0.713   0.845  1.00  0.00    -0.261 N 
ATOM      2  HN  UNL     1       0.197   1.360   1.632  1.00  0.00     0.194 HD
HETATM    3  C   UNL     1       0.994   0.614  -0.124  1.00  0.00     0.052 A 
HETATM    4  C   UNL     1       0.625  -0.410  -1.130  1.00  0.00     0.173 A 
HETATM    5  O   UNL     1      -0.893  -0.245   0.615  1.00  0.00    -0.199 OA
HETATM    6  C   UNL     1      -0.623  -0.950  -0.533  1.00  0.00     0.286 A 
HETATM    7  O   UNL     1      -1.299  -1.861  -0.985  1.00  0.00    -0.263 OA
ENDROOT
BRANCH   3   8
HETATM    8  C   UNL     1       2.228   1.420  -0.232  1.00  0.00    -0.011 A 
HETATM    9  C   UNL     1       2.541   2.333   0.782  1.00  0.00     0.013 A 
HETATM   10  C   UNL     1       3.719   3.079   0.713  1.00  0.00     0.001 A 
HETATM   11  C   UNL     1       4.586   2.918  -0.367  1.00  0.00     0.000 A 
HETATM   12  C   UNL     1       4.274   2.016  -1.383  1.00  0.00     0.001 A 
HETATM   13  C   UNL     1       3.097   1.267  -1.319  1.00  0.00     0.013 A 
ENDBRANCH   3   8
TORSDOF 1
