REMARK  1 active torsions:
REMARK  status: ('A' for Active; 'I' for Inactive)
REMARK    1  A    between atoms: C_3  and  O_7 
ROOT
HETATM    1  N   UNL     1       2.403  -0.058  -0.001  1.00  0.00    -0.238 N 
ATOM      2  HN  UNL     1       3.423  -0.051  -0.003  1.00  0.00     0.197 HD
HETATM    3  C   UNL     1       1.592  -1.111   0.001  1.00  0.00     0.173 A 
HETATM    4  C   UNL     1       0.231  -0.792   0.001  1.00  0.00     0.052 A 
HETATM    5  O   UNL     1       1.535   1.039  -0.000  1.00  0.00    -0.235 OA
HETATM    6  C   UNL     1       0.243   0.593   0.000  1.00  0.00     0.113 A 
HETATM    7  C   UNL     1      -0.996  -1.470   0.002  1.00  0.00     0.019 A 
HETATM    8  C   UNL     1      -0.906   1.380  -0.000  1.00  0.00     0.040 A 
HETATM    9  C   UNL     1      -2.172  -0.708   0.001  1.00  0.00     0.001 A 
HETATM   10  C   UNL     1      -2.126   0.691  -0.000  1.00  0.00     0.003 A 
ENDROOT
BRANCH   3  11
HETATM   11  O   UNL     1       2.169  -2.314  -0.001  1.00  0.00    -0.344 OA
HETATM   12  H   UNL     1       3.103  -2.385  -0.001  1.00  0.00     0.219 HD
ENDBRANCH   3  11
TORSDOF 1
