REMARK  4 active torsions:
REMARK  status: ('A' for Active; 'I' for Inactive)
REMARK    1  A    between atoms: N_1  and  C_4 
REMARK    2  A    between atoms: C_2  and  O_3 
REMARK    3  A    between atoms: O_3  and  C_5 
REMARK    4  A    between atoms: C_4  and  C_5 
ROOT
HETATM    1  O   UNL     1       0.196   2.504   0.613  1.00  0.00    -0.350 OA
ENDROOT
BRANCH   1   2
HETATM    2  C   UNL     1       0.455   2.497  -0.733  1.00  0.00     0.068 A 
HETATM    3  C   UNL     1       0.128   1.456  -1.605  1.00  0.00     0.037 A 
HETATM    4  C   UNL     1       0.504   1.515  -2.948  1.00  0.00     0.003 A 
HETATM    5  C   UNL     1       1.189   2.630  -3.429  1.00  0.00     0.000 A 
HETATM    6  C   UNL     1       1.472   3.694  -2.576  1.00  0.00     0.003 A 
HETATM    7  C   UNL     1       1.099   3.631  -1.232  1.00  0.00     0.037 A 
ENDBRANCH   1   2
BRANCH   1   8
HETATM    8  C   UNL     1       0.005   1.210   1.200  1.00  0.00     0.203 C 
BRANCH   8   9
HETATM    9  C   UNL     1       0.209   1.293   2.717  1.00  0.00     0.256 C 
BRANCH   9  10
HETATM   10  N   UNL     1       1.570   1.704   3.085  1.00  0.00    -0.077 N 
HETATM   11  H   UNL     1       1.651   1.742   4.101  1.00  0.00     0.274 HD
HETATM   12  H   UNL     1       1.764   2.625   2.693  1.00  0.00     0.274 HD
HETATM   13  H   UNL     1       2.240   1.029   2.716  1.00  0.00     0.274 HD
ENDBRANCH   9  10
ENDBRANCH   8   9
ENDBRANCH   1   8
TORSDOF 4
