REMARK  1 active torsions:
REMARK  status: ('A' for Active; 'I' for Inactive)
REMARK    1  A    between atoms: C_1  and  C_2 
ROOT
HETATM    1  C   UNL     1       0.649  -1.109  -1.009  1.00  0.00     0.071 A 
HETATM    2  N   UNL     1       2.223  -3.215   1.417  1.00  0.00    -0.191 NA
HETATM    3  C   UNL     1       1.663  -2.853   0.468  1.00  0.00     0.101 C 
HETATM    4  C   UNL     1       0.969  -2.441  -0.713  1.00  0.00     0.075 A 
HETATM    5  N   UNL     1      -0.077  -3.174  -2.775  1.00  0.00    -0.374 N 
ATOM      6  HN  UNL     1      -0.335  -3.926  -3.414  1.00  0.00     0.164 HD
HETATM    7  C   UNL     1       0.586  -3.422  -1.622  1.00  0.00     0.111 A 
HETATM    8  C   UNL     1      -0.045  -0.841  -2.203  1.00  0.00     0.035 A 
HETATM    9  C   UNL     1      -0.381  -1.889  -3.042  1.00  0.00     0.088 A 
ENDROOT
BRANCH   1  10
HETATM   10  C   UNL     1       1.011   0.053  -0.122  1.00  0.00     0.419 C 
HETATM   11  F   UNL     1       1.702  -0.268   0.999  1.00  0.00    -0.166 F 
HETATM   12  F   UNL     1      -0.093   0.729   0.303  1.00  0.00    -0.166 F 
HETATM   13  F   UNL     1       1.775   0.969  -0.778  1.00  0.00    -0.166 F 
ENDBRANCH   1  10
TORSDOF 1
