REMARK  3 active torsions:
REMARK  status: ('A' for Active; 'I' for Inactive)
REMARK    1  A    between atoms: C_1  and  O_2 
REMARK    2  A    between atoms: O_2  and  C_6 
REMARK    3  A    between atoms: C_7  and  N_8 
ROOT
HETATM    1  C   UNL     1       0.679  -2.419  -0.848  1.00  0.00     0.078 A 
HETATM    2  C   UNL     1       1.395  -4.810  -2.155  1.00  0.00     0.025 A 
HETATM    3  C   UNL     1       2.014  -2.668  -1.195  1.00  0.00     0.039 A 
HETATM    4  C   UNL     1      -0.293  -3.403  -1.125  1.00  0.00     0.039 A 
HETATM    5  C   UNL     1       2.371  -3.850  -1.849  1.00  0.00     0.031 A 
HETATM    6  C   UNL     1       0.066  -4.586  -1.775  1.00  0.00     0.031 A 
ENDROOT
BRANCH   1   7
HETATM    7  O   UNL     1       0.384  -1.234  -0.253  1.00  0.00    -0.255 OA
BRANCH   7   8
HETATM    8  C   UNL     1      -0.804  -0.519  -0.301  1.00  0.00     0.530 C 
HETATM    9  F   UNL     1      -1.700  -1.031  -1.222  1.00  0.00    -0.144 F 
HETATM   10  F   UNL     1      -0.516   0.779  -0.676  1.00  0.00    -0.144 F 
HETATM   11  F   UNL     1      -1.386  -0.503   0.951  1.00  0.00    -0.144 F 
ENDBRANCH   7   8
ENDBRANCH   1   7
BRANCH   2  12
HETATM   12  N   UNL     1       1.748  -5.994  -2.847  1.00  0.00    -0.399 N 
HETATM   13  H   UNL     1       2.684  -6.148  -3.113  1.00  0.00     0.156 HD
HETATM   14  H   UNL     1       1.059  -6.662  -3.063  1.00  0.00     0.156 HD
ENDBRANCH   2  12
TORSDOF 3
