REMARK  1 active torsions:
REMARK  status: ('A' for Active; 'I' for Inactive)
REMARK    1  A    between atoms: C_1  and  C_7 
ROOT
HETATM    1  C   UNL     1      -0.000  -1.616  -0.165  1.00  0.00     0.158 C 
HETATM    2  O   UNL     1      -0.002   1.306  -0.100  1.00  0.00    -0.310 OA
HETATM    3  C   UNL     1      -1.259  -0.786  -0.057  1.00  0.00    -0.005 A 
HETATM    4  C   UNL     1       1.257  -0.785  -0.056  1.00  0.00    -0.005 A 
HETATM    5  C   UNL     1      -1.182   0.608  -0.048  1.00  0.00     0.083 A 
HETATM    6  C   UNL     1       1.179   0.609  -0.050  1.00  0.00     0.083 A 
HETATM    7  C   UNL     1      -2.523  -1.398   0.012  1.00  0.00     0.011 A 
HETATM    8  C   UNL     1       2.521  -1.396   0.019  1.00  0.00     0.011 A 
HETATM    9  C   UNL     1       2.341   1.382   0.008  1.00  0.00     0.038 A 
HETATM   10  C   UNL     1      -2.345   1.380   0.012  1.00  0.00     0.038 A 
HETATM   11  C   UNL     1       3.681  -0.621   0.076  1.00  0.00     0.001 A 
HETATM   12  C   UNL     1      -3.683  -0.624   0.068  1.00  0.00     0.001 A 
HETATM   13  C   UNL     1       3.591   0.769   0.066  1.00  0.00     0.003 A 
HETATM   14  C   UNL     1      -3.595   0.766   0.065  1.00  0.00     0.003 A 
ENDROOT
BRANCH   1  15
HETATM   15  C   UNL     1       0.002  -2.416  -1.465  1.00  0.00     0.186 C 
HETATM   16  O   UNL     1      -0.050  -1.992  -2.608  1.00  0.00    -0.647 OA
HETATM   17  O   UNL     1       0.074  -3.751  -1.256  1.00  0.00    -0.647 OA
ENDBRANCH   1  15
TORSDOF 1
