REMARK  2 active torsions:
REMARK  status: ('A' for Active; 'I' for Inactive)
REMARK    1  A    between atoms: C_1  and  C_5 
REMARK    2  A    between atoms: C_5  and  C_7 
ROOT
HETATM    1  C   UNL     1      -1.600  -1.190   0.015  1.00  0.00    -0.020 A 
HETATM    2  N   UNL     1      -1.556   1.040  -0.026  1.00  0.00    -0.365 N 
HETATM    3  C   UNL     1      -2.382  -0.051  -0.028  1.00  0.00     0.097 A 
HETATM    4  C   UNL     1      -0.234  -0.753   0.009  1.00  0.00    -0.001 A 
HETATM    5  C   UNL     1      -0.241   0.642  -0.016  1.00  0.00     0.042 A 
HETATM    6  C   UNL     1       1.011  -1.415   0.023  1.00  0.00     0.014 A 
HETATM    7  C   UNL     1       0.931   1.409  -0.026  1.00  0.00     0.030 A 
HETATM    8  C   UNL     1       2.194  -0.664   0.003  1.00  0.00     0.001 A 
HETATM    9  C   UNL     1       2.151   0.727  -0.020  1.00  0.00     0.002 A 
HETATM   10  H   UNL     1      -1.861   1.976  -0.031  1.00  0.00     0.165 HD
ENDROOT
BRANCH   1  11
HETATM   11  C   UNL     1      -2.094  -2.602   0.052  1.00  0.00     0.154 C 
BRANCH  11  12
HETATM   12  C   UNL     1      -2.299  -3.102   1.463  1.00  0.00     0.177 C 
HETATM   13  O   UNL     1      -2.629  -2.464   2.450  1.00  0.00    -0.648 OA
HETATM   14  O   UNL     1      -2.143  -4.441   1.561  1.00  0.00    -0.648 OA
ENDBRANCH  11  12
ENDBRANCH   1  11
TORSDOF 2
