REMARK  0 active torsions:
REMARK  status: ('A' for Active; 'I' for Inactive)
ROOT
HETATM    1  N   UNL     1       1.468  -0.122  -2.020  1.00  0.00    -0.066 N 
HETATM    2  C   UNL     1       0.948  -1.071  -3.020  1.00  0.00     0.195 C 
HETATM    3  C   UNL     1       0.280   0.150  -1.186  1.00  0.00     0.195 C 
HETATM    4  C   UNL     1      -0.929   0.576  -3.337  1.00  0.00     0.131 C 
HETATM    5  C   UNL     1       0.128  -0.259  -4.031  1.00  0.00     0.111 C 
HETATM    6  C   UNL     1      -0.600   1.129  -1.967  1.00  0.00     0.111 C 
HETATM    7  C   UNL     1      -0.407  -1.215  -1.022  1.00  0.00     0.036 C 
HETATM    8  C   UNL     1       0.076  -2.038  -2.216  1.00  0.00     0.036 C 
HETATM    9  O   UNL     1      -1.974   0.876  -3.919  1.00  0.00    -0.298 OA
HETATM   10  C   UNL     1       2.588  -0.653  -1.241  1.00  0.00     0.270 C 
HETATM   11  H   UNL     1       1.867   0.715  -2.445  1.00  0.00     0.280 HD
ENDROOT
TORSDOF 0
