REMARK  1 active torsions:
REMARK  status: ('A' for Active; 'I' for Inactive)
REMARK    1  A    between atoms: C_1  and  C_8 
REMARK       I    between atoms: N_4  and  C_6 
ROOT
HETATM    1  C   UNL     1      -1.581  -1.249  -0.070  1.00  0.00    -0.026 A 
HETATM    2  C   UNL     1      -1.812  -0.479   1.053  1.00  0.00     0.096 A 
HETATM    3  N   UNL     1      -1.551   0.830   0.737  1.00  0.00    -0.365 N 
HETATM    4  C   UNL     1      -1.152  -0.352  -1.102  1.00  0.00    -0.001 A 
HETATM    5  C   UNL     1      -1.171   0.937  -0.581  1.00  0.00     0.042 A 
HETATM    6  C   UNL     1      -0.771  -0.540  -2.447  1.00  0.00     0.014 A 
HETATM    7  C   UNL     1      -0.846   2.060  -1.353  1.00  0.00     0.030 A 
HETATM    8  C   UNL     1      -0.446   0.567  -3.232  1.00  0.00     0.001 A 
HETATM    9  C   UNL     1      -0.492   1.848  -2.692  1.00  0.00     0.002 A 
HETATM   10  H   UNL     1      -1.624   1.585   1.365  1.00  0.00     0.165 HD
ENDROOT
BRANCH   1  11
HETATM   11  C   UNL     1      -1.741  -2.726  -0.284  1.00  0.00     0.024 C 
HETATM   12  C   UNL     1      -1.707  -3.603   0.969  1.00  0.00     0.029 C 
HETATM   13  C   UNL     1      -1.708  -5.072   0.540  1.00  0.00     0.126 C 
HETATM   14  N   UNL     1      -2.835  -5.379  -0.350  1.00  0.00    -0.352 N 
HETATM   15  C   UNL     1      -2.999  -4.496  -1.504  1.00  0.00     0.126 C 
HETATM   16  C   UNL     1      -3.481  -6.598  -0.208  1.00  0.00     0.215 C 
HETATM   17  C   UNL     1      -3.022  -3.037  -1.071  1.00  0.00     0.029 C 
HETATM   18  O   UNL     1      -3.216  -7.392   0.694  1.00  0.00    -0.274 OA
HETATM   19  C   UNL     1      -4.555  -6.932  -1.213  1.00  0.00     0.117 C 
ENDBRANCH   1  11
TORSDOF 1
