REMARK  1 active torsions:
REMARK  status: ('A' for Active; 'I' for Inactive)
REMARK    1  A    between atoms: C_9  and  O_12 
ROOT
HETATM    1  C   UNL     1      -0.008   0.639   0.019  1.00  0.00     0.092 A 
HETATM    2  C   UNL     1       0.053  -0.758   0.013  1.00  0.00     0.044 A 
HETATM    3  C   UNL     1      -1.200  -1.531   0.078  1.00  0.00     0.165 C 
HETATM    4  C   UNL     1       1.181   1.391   0.058  1.00  0.00     0.005 A 
HETATM    5  O   UNL     1      -1.192   1.335  -0.004  1.00  0.00    -0.339 OA
HETATM    6  C   UNL     1      -2.352   0.594  -0.426  1.00  0.00     0.067 C 
HETATM    7  C   UNL     1      -2.449  -0.737   0.318  1.00  0.00     0.121 C 
HETATM    8  C   UNL     1       1.281  -1.423  -0.020  1.00  0.00     0.021 A 
HETATM    9  C   UNL     1       2.406   0.708   0.033  1.00  0.00     0.074 A 
HETATM   10  O   UNL     1      -1.199  -2.755   0.004  1.00  0.00    -0.292 OA
HETATM   11  C   UNL     1       2.463  -0.686  -0.016  1.00  0.00     0.038 A 
HETATM   12  C   UNL     1       1.118   2.893   0.124  1.00  0.00     0.054 C 
HETATM   13  C   UNL     1      -2.348   0.421  -1.956  1.00  0.00     0.046 C 
HETATM   14  C   UNL     1      -3.568   1.454  -0.050  1.00  0.00     0.046 C 
ENDROOT
BRANCH   9  15
HETATM   15  O   UNL     1       3.568   1.427   0.060  1.00  0.00    -0.360 OA
HETATM   16  H   UNL     1       3.539   2.363   0.093  1.00  0.00     0.217 HD
ENDBRANCH   9  15
TORSDOF 1
