REMARK  1 active torsions:
REMARK  status: ('A' for Active; 'I' for Inactive)
REMARK    1  A    between atoms: C_4  and  O_8 
ROOT
HETATM    1  N   UNL     1       1.191   0.648   0.075  1.00  0.00    -0.361 N 
ATOM      2  HN  UNL     1       2.075   1.156   0.103  1.00  0.00     0.165 HD
HETATM    3  C   UNL     1       1.167  -0.710   0.164  1.00  0.00     0.039 A 
HETATM    4  C   UNL     1      -0.029  -1.427   0.122  1.00  0.00     0.087 A 
HETATM    5  C   UNL     1       0.016   1.311  -0.051  1.00  0.00     0.005 A 
HETATM    6  C   UNL     1      -1.226  -0.729   0.005  1.00  0.00     0.040 A 
HETATM    7  C   UNL     1      -1.210   0.658  -0.079  1.00  0.00     0.027 A 
HETATM    8  C   UNL     1       2.519  -1.339   0.305  1.00  0.00     0.071 C 
HETATM    9  C   UNL     1       0.077   2.806  -0.143  1.00  0.00     0.068 C 
ENDROOT
BRANCH   4  10
HETATM   10  O   UNL     1      -0.141  -2.784   0.190  1.00  0.00    -0.359 OA
HETATM   11  H   UNL     1       0.627  -3.315   0.270  1.00  0.00     0.217 HD
ENDBRANCH   4  10
TORSDOF 1
