REMARK  1 active torsions:
REMARK  status: ('A' for Active; 'I' for Inactive)
REMARK    1  A    between atoms: C_1  and  N_5 
ROOT
HETATM    1  C   UNL     1      -0.575   1.760   0.015  1.00  0.00     0.044 A 
HETATM    2  C   UNL     1       0.520   0.843   0.038  1.00  0.00     0.017 A 
HETATM    3  N   UNL     1      -1.032  -1.024   0.081  1.00  0.00    -0.359 N 
ATOM      4  HN  UNL     1      -1.202  -2.029   0.105  1.00  0.00     0.166 HD
HETATM    5  C   UNL     1       0.217  -0.541   0.064  1.00  0.00     0.044 A 
HETATM    6  C   UNL     1      -1.870   1.220   0.048  1.00  0.00     0.054 A 
HETATM    7  C   UNL     1      -2.057  -0.154   0.066  1.00  0.00     0.007 A 
HETATM    8  C   UNL     1       1.890   1.210  -0.012  1.00  0.00     0.016 A 
HETATM    9  C   UNL     1       1.248  -1.470   0.051  1.00  0.00     0.030 A 
HETATM   10  C   UNL     1      -3.436  -0.742   0.035  1.00  0.00     0.068 C 
HETATM   11  C   UNL     1       2.912   0.257   0.005  1.00  0.00     0.001 A 
HETATM   12  C   UNL     1       2.589  -1.090   0.030  1.00  0.00     0.002 A 
ENDROOT
BRANCH   1  13
HETATM   13  N   UNL     1      -0.381   3.152  -0.125  1.00  0.00    -0.377 N 
HETATM   14  C   UNL     1      -1.474   3.923  -0.758  1.00  0.00     0.150 C 
HETATM   15  C   UNL     1      -0.982   5.331  -1.157  1.00  0.00     0.252 C 
HETATM   16  N   UNL     1      -0.414   6.094  -0.026  1.00  0.00    -0.072 N 
HETATM   17  C   UNL     1       0.649   5.280   0.606  1.00  0.00     0.252 C 
HETATM   18  H   UNL     1      -0.019   6.971  -0.366  1.00  0.00     0.277 HD
HETATM   19  H   UNL     1      -1.144   6.304   0.655  1.00  0.00     0.277 HD
HETATM   20  C   UNL     1       0.185   3.863   1.044  1.00  0.00     0.150 C 
ENDBRANCH   1  13
TORSDOF 1
