REMARK  1 active torsions:
REMARK  status: ('A' for Active; 'I' for Inactive)
REMARK    1  A    between atoms: C_1  and  C_7 
ROOT
HETATM    1  C   UNL     1      -1.599  -1.236  -0.072  1.00  0.00    -0.026 A 
HETATM    2  C   UNL     1      -1.828  -0.472   1.054  1.00  0.00     0.096 A 
HETATM    3  N   UNL     1      -1.578   0.841   0.738  1.00  0.00    -0.365 N 
HETATM    4  C   UNL     1      -1.179  -0.333  -1.106  1.00  0.00    -0.001 A 
HETATM    5  C   UNL     1      -1.201   0.955  -0.580  1.00  0.00     0.042 A 
HETATM    6  C   UNL     1      -0.799  -0.511  -2.453  1.00  0.00     0.014 A 
HETATM    7  C   UNL     1      -0.884   2.085  -1.347  1.00  0.00     0.030 A 
HETATM    8  C   UNL     1      -0.480   0.601  -3.233  1.00  0.00     0.001 A 
HETATM    9  C   UNL     1      -0.529   1.879  -2.688  1.00  0.00     0.002 A 
HETATM   10  H   UNL     1      -1.657   1.594   1.367  1.00  0.00     0.165 HD
ENDROOT
BRANCH   1  11
HETATM   11  C   UNL     1      -1.738  -2.716  -0.286  1.00  0.00     0.024 C 
HETATM   12  C   UNL     1      -1.680  -3.600   0.958  1.00  0.00     0.037 C 
HETATM   13  C   UNL     1      -1.644  -5.067   0.510  1.00  0.00     0.233 C 
HETATM   14  N   UNL     1      -2.788  -5.422  -0.337  1.00  0.00    -0.075 N 
HETATM   15  C   UNL     1      -2.949  -4.531  -1.486  1.00  0.00     0.233 C 
HETATM   16  H   UNL     1      -2.655  -6.374  -0.680  1.00  0.00     0.277 HD
HETATM   17  H   UNL     1      -3.629  -5.337   0.235  1.00  0.00     0.277 HD
HETATM   18  C   UNL     1      -3.011  -3.067  -1.066  1.00  0.00     0.037 C 
ENDBRANCH   1  11
TORSDOF 1
