REMARK  2 active torsions:
REMARK  status: ('A' for Active; 'I' for Inactive)
REMARK    1  A    between atoms: S_1  and  C_2 
REMARK    2  A    between atoms: S_1  and  N_8 
ROOT
HETATM    1  C   UNL     1       0.297   0.456  -1.632  1.00  0.00     0.077 A 
HETATM    2  C   UNL     1      -0.206  -0.560  -2.447  1.00  0.00     0.064 A 
HETATM    3  C   UNL     1      -0.591  -0.252  -3.747  1.00  0.00     0.103 A 
HETATM    4  C   UNL     1      -0.514   1.067  -4.211  1.00  0.00     0.102 A 
HETATM    5  O   UNL     1      -1.025  -1.299  -4.519  1.00  0.00    -0.346 OA
HETATM    6  O   UNL     1      -0.883   1.437  -5.479  1.00  0.00    -0.346 OA
HETATM    7  C   UNL     1       0.373   1.778  -2.083  1.00  0.00     0.028 A 
HETATM    8  C   UNL     1      -0.029   2.080  -3.383  1.00  0.00     0.041 A 
HETATM    9  C   UNL     1      -1.058  -0.948  -5.906  1.00  0.00     0.202 C 
HETATM   10  C   UNL     1      -1.683   0.424  -6.099  1.00  0.00     0.202 C 
ENDROOT
BRANCH   1  11
HETATM   11  S   UNL     1       0.936   0.044  -0.039  1.00  0.00     0.239 S 
HETATM   12  O   UNL     1       0.361  -1.203   0.405  1.00  0.00    -0.206 OA
HETATM   13  O   UNL     1       0.966   1.229   0.783  1.00  0.00    -0.206 OA
BRANCH  11  14
HETATM   14  N   UNL     1       2.529  -0.286  -0.443  1.00  0.00    -0.225 NA
HETATM   15  H   UNL     1       2.565  -1.120  -1.029  1.00  0.00     0.136 HD
HETATM   16  H   UNL     1       3.070  -0.444   0.407  1.00  0.00     0.136 HD
ENDBRANCH  11  14
ENDBRANCH   1  11
TORSDOF 2
