REMARK  2 active torsions:
REMARK  status: ('A' for Active; 'I' for Inactive)
REMARK    1  A    between atoms: CA_3  and  C_7 
REMARK    2  A    between atoms: O_5  and  C_7 
ROOT
HETATM    1  N   UNL     1       0.366   1.133  -0.017  1.00  0.00    -0.361 N 
ATOM      2  HN  UNL     1       0.931   1.982  -0.016  1.00  0.00     0.165 HD
HETATM    3  CA  UNL     1       0.948  -0.098  -0.019  1.00  0.00     0.033 A 
HETATM    4  C   UNL     1      -0.988   1.193  -0.016  1.00  0.00     0.005 A 
HETATM    5  C   UNL     1      -1.175  -1.196  -0.021  1.00  0.00     0.004 A 
HETATM    6  C   UNL     1      -1.787   0.054  -0.018  1.00  0.00     0.024 A 
HETATM    7  C   UNL     1       0.212  -1.278  -0.022  1.00  0.00     0.027 A 
HETATM    8  C   UNL     1      -1.603   2.561  -0.003  1.00  0.00     0.068 C 
ENDROOT
BRANCH   3   9
HETATM    9  C   UNL     1       2.460  -0.146  -0.009  1.00  0.00     0.220 C 
BRANCH   9  10
HETATM   10  O   UNL     1       3.020   1.167  -0.006  1.00  0.00    -0.395 OA
HETATM   11  H   UNL     1       3.988   1.105   0.000  1.00  0.00     0.209 HD
ENDBRANCH   9  10
ENDBRANCH   3   9
TORSDOF 2
