REMARK  2 active torsions:
REMARK  status: ('A' for Active; 'I' for Inactive)
REMARK    1  A    between atoms: C_2  and  C_7 
REMARK    2  A    between atoms: C_6  and  O_8 
ROOT
HETATM    1  N   UNL     1       0.614   1.294  -0.019  1.00  0.00    -0.058 N 
HETATM    2  C   UNL     1       1.870   0.995  -0.714  1.00  0.00     0.222 C 
HETATM    3  C   UNL     1      -0.271   0.131   0.160  1.00  0.00     0.129 C 
HETATM    4  C   UNL     1       2.677  -0.075   0.039  1.00  0.00     0.069 C 
HETATM    5  C   UNL     1       0.491  -1.001   0.891  1.00  0.00     0.070 C 
HETATM    6  C   UNL     1       1.858  -1.335   0.293  1.00  0.00     0.122 C 
HETATM    7  C   UNL     1      -0.914  -0.337  -1.169  1.00  0.00     0.039 C 
HETATM    8  C   UNL     1      -1.492   0.560   1.029  1.00  0.00     0.039 C 
HETATM    9  C   UNL     1      -2.739   0.348   0.176  1.00  0.00     0.002 C 
HETATM   10  C   UNL     1      -2.336  -0.734  -0.803  1.00  0.00     0.002 C 
HETATM   11  H   UNL     1       0.110   1.998  -0.558  1.00  0.00     0.279 HD
HETATM   12  H   UNL     1       0.866   1.616   0.916  1.00  0.00     0.279 HD
ENDROOT
BRANCH   2  13
HETATM   13  C   UNL     1       2.711   2.252  -0.891  1.00  0.00    -0.028 A 
HETATM   14  C   UNL     1       3.119   3.022   0.212  1.00  0.00     0.009 A 
HETATM   15  C   UNL     1       3.947   4.132   0.045  1.00  0.00     0.001 A 
HETATM   16  C   UNL     1       4.375   4.497  -1.229  1.00  0.00     0.000 A 
HETATM   17  C   UNL     1       3.965   3.759  -2.336  1.00  0.00     0.001 A 
HETATM   18  C   UNL     1       3.139   2.644  -2.170  1.00  0.00     0.009 A 
ENDBRANCH   2  13
BRANCH   6  19
HETATM   19  O   UNL     1       1.730  -2.130  -0.882  1.00  0.00    -0.395 OA
HETATM   20  H   UNL     1       1.248  -1.630  -1.560  1.00  0.00     0.210 HD
ENDBRANCH   6  19
TORSDOF 2
