REMARK  3 active torsions:
REMARK  status: ('A' for Active; 'I' for Inactive)
REMARK    1  A    between atoms: C_2  and  C_8 
REMARK    2  A    between atoms: C_3  and  C_9 
REMARK    3  A    between atoms: C_8  and  C_9 
ROOT
HETATM    1  S   UNL     1       1.427   0.603  -0.932  1.00  0.00    -0.106 SA
HETATM    2  C   UNL     1       0.203   1.185   0.118  1.00  0.00    -0.017 A 
HETATM    3  C   UNL     1       1.428  -0.934  -0.187  1.00  0.00     0.050 A 
HETATM    4  C   UNL     1      -0.193   0.212   1.017  1.00  0.00     0.015 A 
HETATM    5  C   UNL     1       0.521  -1.009   0.845  1.00  0.00     0.008 A 
ENDROOT
BRANCH   2   6
HETATM    6  C   UNL     1      -0.271   2.608   0.031  1.00  0.00     0.056 C 
BRANCH   6   7
HETATM    7  C   UNL     1      -1.001   2.922  -1.271  1.00  0.00     0.118 C 
BRANCH   7   8
HETATM    8  C   UNL     1      -1.506   4.336  -1.264  1.00  0.00     0.172 C 
HETATM    9  O   UNL     1      -1.345   5.177  -0.396  1.00  0.00    -0.648 OA
HETATM   10  O   UNL     1      -2.200   4.632  -2.381  1.00  0.00    -0.648 OA
ENDBRANCH   7   8
ENDBRANCH   6   7
ENDBRANCH   2   6
TORSDOF 3
