REMARK  5 active torsions:
REMARK  status: ('A' for Active; 'I' for Inactive)
REMARK    1  A    between atoms: C_1  and  C_2 
REMARK    2  A    between atoms: C_2  and  C_9 
REMARK    3  A    between atoms: C_4  and  S_6 
REMARK    4  A    between atoms: C_5  and  C_8 
REMARK    5  A    between atoms: S_6  and  C_9 
ROOT
HETATM    1  C   UNL     1      -0.924   1.785  -0.599  1.00  0.00     0.045 C 
HETATM    2  C   UNL     1       0.363   2.153  -0.506  1.00  0.00     0.018 C 
ENDROOT
BRANCH   1   3
HETATM    3  S   UNL     1      -1.735   1.003   0.721  1.00  0.00    -0.141 SA
BRANCH   3   4
HETATM    4  C   UNL     1      -2.991   0.043  -0.193  1.00  0.00     0.089 C 
BRANCH   4   5
HETATM    5  C   UNL     1      -3.883  -0.734   0.773  1.00  0.00     0.123 C 
BRANCH   5   6
HETATM    6  C   UNL     1      -4.932  -1.509   0.014  1.00  0.00     0.173 C 
HETATM    7  O   UNL     1      -5.049  -1.524  -1.202  1.00  0.00    -0.648 OA
HETATM    8  O   UNL     1      -5.755  -2.209   0.826  1.00  0.00    -0.648 OA
ENDBRANCH   5   6
ENDBRANCH   4   5
ENDBRANCH   3   4
ENDBRANCH   1   3
BRANCH   2   9
HETATM    9  C   UNL     1       1.079   2.770  -1.627  1.00  0.00    -0.036 A 
HETATM   10  C   UNL     1       1.101   4.159  -1.787  1.00  0.00     0.011 A 
HETATM   11  C   UNL     1       1.802   4.734  -2.853  1.00  0.00     0.001 A 
HETATM   12  C   UNL     1       2.481   3.924  -3.761  1.00  0.00     0.000 A 
HETATM   13  C   UNL     1       2.460   2.539  -3.610  1.00  0.00     0.001 A 
HETATM   14  C   UNL     1       1.760   1.963  -2.546  1.00  0.00     0.011 A 
ENDBRANCH   2   9
TORSDOF 5
