REMARK  2 active torsions:
REMARK  status: ('A' for Active; 'I' for Inactive)
REMARK       I    between atoms: C_1  and  N_2 
REMARK       I    between atoms: C_1  and  N_4 
REMARK    1  A    between atoms: N_2  and  C_5 
REMARK    2  A    between atoms: C_5  and  C_7 
ROOT
HETATM    1  C   UNL     1      -1.078  -1.197   0.227  1.00  0.00     0.162 C 
ENDROOT
BRANCH   1   2
HETATM    2  N   UNL     1       0.238  -0.716  -0.118  1.00  0.00    -0.339 N 
HETATM    3  C   UNL     1       0.865   0.225   0.636  1.00  0.00     0.314 C 
HETATM    4  O   UNL     1       0.394   0.751   1.630  1.00  0.00    -0.248 OA
HETATM    5  N   UNL     1       2.111   0.516   0.196  1.00  0.00    -0.352 N 
HETATM    6  H   UNL     1       2.464   0.075  -0.610  1.00  0.00     0.160 HD
HETATM    7  H   UNL     1       2.664   1.169   0.683  1.00  0.00     0.160 HD
HETATM    8  H   UNL     1       0.690  -1.076  -0.915  1.00  0.00     0.164 HD
ENDBRANCH   1   2
BRANCH   1   9
HETATM    9  C   UNL     1      -1.531  -2.242  -0.758  1.00  0.00    -0.040 A 
HETATM   10  C   UNL     1      -1.240  -3.599  -0.537  1.00  0.00     0.012 A 
HETATM   11  C   UNL     1      -1.590  -4.560  -1.487  1.00  0.00     0.043 A 
HETATM   12  C   UNL     1      -2.227  -4.166  -2.657  1.00  0.00     0.116 A 
HETATM   13  C   UNL     1      -2.534  -2.831  -2.890  1.00  0.00     0.043 A 
HETATM   14  F   UNL     1      -2.542  -5.086  -3.578  1.00  0.00    -0.206 F 
HETATM   15  C   UNL     1      -2.185  -1.868  -1.944  1.00  0.00     0.012 A 
ENDBRANCH   1   9
TORSDOF 2
