REMARK  0 active torsions:
REMARK  status: ('A' for Active; 'I' for Inactive)
ROOT
HETATM    1  C   UNL     1      -0.253  -1.301  -0.004  1.00  0.00     0.015 A 
HETATM    2  C   UNL     1       0.986  -0.705  -0.008  1.00  0.00     0.172 A 
HETATM    3  N   UNL     1      -0.497   0.972   0.008  1.00  0.00    -0.263 N 
ATOM      4  HN  UNL     1      -0.904   1.907   0.015  1.00  0.00     0.194 HD
HETATM    5  O   UNL     1       0.846   0.645   0.002  1.00  0.00    -0.220 OA
HETATM    6  C   UNL     1      -1.152  -0.197   0.002  1.00  0.00     0.039 A 
HETATM    7  N   UNL     1       2.231  -1.194  -0.021  1.00  0.00    -0.378 N 
HETATM    8  C   UNL     1      -0.573  -2.745  -0.009  1.00  0.00     0.055 C 
HETATM    9  C   UNL     1      -2.633  -0.196   0.001  1.00  0.00     0.071 C 
HETATM   10  H   UNL     1       2.378  -2.167  -0.029  1.00  0.00     0.158 HD
HETATM   11  H   UNL     1       3.001  -0.580  -0.023  1.00  0.00     0.158 HD
ENDROOT
TORSDOF 0
