REMARK  0 active torsions:
REMARK  status: ('A' for Active; 'I' for Inactive)
ROOT
HETATM    1  C   UNL     1      -0.170  -0.780  -0.003  1.00  0.00     0.105 A 
HETATM    2  C   UNL     1      -0.422   0.571   0.001  1.00  0.00     0.105 A 
HETATM    3  O   UNL     1      -1.309  -1.522   0.001  1.00  0.00    -0.323 OA
HETATM    4  O   UNL     1      -1.753   0.849   0.006  1.00  0.00    -0.323 OA
HETATM    5  C   UNL     1      -2.308  -0.483   0.017  1.00  0.00     0.352 A 
HETATM    6  C   UNL     1       1.115  -1.280  -0.008  1.00  0.00     0.046 A 
HETATM    7  C   UNL     1       0.598   1.498  -0.001  1.00  0.00     0.040 A 
HETATM    8  C   UNL     1       2.180  -0.367  -0.008  1.00  0.00    -0.059 A 
HETATM    9  C   UNL     1       1.914   1.020  -0.005  1.00  0.00     0.010 A 
HETATM   10  C   UNL     1       3.590  -0.883  -0.010  1.00  0.00     0.048 C 
ENDROOT
TORSDOF 0
