REMARK  3 active torsions:
REMARK  status: ('A' for Active; 'I' for Inactive)
REMARK    1  A    between atoms: N_1  and  C_4 
REMARK    2  A    between atoms: C_4  and  C_7 
REMARK    3  A    between atoms: C_7  and  C_8 
ROOT
HETATM    1  N   UNL     1       4.458  -1.079  -1.981  1.00  0.00    -0.368 N 
ATOM      2  HN  UNL     1       4.310  -1.968  -1.504  1.00  0.00     0.165 HD
HETATM    3  C   UNL     1       4.217   0.101  -1.359  1.00  0.00     0.021 A 
HETATM    4  C   UNL     1       4.901  -1.034  -3.257  1.00  0.00     0.088 A 
HETATM    5  C   UNL     1       4.403   1.329  -1.996  1.00  0.00     0.026 A 
HETATM    6  C   UNL     1       5.112   0.142  -3.959  1.00  0.00     0.017 A 
HETATM    7  C   UNL     1       4.857   1.344  -3.312  1.00  0.00     0.003 A 
ENDROOT
BRANCH   3   8
HETATM    8  C   UNL     1       3.708   0.038   0.057  1.00  0.00     0.160 C 
BRANCH   8   9
HETATM    9  C   UNL     1       4.654   0.739   1.017  1.00  0.00    -0.072 C 
BRANCH   9  10
HETATM   10  N   UNL     1       5.439   1.321   1.814  1.00  0.00    -0.369 N 
ATOM     11  HN2 UNL     1       4.794   0.856   1.175  1.00  0.00     0.165 HD
ATOM     12  HN1 UNL     1       6.074   1.792   2.459  1.00  0.00     0.165 HD
ENDBRANCH   9  10
ENDBRANCH   8   9
ENDBRANCH   3   8
TORSDOF 3
