REMARK  0 active torsions:
REMARK  status: ('A' for Active; 'I' for Inactive)
ROOT
HETATM    1  O   UNL     1       1.408   1.004   0.009  1.00  0.00    -0.275 OA
HETATM    2  C   UNL     1       2.427   0.063   0.005  1.00  0.00     0.288 A 
HETATM    3  C   UNL     1       0.056   0.609   0.010  1.00  0.00     0.089 A 
HETATM    4  C   UNL     1      -0.302  -0.738   0.005  1.00  0.00    -0.002 A 
HETATM    5  C   UNL     1       0.750  -1.743   0.011  1.00  0.00     0.020 A 
HETATM    6  C   UNL     1       2.029  -1.355   0.013  1.00  0.00     0.083 A 
HETATM    7  C   UNL     1      -1.658  -1.076  -0.002  1.00  0.00     0.021 A 
HETATM    8  O   UNL     1       3.612   0.380  -0.002  1.00  0.00    -0.260 OA
HETATM    9  C   UNL     1      -0.900   1.619   0.017  1.00  0.00     0.039 A 
HETATM   10  C   UNL     1      -2.642  -0.071   0.003  1.00  0.00    -0.061 A 
HETATM   11  C   UNL     1      -2.251   1.275   0.015  1.00  0.00     0.009 A 
HETATM   12  C   UNL     1      -4.096  -0.443  -0.005  1.00  0.00     0.048 C 
ENDROOT
TORSDOF 0
