REMARK  0 active torsions:
REMARK  status: ('A' for Active; 'I' for Inactive)
ROOT
HETATM    1  N   UNL     1       0.924  -0.699  -0.013  1.00  0.00    -0.245 N 
ATOM      2  HN  UNL     1       1.771  -1.267  -0.011  1.00  0.00     0.196 HD
HETATM    3  C   UNL     1      -1.251  -0.062  -0.020  1.00  0.00     0.084 A 
HETATM    4  C   UNL     1      -0.337  -1.133  -0.038  1.00  0.00     0.121 A 
HETATM    5  O   UNL     1       0.845   0.684   0.009  1.00  0.00    -0.241 OA
HETATM    6  C   UNL     1      -0.461   1.060   0.000  1.00  0.00     0.076 A 
HETATM    7  N   UNL     1      -0.707  -2.421  -0.078  1.00  0.00    -0.384 N 
HETATM    8  C   UNL     1      -0.726   2.508   0.008  1.00  0.00     0.079 C 
HETATM    9  H   UNL     1      -1.662  -2.658  -0.095  1.00  0.00     0.157 HD
HETATM   10  H   UNL     1      -0.024  -3.129  -0.092  1.00  0.00     0.157 HD
ENDROOT
TORSDOF 0
