REMARK  1 active torsions:
REMARK  status: ('A' for Active; 'I' for Inactive)
REMARK    1  A    between atoms: C_3  and  N_7 
ROOT
HETATM    1  C   UNL     1      -1.380  -0.091  -0.035  1.00  0.00     0.145 A 
HETATM    2  C   UNL     1      -0.763   1.154  -0.026  1.00  0.00     0.086 A 
HETATM    3  C   UNL     1      -0.639  -1.284  -0.077  1.00  0.00     0.065 A 
HETATM    4  C   UNL     1       0.755  -1.200  -0.015  1.00  0.00     0.035 A 
HETATM    5  C   UNL     1       0.623   1.209  -0.022  1.00  0.00     0.119 A 
HETATM    6  F   UNL     1      -2.721  -0.148  -0.024  1.00  0.00    -0.204 F 
HETATM    7  C   UNL     1       1.387   0.047  -0.010  1.00  0.00     0.044 A 
HETATM    8  F   UNL     1       1.236   2.400  -0.014  1.00  0.00    -0.206 F 
ENDROOT
BRANCH   3   9
HETATM    9  N   UNL     1      -1.273  -2.531   0.045  1.00  0.00    -0.397 N 
HETATM   10  H   UNL     1      -2.255  -2.590   0.001  1.00  0.00     0.156 HD
HETATM   11  H   UNL     1      -0.736  -3.346   0.175  1.00  0.00     0.156 HD
ENDBRANCH   3   9
TORSDOF 1
