REMARK  1 active torsions:
REMARK  status: ('A' for Active; 'I' for Inactive)
REMARK    1  A    between atoms: C_2  and  O_8 
ROOT
HETATM    1  C   UNL     1       1.299   0.000   0.025  1.00  0.00     0.116 A 
HETATM    2  C   UNL     1      -1.466   0.010   0.003  1.00  0.00     0.065 A 
HETATM    3  F   UNL     1       2.638  -0.003   0.032  1.00  0.00    -0.206 F 
HETATM    4  C   UNL     1       0.612  -1.209   0.023  1.00  0.00     0.045 A 
HETATM    5  C   UNL     1       0.617   1.214   0.021  1.00  0.00     0.045 A 
HETATM    6  C   UNL     1      -0.783  -1.204   0.011  1.00  0.00     0.039 A 
HETATM    7  C   UNL     1      -0.778   1.222   0.010  1.00  0.00     0.039 A 
ENDROOT
BRANCH   2   8
HETATM    8  O   UNL     1      -2.828  -0.033  -0.015  1.00  0.00    -0.361 OA
HETATM    9  H   UNL     1      -3.322   0.764  -0.021  1.00  0.00     0.217 HD
ENDBRANCH   2   8
TORSDOF 1
