REMARK  2 active torsions:
REMARK  status: ('A' for Active; 'I' for Inactive)
REMARK    1  A    between atoms: C_1  and  C_2 
REMARK    2  A    between atoms: C_8  and  N_9 
ROOT
HETATM    1  C   UNL     1       0.672   1.023  -0.937  1.00  0.00     0.048 A 
HETATM    2  C   UNL     1       1.013   2.365  -0.723  1.00  0.00     0.018 A 
HETATM    3  C   UNL     1       0.019   0.680  -2.129  1.00  0.00     0.018 A 
HETATM    4  C   UNL     1       0.005   3.003  -2.841  1.00  0.00     0.025 A 
HETATM    5  C   UNL     1      -0.290   1.659  -3.079  1.00  0.00     0.030 A 
HETATM    6  C   UNL     1       0.701   3.338  -1.678  1.00  0.00     0.030 A 
ENDROOT
BRANCH   1   7
HETATM    7  C   UNL     1       1.018  -0.044   0.070  1.00  0.00     0.417 C 
HETATM    8  F   UNL     1       1.681   0.428   1.163  1.00  0.00    -0.166 F 
HETATM    9  F   UNL     1       1.813  -1.018  -0.454  1.00  0.00    -0.166 F 
HETATM   10  F   UNL     1      -0.085  -0.683   0.553  1.00  0.00    -0.166 F 
ENDBRANCH   1   7
BRANCH   4  11
HETATM   11  N   UNL     1      -0.180   3.954  -3.851  1.00  0.00    -0.399 N 
HETATM   12  H   UNL     1      -0.671   3.714  -4.670  1.00  0.00     0.156 HD
HETATM   13  H   UNL     1       0.182   4.863  -3.742  1.00  0.00     0.156 HD
ENDBRANCH   4  11
TORSDOF 2
