REMARK  1 active torsions:
REMARK  status: ('A' for Active; 'I' for Inactive)
REMARK    1  A    between atoms: N_1  and  C_6 
ROOT
HETATM    1  N   UNL     1       0.626   1.076   0.115  1.00  0.00    -0.224 N 
HETATM    2  C   UNL     1       1.153  -0.215  -0.036  1.00  0.00     0.248 A 
HETATM    3  N   UNL     1      -0.757   1.109   0.174  1.00  0.00    -0.299 N 
ATOM      4  HN  UNL     1      -1.346   1.935   0.281  1.00  0.00     0.187 HD
HETATM    5  C   UNL     1      -0.044  -1.116  -0.010  1.00  0.00     0.158 A 
HETATM    6  C   UNL     1      -1.152  -0.120   0.066  1.00  0.00     0.009 A 
HETATM    7  O   UNL     1       2.303  -0.606  -0.149  1.00  0.00    -0.271 OA
HETATM    8  C   UNL     1      -2.582  -0.537   0.029  1.00  0.00     0.065 C 
ENDROOT
BRANCH   1   9
HETATM    9  C   UNL     1       1.337   2.302   0.172  1.00  0.00     0.061 A 
HETATM   10  C   UNL     1       2.717   2.367  -0.059  1.00  0.00     0.055 A 
HETATM   11  C   UNL     1       3.389   3.591   0.001  1.00  0.00     0.036 A 
HETATM   12 CL   UNL     1       5.082   3.649  -0.315  1.00  0.00    -0.084 Cl
HETATM   13  C   UNL     1       2.708   4.765   0.306  1.00  0.00     0.024 A 
HETATM   14  C   UNL     1       1.338   4.719   0.544  1.00  0.00     0.004 A 
HETATM   15  C   UNL     1       0.659   3.498   0.470  1.00  0.00     0.032 A 
ENDBRANCH   1   9
TORSDOF 1
