REMARK  1 active torsions:
REMARK  status: ('A' for Active; 'I' for Inactive)
REMARK    1  A    between atoms: C_1  and  N_7 
ROOT
HETATM    1  C   UNL     1      -0.696   1.241   0.001  1.00  0.00     0.029 A 
HETATM    2  C   UNL     1       1.391   0.005   0.009  1.00  0.00     0.037 A 
HETATM    3  C   UNL     1      -0.689  -1.185   0.009  1.00  0.00     0.037 A 
HETATM    4  C   UNL     1      -1.386   0.025  -0.028  1.00  0.00     0.052 A 
HETATM    5  C   UNL     1       0.701   1.219  -0.028  1.00  0.00     0.052 A 
HETATM    6  C   UNL     1       0.702  -1.203   0.034  1.00  0.00     0.048 A 
HETATM    7 CL   UNL     1      -1.560  -2.670   0.004  1.00  0.00    -0.084 Cl
HETATM    8 CL   UNL     1       3.112   0.004   0.005  1.00  0.00    -0.084 Cl
ENDROOT
BRANCH   1   9
HETATM    9  N   UNL     1      -1.385   2.445  -0.179  1.00  0.00    -0.399 N 
HETATM   10  H   UNL     1      -2.369   2.457  -0.159  1.00  0.00     0.156 HD
HETATM   11  H   UNL     1      -0.885   3.280  -0.327  1.00  0.00     0.156 HD
ENDBRANCH   1   9
TORSDOF 1
