REMARK  0 active torsions:
REMARK  status: ('A' for Active; 'I' for Inactive)
ROOT
HETATM    1  S   UNL     1       0.009   0.918  -0.005  1.00  0.00    -0.066 SA
HETATM    2  C   UNL     1       1.203  -0.285  -0.003  1.00  0.00     0.076 A 
HETATM    3  C   UNL     1      -1.212  -0.258  -0.003  1.00  0.00     0.076 A 
HETATM    4  C   UNL     1       0.696  -1.561  -0.008  1.00  0.00     0.033 A 
HETATM    5  C   UNL     1      -0.733  -1.545  -0.009  1.00  0.00     0.033 A 
HETATM    6 CL   UNL     1       2.862   0.159   0.007  1.00  0.00    -0.076 Cl
HETATM    7 CL   UNL     1      -2.860   0.223   0.007  1.00  0.00    -0.076 Cl
ENDROOT
TORSDOF 0
