REMARK  2 active torsions:
REMARK  status: ('A' for Active; 'I' for Inactive)
REMARK    1  A    between atoms: C_1  and  C_3 
REMARK    2  A    between atoms: C_1  and  N_4 
ROOT
HETATM    1  C   UNL     1       0.183   0.153   1.197  1.00  0.00     0.001 A 
HETATM    2  C   UNL     1       0.583   1.064   2.184  1.00  0.00     0.014 A 
HETATM    3  C   UNL     1      -0.960  -0.630   1.421  1.00  0.00     0.014 A 
HETATM    4  C   UNL     1      -0.156   1.203   3.363  1.00  0.00     0.001 A 
HETATM    5  C   UNL     1      -1.699  -0.486   2.598  1.00  0.00     0.001 A 
HETATM    6  C   UNL     1      -1.298   0.432   3.566  1.00  0.00     0.000 A 
ENDROOT
BRANCH   1   7
HETATM    7  C   UNL     1       0.951   0.010  -0.075  1.00  0.00     0.104 C 
HETATM    8  S   UNL     1       2.595   0.262  -0.258  1.00  0.00    -0.060 SA
BRANCH   7   9
HETATM    9  N   UNL     1       0.234  -0.346  -1.191  1.00  0.00    -0.390 N 
HETATM   10  H   UNL     1       0.692  -0.454  -2.056  1.00  0.00     0.157 HD
HETATM   11  H   UNL     1      -0.737  -0.493  -1.126  1.00  0.00     0.157 HD
ENDBRANCH   7   9
ENDBRANCH   1   7
TORSDOF 2
