REMARK  1 active torsions:
REMARK  status: ('A' for Active; 'I' for Inactive)
REMARK    1  A    between atoms: C_1  and  C_4 
ROOT
HETATM    1  N   UNL     1       1.619   3.155  -1.812  1.00  0.00    -0.075 N 
HETATM    2  C   UNL     1       0.282   0.634  -1.162  1.00  0.00     0.090 C 
HETATM    3  C   UNL     1       2.196   1.894  -2.276  1.00  0.00     0.233 C 
HETATM    4  C   UNL     1       0.941   2.995  -0.528  1.00  0.00     0.233 C 
HETATM    5  C   UNL     1       1.127   0.812  -2.430  1.00  0.00     0.043 C 
HETATM    6  C   UNL     1      -0.203   1.990  -0.642  1.00  0.00     0.043 C 
HETATM    7  H   UNL     1       2.366   3.843  -1.709  1.00  0.00     0.277 HD
HETATM    8  H   UNL     1       0.932   3.465  -2.499  1.00  0.00     0.277 HD
ENDROOT
BRANCH   2   9
HETATM    9  C   UNL     1       1.036  -0.125  -0.090  1.00  0.00     0.177 C 
HETATM   10  O   UNL     1       2.180  -0.543  -0.143  1.00  0.00    -0.648 OA
HETATM   11  O   UNL     1       0.278  -0.367   1.000  1.00  0.00    -0.648 OA
ENDBRANCH   2   9
TORSDOF 1
