REMARK  1 active torsions:
REMARK  status: ('A' for Active; 'I' for Inactive)
REMARK    1  A    between atoms: C_1  and  C_2 
ROOT
HETATM    1  C   UNL     1       0.195  -1.220   0.003  1.00  0.00     0.079 A 
HETATM    2  C   UNL     1       0.864   0.005  -0.001  1.00  0.00     0.133 A 
HETATM    3  F   UNL     1       2.202   0.083  -0.003  1.00  0.00    -0.205 F 
HETATM    4  C   UNL     1      -1.209  -1.228   0.003  1.00  0.00     0.021 A 
HETATM    5  C   UNL     1       0.150   1.204  -0.003  1.00  0.00     0.043 A 
HETATM    6  C   UNL     1      -1.924  -0.027   0.000  1.00  0.00     0.001 A 
HETATM    7  C   UNL     1      -1.244   1.190  -0.002  1.00  0.00     0.003 A 
ENDROOT
BRANCH   1   8
HETATM    8  C   UNL     1       0.891  -2.525   0.011  1.00  0.00     0.212 C 
HETATM    9  O   UNL     1       0.336  -3.611   0.014  1.00  0.00    -0.644 OA
HETATM   10  O   UNL     1       2.228  -2.438   0.016  1.00  0.00    -0.644 OA
ENDBRANCH   1   8
TORSDOF 1
