REMARK  2 active torsions:
REMARK  status: ('A' for Active; 'I' for Inactive)
REMARK    1  A    between atoms: C_1  and  C_2 
REMARK    2  A    between atoms: C_2  and  O_8 
ROOT
HETATM    1  C   UNL     1      -0.170  -1.295  -0.004  1.00  0.00     0.070 A 
HETATM    2  C   UNL     1       0.711  -0.223   0.001  1.00  0.00     0.065 A 
HETATM    3  C   UNL     1      -1.474  -0.708   0.001  1.00  0.00     0.044 A 
HETATM    4  O   UNL     1       0.021   0.955   0.009  1.00  0.00    -0.326 OA
HETATM    5  C   UNL     1      -1.299   0.652   0.008  1.00  0.00     0.143 A 
HETATM    6  C   UNL     1       2.183  -0.075   0.000  1.00  0.00     0.077 C 
ENDROOT
BRANCH   1   7
HETATM    7  C   UNL     1       0.175  -2.707  -0.014  1.00  0.00     0.295 C 
HETATM    8  O   UNL     1       1.322  -3.134  -0.018  1.00  0.00    -0.259 OA
BRANCH   7   9
HETATM    9  O   UNL     1      -0.939  -3.500  -0.018  1.00  0.00    -0.322 OA
HETATM   10  C   UNL     1      -0.668  -4.901  -0.028  1.00  0.00     0.213 C 
ENDBRANCH   7   9
ENDBRANCH   1   7
TORSDOF 2
