REMARK  4 active torsions:
REMARK  status: ('A' for Active; 'I' for Inactive)
REMARK    1  A    between atoms: N_1  and  C_12 
REMARK    2  A    between atoms: N_5  and  C_9 
REMARK    3  A    between atoms: C_9  and  C_11 
REMARK    4  A    between atoms: C_11  and  C_12 
ROOT
HETATM    1  N   UNL     1       0.817  -0.664   0.207  1.00  0.00    -0.345 N 
HETATM    2  C   UNL     1       0.604   0.666   0.481  1.00  0.00     0.079 A 
HETATM    3  N   UNL     1      -0.684   0.945   0.424  1.00  0.00    -0.355 N 
ATOM      4  HN  UNL     1      -1.122   1.851   0.590  1.00  0.00     0.166 HD
HETATM    5  C   UNL     1      -1.314  -0.224   0.097  1.00  0.00     0.106 A 
HETATM    6  C   UNL     1      -0.401  -1.238  -0.033  1.00  0.00     0.109 A 
HETATM    7  C   UNL     1       1.662   1.667   0.777  1.00  0.00     0.089 C 
ENDROOT
BRANCH   1   8
HETATM    8  C   UNL     1       2.085  -1.353   0.070  1.00  0.00     0.142 C 
BRANCH   8   9
HETATM    9  C   UNL     1       2.529  -2.085   1.336  1.00  0.00     0.124 C 
BRANCH   9  10
HETATM   10  C   UNL     1       3.833  -2.797   1.017  1.00  0.00    -0.076 C 
BRANCH  10  11
HETATM   11  N   UNL     1       4.915  -3.388   0.752  1.00  0.00    -0.370 N 
ATOM     12  HN2 UNL     1       4.034  -2.916   0.955  1.00  0.00     0.165 HD
ATOM     13  HN1 UNL     1       5.790  -3.866   0.538  1.00  0.00     0.165 HD
ENDBRANCH  10  11
ENDBRANCH   9  10
ENDBRANCH   8   9
ENDBRANCH   1   8
TORSDOF 4
