REMARK  2 active torsions:
REMARK  status: ('A' for Active; 'I' for Inactive)
REMARK    1  A    between atoms: C_1  and  C_5 
REMARK    2  A    between atoms: N_4  and  C_5 
ROOT
HETATM    1  C   UNL     1       0.289   1.208  -0.009  1.00  0.00    -0.011 A 
HETATM    2  C   UNL     1      -0.381  -0.026  -0.017  1.00  0.00     0.042 A 
HETATM    3 CL   UNL     1      -2.106  -0.143  -0.017  1.00  0.00    -0.084 Cl
HETATM    4  C   UNL     1       1.698   1.196  -0.003  1.00  0.00     0.010 A 
HETATM    5  C   UNL     1       0.337  -1.227  -0.017  1.00  0.00     0.024 A 
HETATM    6  C   UNL     1       2.413  -0.004   0.003  1.00  0.00     0.001 A 
HETATM    7  C   UNL     1       1.731  -1.217  -0.006  1.00  0.00     0.002 A 
ENDROOT
BRANCH   1   8
HETATM    8  C   UNL     1      -0.423   2.538  -0.022  1.00  0.00     0.269 C 
BRANCH   8   9
HETATM    9  N   UNL     1      -0.095   3.336   1.158  1.00  0.00    -0.075 N 
HETATM   10  H   UNL     1      -0.592   4.225   1.116  1.00  0.00     0.274 HD
HETATM   11  H   UNL     1       0.910   3.508   1.183  1.00  0.00     0.274 HD
HETATM   12  H   UNL     1      -0.374   2.829   1.999  1.00  0.00     0.274 HD
ENDBRANCH   8   9
ENDBRANCH   1   8
TORSDOF 2
