REMARK  0 active torsions:
REMARK  status: ('A' for Active; 'I' for Inactive)
ROOT
HETATM    1  O   UNL     1       1.087   0.032   0.397  1.00  0.00    -0.298 OA
HETATM    2  C   UNL     1       2.294   0.032   0.137  1.00  0.00     0.127 C 
HETATM    3  C   UNL     1       3.050  -1.269  -0.004  1.00  0.00     0.078 C 
HETATM    4  C   UNL     1       3.050   1.333  -0.003  1.00  0.00     0.078 C 
HETATM    5  C   UNL     1       3.572   1.626  -1.404  1.00  0.00     0.007 C 
HETATM    6  C   UNL     1       3.571  -1.560  -1.405  1.00  0.00     0.007 C 
HETATM    7  C   UNL     1       2.571   1.336  -2.526  1.00  0.00     0.000 C 
HETATM    8  C   UNL     1       2.570  -1.269  -2.526  1.00  0.00     0.000 C 
HETATM    9  C   UNL     1       2.834   0.034  -3.289  1.00  0.00     0.000 C 
ENDROOT
TORSDOF 0
