REMARK  4 active torsions:
REMARK  status: ('A' for Active; 'I' for Inactive)
REMARK    1  A    between atoms: C_1  and  O_3 
REMARK    2  A    between atoms: C_2  and  C_8 
REMARK    3  A    between atoms: O_3  and  C_9 
REMARK    4  A    between atoms: C_8  and  C_10 
ROOT
HETATM    1  C   UNL     1       0.882  -1.090  -2.090  1.00  0.00     0.078 A 
HETATM    2  C   UNL     1       1.557  -1.503  -4.795  1.00  0.00    -0.048 A 
HETATM    3  C   UNL     1       2.199  -0.943  -2.516  1.00  0.00     0.037 A 
HETATM    4  C   UNL     1      -0.085  -1.500  -3.013  1.00  0.00     0.037 A 
HETATM    5  C   UNL     1       0.242  -1.700  -4.356  1.00  0.00     0.010 A 
HETATM    6  C   UNL     1       2.529  -1.120  -3.863  1.00  0.00     0.010 A 
ENDROOT
BRANCH   1   7
HETATM    7  O   UNL     1       0.416  -0.902  -0.826  1.00  0.00    -0.255 OA
BRANCH   7   8
HETATM    8  C   UNL     1       1.105  -0.037   0.066  1.00  0.00     0.530 C 
HETATM    9  F   UNL     1       2.034   0.748  -0.519  1.00  0.00    -0.144 F 
HETATM   10  F   UNL     1       1.699  -0.771   1.032  1.00  0.00    -0.144 F 
HETATM   11  F   UNL     1       0.199   0.776   0.656  1.00  0.00    -0.144 F 
ENDBRANCH   7   8
ENDBRANCH   1   7
BRANCH   2  12
HETATM   12  C   UNL     1       1.924  -1.677  -6.248  1.00  0.00     0.151 C 
BRANCH  12  13
HETATM   13  C   UNL     1       1.779  -0.419  -7.073  1.00  0.00     0.176 C 
HETATM   14  O   UNL     1       1.398   0.680  -6.716  1.00  0.00    -0.648 OA
HETATM   15  O   UNL     1       2.144  -0.626  -8.360  1.00  0.00    -0.648 OA
ENDBRANCH  12  13
ENDBRANCH   2  12
TORSDOF 4
