REMARK  7 active torsions:
REMARK  status: ('A' for Active; 'I' for Inactive)
REMARK    1  A    between atoms: C_1  and  C_6 
REMARK    2  A    between atoms: C_3  and  C_10 
REMARK    3  A    between atoms: C_6  and  N_7 
REMARK    4  A    between atoms: S_8  and  C_10 
REMARK    5  A    between atoms: S_8  and  C_11 
REMARK    6  A    between atoms: N_9  and  C_14 
REMARK    7  A    between atoms: C_11  and  C_14 
ROOT
HETATM    1  C   UNL     1      -0.123   1.136   0.059  1.00  0.00     0.079 A 
HETATM    2  O   UNL     1      -1.037   0.120   0.051  1.00  0.00    -0.317 OA
HETATM    3  C   UNL     1      -0.342  -1.053   0.053  1.00  0.00     0.062 A 
HETATM    4  C   UNL     1       1.154   0.617   0.104  1.00  0.00     0.037 A 
HETATM    5  C   UNL     1       1.017  -0.792   0.092  1.00  0.00     0.036 A 
ENDROOT
BRANCH   3   6
HETATM    6  C   UNL     1      -1.149  -2.294  -0.057  1.00  0.00     0.139 C 
BRANCH   6   7
HETATM    7  S   UNL     1      -0.911  -3.460   1.314  1.00  0.00    -0.161 SA
BRANCH   7   8
HETATM    8  C   UNL     1      -1.470  -2.455   2.739  1.00  0.00     0.101 C 
BRANCH   8   9
HETATM    9  C   UNL     1      -2.927  -1.971   2.696  1.00  0.00     0.239 C 
BRANCH   9  10
HETATM   10  N   UNL     1      -3.908  -3.053   2.598  1.00  0.00    -0.079 N 
HETATM   11  H   UNL     1      -4.848  -2.658   2.574  1.00  0.00     0.274 HD
HETATM   12  H   UNL     1      -3.818  -3.668   3.407  1.00  0.00     0.274 HD
HETATM   13  H   UNL     1      -3.742  -3.586   1.745  1.00  0.00     0.274 HD
ENDBRANCH   9  10
ENDBRANCH   8   9
ENDBRANCH   7   8
ENDBRANCH   6   7
ENDBRANCH   3   6
BRANCH   1  14
HETATM   14  C   UNL     1      -0.668   2.525  -0.029  1.00  0.00     0.298 C 
BRANCH  14  15
HETATM   15  N   UNL     1      -0.183   3.255  -1.218  1.00  0.00    -0.073 N 
HETATM   16  C   UNL     1      -0.639   2.620  -2.459  1.00  0.00     0.269 C 
HETATM   17  C   UNL     1      -0.654   4.642  -1.179  1.00  0.00     0.269 C 
HETATM   18  H   UNL     1       0.836   3.235  -1.203  1.00  0.00     0.279 HD
ENDBRANCH  14  15
ENDBRANCH   1  14
TORSDOF 7
