REMARK  0 active torsions:
REMARK  status: ('A' for Active; 'I' for Inactive)
ROOT
HETATM    1  N   UNL     1      -1.677  -0.501   0.280  1.00  0.00    -0.376 N 
ATOM      2  HN  UNL     1      -2.663  -0.677   0.473  1.00  0.00     0.164 HD
HETATM    3  N   UNL     1      -0.025  -0.063  -0.818  1.00  0.00    -0.379 N 
ATOM      4  HN  UNL     1      -1.024   0.002  -1.014  1.00  0.00     0.164 HD
HETATM    5  C   UNL     1       3.021   0.036  -0.105  1.00  0.00     0.036 A 
HETATM    6  C   UNL     1       1.720   0.144  -0.243  1.00  0.00     0.014 A 
HETATM    7  C   UNL     1      -0.647  -1.827  -0.191  1.00  0.00     0.084 A 
HETATM    8  C   UNL     1       0.471  -0.359   1.035  1.00  0.00     0.067 C 
HETATM    9  C   UNL     1      -1.050   1.123   0.427  1.00  0.00     0.084 A 
HETATM   10  C   UNL     1       1.008   0.099  -2.139  1.00  0.00     0.083 C 
HETATM   11  C   UNL     1       0.632   1.565   0.181  1.00  0.00     0.005 A 
HETATM   12  C   UNL     1       1.075  -1.630  -0.459  1.00  0.00     0.005 A 
HETATM   13  C   UNL     1       2.121  -0.256   1.314  1.00  0.00     0.050 A 
HETATM   14  C   UNL     1       2.584   0.112  -1.756  1.00  0.00    -0.003 C 
ENDROOT
TORSDOF 0
