REMARK  2 active torsions:
REMARK  status: ('A' for Active; 'I' for Inactive)
REMARK       I    between atoms: C_1  and  N_4 
REMARK    1  A    between atoms: C_1  and  C_3 
REMARK    2  A    between atoms: N_4  and  C_10 
ROOT
HETATM    1  N   UNL     1       0.022  -1.998   0.057  1.00  0.00    -0.058 N 
HETATM    2  C   UNL     1       0.320  -0.851   0.969  1.00  0.00     0.281 C 
HETATM    3  C   UNL     1      -0.858   0.080   1.325  1.00  0.00     0.082 C 
HETATM    4  C   UNL     1      -1.656   0.400   0.092  1.00  0.00    -0.048 A 
HETATM    5  C   UNL     1      -1.369  -2.020  -0.420  1.00  0.00     0.272 C 
HETATM    6  C   UNL     1      -1.889  -0.657  -0.802  1.00  0.00    -0.026 A 
HETATM    7  C   UNL     1      -2.186   1.668  -0.157  1.00  0.00     0.008 A 
HETATM    8  C   UNL     1      -2.650  -0.432  -1.952  1.00  0.00     0.009 A 
HETATM    9  C   UNL     1      -2.932   1.887  -1.314  1.00  0.00     0.001 A 
HETATM   10  C   UNL     1      -3.161   0.841  -2.210  1.00  0.00     0.001 A 
HETATM   11  H   UNL     1       0.204  -2.866   0.560  1.00  0.00     0.278 HD
HETATM   12  H   UNL     1       0.619  -1.894  -0.763  1.00  0.00     0.278 HD
ENDROOT
BRANCH   2  13
HETATM   13  C   UNL     1       0.979  -1.380   2.259  1.00  0.00     0.249 C 
HETATM   14  N   UNL     1       2.123  -2.126   2.029  1.00  0.00    -0.351 N 
HETATM   15  H   UNL     1       2.442  -2.199   1.100  1.00  0.00     0.163 HD
HETATM   16  O   UNL     1       0.518  -1.172   3.378  1.00  0.00    -0.271 OA
BRANCH  14  17
HETATM   17  C   UNL     1       2.897  -2.815   3.073  1.00  0.00     0.022 C 
HETATM   18  C   UNL     1       2.035  -3.890   3.757  1.00  0.00     0.037 C 
HETATM   19  C   UNL     1       4.101  -3.509   2.412  1.00  0.00     0.037 C 
HETATM   20  C   UNL     1       3.435  -1.828   4.123  1.00  0.00     0.037 C 
ENDBRANCH  14  17
ENDBRANCH   2  13
TORSDOF 2
