REMARK  3 active torsions:
REMARK  status: ('A' for Active; 'I' for Inactive)
REMARK    1  A    between atoms: C_1  and  C_4 
REMARK    2  A    between atoms: C_1  and  O_5 
REMARK    3  A    between atoms: O_5  and  C_10 
ROOT
HETATM    1  N   UNL     1      -1.625  -2.218  -0.635  1.00  0.00    -0.075 N 
HETATM    2  C   UNL     1       0.224  -0.621   0.981  1.00  0.00     0.088 C 
HETATM    3  C   UNL     1      -0.203  -2.555  -0.605  1.00  0.00     0.233 C 
HETATM    4  C   UNL     1      -1.852  -0.785  -0.455  1.00  0.00     0.233 C 
HETATM    5  C   UNL     1       0.446  -2.114   0.707  1.00  0.00     0.042 C 
HETATM    6  C   UNL     1      -1.274  -0.305   0.876  1.00  0.00     0.042 C 
HETATM    7  H   UNL     1      -2.011  -2.502  -1.536  1.00  0.00     0.277 HD
HETATM    8  H   UNL     1      -2.081  -2.708   0.134  1.00  0.00     0.277 HD
ENDROOT
BRANCH   2   9
HETATM    9  C   UNL     1       1.007   0.298   0.055  1.00  0.00     0.263 C 
HETATM   10  O   UNL     1       0.628   1.418  -0.271  1.00  0.00    -0.265 OA
BRANCH   9  11
HETATM   11  O   UNL     1       2.197  -0.244  -0.319  1.00  0.00    -0.322 OA
BRANCH  11  12
HETATM   12  C   UNL     1       3.002   0.586  -1.169  1.00  0.00     0.174 C 
HETATM   13  C   UNL     1       2.508   0.516  -2.603  1.00  0.00     0.034 C 
ENDBRANCH  11  12
ENDBRANCH   9  11
ENDBRANCH   2   9
TORSDOF 3
