REMARK  1 active torsions:
REMARK  status: ('A' for Active; 'I' for Inactive)
REMARK    1  A    between atoms: C_1  and  O_4 
ROOT
HETATM    1  C   UNL     1       0.033   0.446   0.004  1.00  0.00     0.109 A 
HETATM    2  C   UNL     1      -1.191  -0.231   0.005  1.00  0.00     0.068 A 
HETATM    3  C   UNL     1       1.224  -0.284   0.001  1.00  0.00     0.068 A 
HETATM    4 CL   UNL     1      -2.677   0.647   0.008  1.00  0.00    -0.081 Cl
HETATM    5 CL   UNL     1       2.761   0.500  -0.001  1.00  0.00    -0.081 Cl
HETATM    6  C   UNL     1      -0.036  -2.353  -0.001  1.00  0.00     0.003 A 
HETATM    7  C   UNL     1      -1.228  -1.627   0.004  1.00  0.00     0.027 A 
HETATM    8  C   UNL     1       1.188  -1.681  -0.003  1.00  0.00     0.027 A 
ENDROOT
BRANCH   1   9
HETATM    9  O   UNL     1       0.077   1.818   0.006  1.00  0.00    -0.357 OA
HETATM   10  H   UNL     1      -0.718   2.313   0.008  1.00  0.00     0.217 HD
ENDBRANCH   1   9
TORSDOF 1
