REMARK  2 active torsions:
REMARK  status: ('A' for Active; 'I' for Inactive)
REMARK    1  A    between atoms: C_1  and  C_7 
REMARK    2  A    between atoms: C_2  and  C_7 
ROOT
HETATM    1  C   UNL     1      -0.000  -1.866   0.059  1.00  0.00    -0.042 A 
HETATM    2  C   UNL     1       0.007   0.950  -0.022  1.00  0.00     0.084 A 
HETATM    3  C   UNL     1      -1.188   0.245  -0.021  1.00  0.00     0.119 A 
HETATM    4  C   UNL     1       1.198   0.240   0.002  1.00  0.00     0.119 A 
HETATM    5  C   UNL     1      -1.205  -1.149   0.013  1.00  0.00     0.050 A 
HETATM    6  C   UNL     1       1.208  -1.154   0.039  1.00  0.00     0.050 A 
HETATM    7  F   UNL     1       2.361   0.904  -0.005  1.00  0.00    -0.206 F 
HETATM    8  F   UNL     1      -2.348   0.914  -0.047  1.00  0.00    -0.206 F 
ENDROOT
BRANCH   1   9
HETATM    9  C   UNL     1      -0.002  -3.376   0.100  1.00  0.00     0.151 C 
BRANCH   9  10
HETATM   10  C   UNL     1       0.001  -4.018  -1.266  1.00  0.00     0.176 C 
HETATM   11  O   UNL     1       0.014  -3.468  -2.353  1.00  0.00    -0.648 OA
HETATM   12  O   UNL     1      -0.016  -5.365  -1.190  1.00  0.00    -0.648 OA
ENDBRANCH   9  10
ENDBRANCH   1   9
TORSDOF 2
