REMARK  1 active torsions:
REMARK  status: ('A' for Active; 'I' for Inactive)
REMARK    1  A    between atoms: C_1  and  C_3 
ROOT
HETATM    1  C   UNL     1      -0.155   1.132  -0.014  1.00  0.00     0.120 A 
HETATM    2  O   UNL     1      -1.051   0.097  -0.017  1.00  0.00    -0.319 OA
HETATM    3  C   UNL     1       1.131   0.625  -0.004  1.00  0.00     0.043 A 
HETATM    4  C   UNL     1      -0.334  -1.056  -0.008  1.00  0.00     0.142 A 
HETATM    5  C   UNL     1       1.013  -0.786  -0.000  1.00  0.00     0.027 A 
ENDROOT
BRANCH   1   6
HETATM    6  C   UNL     1      -0.639   2.495  -0.022  1.00  0.00     0.179 C 
HETATM    7  O   UNL     1       0.109   3.473  -0.021  1.00  0.00    -0.291 OA
HETATM    8  C   UNL     1      -2.138   2.677  -0.032  1.00  0.00     0.099 C 
ENDBRANCH   1   6
TORSDOF 1
