REMARK  1 active torsions:
REMARK  status: ('A' for Active; 'I' for Inactive)
REMARK    1  A    between atoms: C_3  and  O_7 
ROOT
HETATM    1  N   UNL     1      -1.659  -1.114  -0.000  1.00  0.00    -0.320 N 
ATOM      2  HN  UNL     1      -1.992  -2.078   0.002  1.00  0.00     0.169 HD
HETATM    3  C   UNL     1      -2.369  -0.019  -0.002  1.00  0.00     0.222 A 
HETATM    4  N   UNL     1      -1.616   1.113  -0.005  1.00  0.00    -0.320 N 
HETATM    5  C   UNL     1      -0.356  -0.668  -0.001  1.00  0.00     0.062 A 
HETATM    6  C   UNL     1      -0.300   0.725  -0.003  1.00  0.00     0.062 A 
HETATM    7  C   UNL     1       0.842  -1.399   0.001  1.00  0.00     0.032 A 
HETATM    8  C   UNL     1       0.896   1.446  -0.004  1.00  0.00     0.032 A 
HETATM    9  C   UNL     1       2.056  -0.699   0.001  1.00  0.00     0.002 A 
HETATM   10  C   UNL     1       2.079   0.698  -0.002  1.00  0.00     0.002 A 
HETATM   11  H   UNL     1      -1.952   2.038  -0.007  1.00  0.00     0.169 HD
ENDROOT
BRANCH   3  12
HETATM   12  O   UNL     1      -3.684  -0.015  -0.003  1.00  0.00    -0.332 OA
HETATM   13  H   UNL     1      -4.155  -0.826  -0.001  1.00  0.00     0.220 HD
ENDBRANCH   3  12
TORSDOF 1
