REMARK  0 active torsions:
REMARK  status: ('A' for Active; 'I' for Inactive)
ROOT
HETATM    1  C   UNL     1       1.022  -0.009  -0.009  1.00  0.00     0.131 C 
HETATM    2  O   UNL     1       2.211  -0.013   0.304  1.00  0.00    -0.298 OA
HETATM    3  O   UNL     1      -1.771   0.010  -0.140  1.00  0.00    -0.390 OA
HETATM    4  C   UNL     1       0.285   1.276  -0.286  1.00  0.00     0.104 C 
HETATM    5  C   UNL     1       0.272  -1.286  -0.286  1.00  0.00     0.104 C 
HETATM    6  C   UNL     1      -1.117  -1.179   0.311  1.00  0.00     0.175 C 
HETATM    7  C   UNL     1      -1.098   1.182   0.325  1.00  0.00     0.175 C 
ENDROOT
TORSDOF 0
