REMARK  3 active torsions:
REMARK  status: ('A' for Active; 'I' for Inactive)
REMARK    1  A    between atoms: C_1  and  O_3 
REMARK    2  A    between atoms: C_2  and  C_4 
REMARK    3  A    between atoms: O_3  and  C_6 
ROOT
HETATM    1  C   UNL     1       2.486   3.849  -1.392  1.00  0.00     0.012 A 
HETATM    2  C   UNL     1       2.193   2.487  -1.261  1.00  0.00     0.052 A 
HETATM    3  C   UNL     1       0.881   2.034  -1.383  1.00  0.00     0.079 A 
HETATM    4  C   UNL     1       1.466   4.748  -1.725  1.00  0.00     0.015 A 
HETATM    5  C   UNL     1       0.168   4.289  -1.925  1.00  0.00     0.004 A 
HETATM    6  C   UNL     1      -0.123   2.936  -1.748  1.00  0.00     0.037 A 
ENDROOT
BRANCH   3   7
HETATM    7  O   UNL     1       0.451   0.756  -1.185  1.00  0.00    -0.255 OA
BRANCH   7   8
HETATM    8  C   UNL     1       1.195  -0.098  -0.324  1.00  0.00     0.530 C 
HETATM    9  F   UNL     1       2.006   0.565   0.529  1.00  0.00    -0.144 F 
HETATM   10  F   UNL     1       1.937  -0.950  -1.061  1.00  0.00    -0.144 F 
HETATM   11  F   UNL     1       0.327  -0.821   0.417  1.00  0.00    -0.144 F 
ENDBRANCH   7   8
ENDBRANCH   3   7
BRANCH   1  12
HETATM   12  C   UNL     1       3.860   4.384  -1.143  1.00  0.00     0.155 C 
HETATM   13  O   UNL     1       4.099   5.574  -1.337  1.00  0.00    -0.293 OA
HETATM   14  C   UNL     1       4.925   3.445  -0.638  1.00  0.00     0.096 C 
ENDBRANCH   1  12
TORSDOF 3
