REMARK  3 active torsions:
REMARK  status: ('A' for Active; 'I' for Inactive)
REMARK    1  A    between atoms: C_1  and  C_3 
REMARK    2  A    between atoms: C_2  and  C_3 
REMARK    3  A    between atoms: C_4  and  O_7 
ROOT
HETATM    1  C   UNL     1      -0.529   1.844   0.040  1.00  0.00    -0.015 A 
HETATM    2  C   UNL     1      -1.644   1.451  -0.714  1.00  0.00     0.072 A 
HETATM    3  C   UNL     1      -0.210   3.213   0.079  1.00  0.00     0.010 A 
HETATM    4  C   UNL     1      -2.411   2.384  -1.410  1.00  0.00     0.037 A 
HETATM    5  C   UNL     1      -0.973   4.149  -0.624  1.00  0.00     0.001 A 
HETATM    6  C   UNL     1      -2.071   3.734  -1.372  1.00  0.00     0.003 A 
ENDROOT
BRANCH   1   7
HETATM    7  C   UNL     1       0.298   0.872   0.845  1.00  0.00     0.154 C 
BRANCH   7   8
HETATM    8  C   UNL     1       0.961  -0.193   0.000  1.00  0.00     0.177 C 
HETATM    9  O   UNL     1       0.333  -1.005  -0.669  1.00  0.00    -0.648 OA
HETATM   10  O   UNL     1       2.311  -0.191   0.041  1.00  0.00    -0.648 OA
ENDBRANCH   7   8
ENDBRANCH   1   7
BRANCH   2  11
HETATM   11  O   UNL     1      -2.061   0.153  -0.801  1.00  0.00    -0.360 OA
HETATM   12  H   UNL     1      -1.588  -0.522  -0.356  1.00  0.00     0.217 HD
ENDBRANCH   2  11
TORSDOF 3
