REMARK  7 active torsions:
REMARK  status: ('A' for Active; 'I' for Inactive)
REMARK    1  A    between atoms: C_1  and  N_3 
REMARK    2  A    between atoms: N_3  and  C_10 
REMARK    3  A    between atoms: N_3  and  C_11 
REMARK    4  A    between atoms: O_7  and  C_13 
REMARK    5  A    between atoms: O_8  and  C_14 
REMARK    6  A    between atoms: C_10  and  C_14 
REMARK    7  A    between atoms: C_11  and  C_13 
ROOT
HETATM    1  N   UNL     1       2.380   2.366  -0.042  1.00  0.00    -0.377 N 
ENDROOT
BRANCH   1   2
HETATM    2  C   UNL     1       1.770   1.117   0.048  1.00  0.00     0.031 A 
HETATM    3  C   UNL     1       0.566   0.846  -0.619  1.00  0.00     0.053 A 
HETATM    4  C   UNL     1      -0.008  -0.428  -0.592  1.00  0.00     0.036 A 
HETATM    5  C   UNL     1       0.591  -1.461   0.115  1.00  0.00     0.024 A 
HETATM    6 CL   UNL     1      -1.460  -0.724  -1.470  1.00  0.00    -0.084 Cl
HETATM    7  C   UNL     1       1.768  -1.212   0.810  1.00  0.00     0.004 A 
HETATM    8  C   UNL     1       2.345   0.063   0.774  1.00  0.00     0.029 A 
ENDBRANCH   1   2
BRANCH   1   9
HETATM    9  C   UNL     1       3.848   2.521   0.068  1.00  0.00     0.149 C 
BRANCH   9  10
HETATM   10  C   UNL     1       4.599   1.724  -1.013  1.00  0.00     0.183 C 
BRANCH  10  11
HETATM   11  O   UNL     1       4.149   2.083  -2.318  1.00  0.00    -0.399 OA
HETATM   12  H   UNL     1       4.636   1.568  -2.981  1.00  0.00     0.209 HD
ENDBRANCH  10  11
ENDBRANCH   9  10
ENDBRANCH   1   9
BRANCH   1  13
HETATM   13  C   UNL     1       1.566   3.605  -0.042  1.00  0.00     0.149 C 
BRANCH  13  14
HETATM   14  C   UNL     1       0.833   3.817   1.292  1.00  0.00     0.183 C 
BRANCH  14  15
HETATM   15  O   UNL     1       1.758   3.867   2.377  1.00  0.00    -0.399 OA
HETATM   16  H   UNL     1       1.276   4.001   3.208  1.00  0.00     0.209 HD
ENDBRANCH  14  15
ENDBRANCH  13  14
ENDBRANCH   1  13
TORSDOF 7
