REMARK  6 active torsions:
REMARK  status: ('A' for Active; 'I' for Inactive)
REMARK    1  A    between atoms: C_1  and  O_6 
REMARK    2  A    between atoms: C_1  and  C_2 
REMARK    3  A    between atoms: C_2  and  C_4 
REMARK    4  A    between atoms: C_2  and  N_5 
REMARK    5  A    between atoms: C_4  and  C_7 
REMARK    6  A    between atoms: O_6  and  C_8 
ROOT
HETATM    1  C   UNL     1      -0.015  -0.117  -1.423  1.00  0.00     0.286 C 
ENDROOT
BRANCH   1   2
HETATM    2  C   UNL     1      -0.983  -1.287  -1.459  1.00  0.00     0.289 C 
HETATM    3  O   UNL     1      -1.109  -1.993  -0.471  1.00  0.00    -0.263 OA
BRANCH   2   4
HETATM    4  O   UNL     1      -1.702  -1.534  -2.588  1.00  0.00    -0.320 OA
BRANCH   4   5
HETATM    5  C   UNL     1      -2.682  -2.503  -2.748  1.00  0.00     0.174 C 
HETATM    6  C   UNL     1      -2.142  -3.928  -2.605  1.00  0.00     0.034 C 
ENDBRANCH   4   5
ENDBRANCH   2   4
ENDBRANCH   1   2
BRANCH   1   7
HETATM    7  C   UNL     1      -0.767   1.220  -1.564  1.00  0.00     0.081 C 
BRANCH   7   8
HETATM    8  C   UNL     1       0.162   2.411  -1.468  1.00  0.00    -0.056 A 
HETATM    9  C   UNL     1       0.773   2.932  -2.623  1.00  0.00     0.007 A 
HETATM   10  C   UNL     1       1.618   4.045  -2.536  1.00  0.00     0.001 A 
HETATM   11  C   UNL     1       1.863   4.644  -1.300  1.00  0.00     0.000 A 
HETATM   12  C   UNL     1       1.263   4.133  -0.145  1.00  0.00     0.001 A 
HETATM   13  C   UNL     1       0.414   3.023  -0.226  1.00  0.00     0.007 A 
ENDBRANCH   7   8
ENDBRANCH   1   7
BRANCH   1  14
HETATM   14  N   UNL     1       0.999  -0.254  -2.466  1.00  0.00    -0.066 N 
HETATM   15  H   UNL     1       0.548  -0.251  -3.381  1.00  0.00     0.275 HD
HETATM   16  H   UNL     1       1.503  -1.131  -2.338  1.00  0.00     0.275 HD
HETATM   17  H   UNL     1       1.654   0.526  -2.407  1.00  0.00     0.275 HD
ENDBRANCH   1  14
TORSDOF 6
