REMARK  3 active torsions:
REMARK  status: ('A' for Active; 'I' for Inactive)
REMARK    1  A    between atoms: C_1  and  O_2 
REMARK    2  A    between atoms: O_2  and  C_3 
REMARK    3  A    between atoms: C_4  and  N_8 
ROOT
HETATM    1  C   UNL     1       0.885   2.408  -0.715  1.00  0.00     0.104 A 
HETATM    2  C   UNL     1       2.221   2.763  -0.423  1.00  0.00     0.059 A 
HETATM    3  C   UNL     1      -0.073   3.406  -0.893  1.00  0.00     0.039 A 
HETATM    4  C   UNL     1       2.555   4.113  -0.301  1.00  0.00     0.032 A 
HETATM    5  C   UNL     1       0.268   4.750  -0.722  1.00  0.00     0.003 A 
HETATM    6  C   UNL     1       1.579   5.104  -0.411  1.00  0.00     0.002 A 
ENDROOT
BRANCH   1   7
HETATM    7  O   UNL     1       0.647   1.061  -0.792  1.00  0.00    -0.253 OA
BRANCH   7   8
HETATM    8  C   UNL     1      -0.674   0.614  -0.533  1.00  0.00     0.530 C 
HETATM    9  F   UNL     1      -1.332   1.387   0.360  1.00  0.00    -0.144 F 
HETATM   10  F   UNL     1      -0.608  -0.635  -0.017  1.00  0.00    -0.144 F 
HETATM   11  F   UNL     1      -1.380   0.560  -1.681  1.00  0.00    -0.144 F 
ENDBRANCH   7   8
ENDBRANCH   1   7
BRANCH   2  12
HETATM   12  N   UNL     1       3.242   1.798  -0.467  1.00  0.00    -0.397 N 
HETATM   13  H   UNL     1       3.014   0.844  -0.553  1.00  0.00     0.156 HD
HETATM   14  H   UNL     1       4.185   2.076  -0.413  1.00  0.00     0.156 HD
ENDBRANCH   2  12
TORSDOF 3
