REMARK  0 active torsions:
REMARK  status: ('A' for Active; 'I' for Inactive)
ROOT
HETATM    1  S   UNL     1      -0.412  -1.566  -0.080  1.00  0.00    -0.039 SA
HETATM    2  C   UNL     1       1.035  -0.640  -0.088  1.00  0.00     0.158 A 
HETATM    3  N   UNL     1       0.833   0.656  -0.015  1.00  0.00    -0.279 N 
ATOM      4  HN  UNL     1       1.584   1.346   0.002  1.00  0.00     0.189 HD
HETATM    5  N   UNL     1      -0.508   0.983   0.036  1.00  0.00    -0.296 N 
ATOM      6  HN  UNL     1      -0.861   1.938   0.096  1.00  0.00     0.187 HD
HETATM    7  C   UNL     1      -1.276  -0.085  -0.002  1.00  0.00     0.066 A 
HETATM    8  N   UNL     1       2.246  -1.223  -0.150  1.00  0.00    -0.379 N 
HETATM    9  C   UNL     1      -2.759  -0.053   0.014  1.00  0.00     0.078 C 
HETATM   10  H   UNL     1       2.319  -2.203  -0.203  1.00  0.00     0.158 HD
HETATM   11  H   UNL     1       3.060  -0.669  -0.142  1.00  0.00     0.158 HD
ENDROOT
TORSDOF 0
