REMARK  1 active torsions:
REMARK  status: ('A' for Active; 'I' for Inactive)
REMARK    1  A    between atoms: C_3  and  N_5 
ROOT
HETATM    1  N   UNL     1      -1.228  -0.951  -0.039  1.00  0.00    -0.353 N 
ATOM      2  HN  UNL     1      -2.144  -1.400  -0.047  1.00  0.00     0.166 HD
HETATM    3  C   UNL     1      -1.101   0.384  -0.101  1.00  0.00     0.098 A 
HETATM    4  C   UNL     1       0.130   1.026  -0.096  1.00  0.00     0.054 A 
HETATM    5  C   UNL     1      -0.089  -1.674   0.034  1.00  0.00     0.090 A 
HETATM    6  C   UNL     1       1.299   0.264  -0.014  1.00  0.00    -0.057 A 
HETATM    7  C   UNL     1       1.181  -1.122   0.052  1.00  0.00     0.024 A 
HETATM    8  C   UNL     1       2.637   0.937   0.004  1.00  0.00     0.048 C 
ENDROOT
BRANCH   3   9
HETATM    9  N   UNL     1      -2.280   1.116  -0.221  1.00  0.00    -0.385 N 
HETATM   10  H   UNL     1      -3.149   0.653  -0.224  1.00  0.00     0.157 HD
HETATM   11  H   UNL     1      -2.244   2.097  -0.303  1.00  0.00     0.157 HD
ENDBRANCH   3   9
TORSDOF 1
