REMARK  2 active torsions:
REMARK  status: ('A' for Active; 'I' for Inactive)
REMARK    1  A    between atoms: C_1  and  C_4 
REMARK    2  A    between atoms: C_4  and  O_5 
ROOT
HETATM    1  C   UNL     1       0.269   1.211  -0.003  1.00  0.00    -0.013 A 
HETATM    2  C   UNL     1      -0.393  -0.025  -0.012  1.00  0.00     0.042 A 
HETATM    3 CL   UNL     1      -2.116  -0.149  -0.021  1.00  0.00    -0.084 Cl
HETATM    4  C   UNL     1       1.678   1.212   0.012  1.00  0.00     0.011 A 
HETATM    5  C   UNL     1       0.334  -1.222  -0.004  1.00  0.00     0.024 A 
HETATM    6  C   UNL     1       2.400   0.017   0.018  1.00  0.00     0.001 A 
HETATM    7  C   UNL     1       1.728  -1.201   0.008  1.00  0.00     0.002 A 
ENDROOT
BRANCH   1   8
HETATM    8  C   UNL     1      -0.441   2.538  -0.036  1.00  0.00     0.204 C 
BRANCH   8   9
HETATM    9  O   UNL     1      -0.118   3.296   1.125  1.00  0.00    -0.396 OA
HETATM   10  H   UNL     1      -0.398   2.809   1.917  1.00  0.00     0.209 HD
ENDBRANCH   8   9
ENDBRANCH   1   8
TORSDOF 2
