REMARK  1 active torsions:
REMARK  status: ('A' for Active; 'I' for Inactive)
REMARK    1  A    between atoms: C_3  and  O_5 
ROOT
HETATM    1  N   UNL     1       1.186  -0.744  -0.077  1.00  0.00    -0.341 N 
ATOM      2  HN  UNL     1       2.058  -1.272  -0.103  1.00  0.00     0.167 HD
HETATM    3  C   UNL     1      -0.008  -1.351   0.011  1.00  0.00     0.140 A 
HETATM    4  C   UNL     1       1.168   0.609  -0.130  1.00  0.00     0.007 A 
HETATM    5  C   UNL     1      -1.230   0.671  -0.000  1.00  0.00     0.006 A 
HETATM    6  C   UNL     1      -1.230  -0.716   0.048  1.00  0.00     0.056 A 
HETATM    7  C   UNL     1      -0.014   1.348  -0.089  1.00  0.00     0.025 A 
HETATM    8  C   UNL     1       2.486   1.312  -0.256  1.00  0.00     0.068 C 
ENDROOT
BRANCH   3   9
HETATM    9  O   UNL     1       0.067  -2.703   0.067  1.00  0.00    -0.346 OA
HETATM   10  H   UNL     1       0.902  -3.127   0.041  1.00  0.00     0.219 HD
ENDBRANCH   3   9
TORSDOF 1
