REMARK  3 active torsions:
REMARK  status: ('A' for Active; 'I' for Inactive)
REMARK    1  A    between atoms: C_1  and  C_3 
REMARK    2  A    between atoms: C_2  and  N_8 
REMARK    3  A    between atoms: C_3  and  O_9 
ROOT
HETATM    1  C   UNL     1      -0.252   1.122   0.003  1.00  0.00     0.106 A 
HETATM    2  C   UNL     1      -1.178   0.092   0.001  1.00  0.00     0.049 A 
HETATM    3  S   UNL     1       1.351   0.489   0.003  1.00  0.00    -0.094 SA
HETATM    4  C   UNL     1      -0.578  -1.196   0.000  1.00  0.00     0.038 A 
HETATM    5  C   UNL     1       0.796  -1.126   0.002  1.00  0.00     0.053 A 
ENDROOT
BRANCH   1   6
HETATM    6  C   UNL     1      -0.422   2.564   0.006  1.00  0.00     0.302 C 
HETATM    7  O   UNL     1       0.471   3.406   0.006  1.00  0.00    -0.259 OA
BRANCH   6   8
HETATM    8  O   UNL     1      -1.755   2.888   0.009  1.00  0.00    -0.322 OA
HETATM    9  C   UNL     1      -2.025   4.290   0.013  1.00  0.00     0.213 C 
ENDBRANCH   6   8
ENDBRANCH   1   6
BRANCH   2  10
HETATM   10  N   UNL     1      -2.515   0.251  -0.001  1.00  0.00    -0.398 N 
HETATM   11  H   UNL     1      -2.903   1.156  -0.001  1.00  0.00     0.156 HD
HETATM   12  H   UNL     1      -3.105  -0.537  -0.003  1.00  0.00     0.156 HD
ENDBRANCH   2  10
TORSDOF 3
