REMARK  3 active torsions:
REMARK  status: ('A' for Active; 'I' for Inactive)
REMARK    1  A    between atoms: C_1  and  O_8 
REMARK    2  A    between atoms: C_3  and  N_6 
REMARK    3  A    between atoms: C_5  and  O_9 
ROOT
HETATM    1  C   UNL     1       0.346   1.178  -0.000  1.00  0.00     0.097 A 
HETATM    2  C   UNL     1      -1.064   1.223  -0.039  1.00  0.00     0.075 A 
HETATM    3  C   UNL     1       1.000  -0.070   0.011  1.00  0.00     0.059 A 
HETATM    4  C   UNL     1       0.200  -1.227   0.065  1.00  0.00     0.035 A 
HETATM    5  C   UNL     1      -1.837   0.065  -0.036  1.00  0.00     0.070 A 
HETATM    6  C   UNL     1      -1.194  -1.164   0.018  1.00  0.00     0.039 A 
ENDROOT
BRANCH   3   7
HETATM    7  N   UNL     1       2.384  -0.264   0.179  1.00  0.00    -0.397 N 
HETATM    8  H   UNL     1       2.995   0.507   0.152  1.00  0.00     0.156 HD
HETATM    9  H   UNL     1       2.740  -1.170   0.325  1.00  0.00     0.156 HD
ENDBRANCH   3   7
BRANCH   1  10
HETATM   10  O   UNL     1       0.867   2.445   0.025  1.00  0.00    -0.354 OA
HETATM   11  C   UNL     1       2.263   2.657   0.075  1.00  0.00     0.210 C 
ENDBRANCH   1  10
BRANCH   5  12
HETATM   12  O   UNL     1      -3.201   0.001  -0.065  1.00  0.00    -0.356 OA
HETATM   13  C   UNL     1      -3.903   1.237  -0.038  1.00  0.00     0.210 C 
ENDBRANCH   5  12
TORSDOF 3
