REMARK  2 active torsions:
REMARK  status: ('A' for Active; 'I' for Inactive)
REMARK    1  A    between atoms: C_1  and  C_2 
REMARK    2  A    between atoms: C_5  and  N_6 
ROOT
HETATM    1  C   UNL     1       0.550  -0.058   1.420  1.00  0.00    -0.051 A 
HETATM    2  C   UNL     1       0.169   1.038   2.210  1.00  0.00     0.010 A 
HETATM    3  C   UNL     1       0.425  -1.334   1.998  1.00  0.00     0.010 A 
HETATM    4  C   UNL     1      -0.368  -0.402   4.097  1.00  0.00     0.025 A 
HETATM    5  C   UNL     1      -0.047  -1.503   3.306  1.00  0.00     0.029 A 
HETATM    6  C   UNL     1      -0.303   0.864   3.518  1.00  0.00     0.029 A 
ENDROOT
BRANCH   1   7
HETATM    7  C   UNL     1       1.060   0.095  -0.024  1.00  0.00    -0.024 C 
HETATM    8  C   UNL     1       1.127   1.561  -0.508  1.00  0.00     0.019 C 
HETATM    9  C   UNL     1       0.124  -0.662  -0.991  1.00  0.00     0.019 C 
HETATM   10  C   UNL     1       2.484  -0.489  -0.137  1.00  0.00     0.019 C 
ENDBRANCH   1   7
BRANCH   4  11
HETATM   11  N   UNL     1      -0.963  -0.577   5.351  1.00  0.00    -0.399 N 
HETATM   12  H   UNL     1      -1.006  -1.474   5.755  1.00  0.00     0.156 HD
HETATM   13  H   UNL     1      -1.338   0.197   5.831  1.00  0.00     0.156 HD
ENDBRANCH   4  11
TORSDOF 2
