REMARK  1 active torsions:
REMARK  status: ('A' for Active; 'I' for Inactive)
REMARK    1  A    between atoms: C_5  and  O_9 
ROOT
HETATM    1  C   UNL     1      -1.389  -0.045  -0.029  1.00  0.00     0.075 A 
HETATM    2  C   UNL     1      -0.760   1.202  -0.031  1.00  0.00     0.063 A 
HETATM    3  C   UNL     1      -0.627  -1.213  -0.005  1.00  0.00     0.138 A 
HETATM    4  C   UNL     1       0.763  -1.151   0.019  1.00  0.00     0.047 A 
HETATM    5  C   UNL     1       0.632   1.255  -0.016  1.00  0.00     0.067 A 
HETATM    6 CL   UNL     1      -3.110  -0.120  -0.059  1.00  0.00    -0.081 Cl
HETATM    7  F   UNL     1      -1.218  -2.417  -0.007  1.00  0.00    -0.204 F 
HETATM    8  C   UNL     1       1.397   0.091   0.014  1.00  0.00     0.039 A 
ENDROOT
BRANCH   5   9
HETATM    9  O   UNL     1       1.296   2.446  -0.035  1.00  0.00    -0.361 OA
HETATM   10  H   UNL     1       0.816   3.250  -0.055  1.00  0.00     0.217 HD
ENDBRANCH   5   9
TORSDOF 1
