REMARK  1 active torsions:
REMARK  status: ('A' for Active; 'I' for Inactive)
REMARK    1  A    between atoms: C_1  and  C_4 
ROOT
HETATM    1  C   UNL     1      -1.437   0.680  -0.014  1.00  0.00     0.087 A 
HETATM    2  N   UNL     1      -0.123   1.144  -0.015  1.00  0.00    -0.343 N 
ATOM      3  HN  UNL     1       0.182   2.117  -0.019  1.00  0.00     0.167 HD
HETATM    4  C   UNL     1      -1.427  -0.701  -0.007  1.00  0.00     0.122 A 
HETATM    5  C   UNL     1       0.646   0.075  -0.009  1.00  0.00     0.077 A 
HETATM    6  N   UNL     1      -0.111  -1.067  -0.004  1.00  0.00    -0.354 N 
HETATM    7  C   UNL     1       2.128   0.034  -0.009  1.00  0.00     0.089 C 
HETATM    8  H   UNL     1       0.233  -1.990   0.001  1.00  0.00     0.166 HD
ENDROOT
BRANCH   1   9
HETATM    9  C   UNL     1      -2.564   1.603  -0.020  1.00  0.00     0.122 C 
HETATM   10  S   UNL     1      -4.137   1.075  -0.020  1.00  0.00    -0.059 SA
HETATM   11  N   UNL     1      -2.245   2.929  -0.026  1.00  0.00    -0.388 N 
HETATM   12  H   UNL     1      -1.301   3.209  -0.027  1.00  0.00     0.157 HD
HETATM   13  H   UNL     1      -2.959   3.607  -0.031  1.00  0.00     0.157 HD
ENDBRANCH   1   9
TORSDOF 1
