REMARK  3 active torsions:
REMARK  status: ('A' for Active; 'I' for Inactive)
REMARK    1  A    between atoms: C_3  and  C_7 
REMARK    2  A    between atoms: C_4  and  C_9 
REMARK    3  A    between atoms: C_7  and  C_8 
REMARK       I    between atoms: C_8  and  N_13 
ROOT
HETATM    1  N   UNL     1       1.421  -0.603   0.048  1.00  0.00    -0.352 N 
ATOM      2  HN  UNL     1       2.303  -1.115   0.077  1.00  0.00     0.166 HD
HETATM    3  C   UNL     1       0.225  -1.157   0.034  1.00  0.00     0.060 A 
HETATM    4  C   UNL     1       1.304   0.778   0.018  1.00  0.00     0.049 A 
HETATM    5  S   UNL     1      -1.097  -0.056  -0.000  1.00  0.00    -0.086 SA
HETATM    6  C   UNL     1       0.005   1.253   0.010  1.00  0.00     0.081 A 
ENDROOT
BRANCH   4   7
HETATM    7  C   UNL     1       2.473   1.642   0.003  1.00  0.00    -0.009 A 
HETATM    8  C   UNL     1       2.426   2.909  -0.600  1.00  0.00     0.017 A 
HETATM    9  C   UNL     1       3.556   3.726  -0.620  1.00  0.00     0.043 A 
HETATM   10  C   UNL     1       4.732   3.278  -0.037  1.00  0.00     0.116 A 
HETATM   11  C   UNL     1       4.803   2.029   0.569  1.00  0.00     0.043 A 
HETATM   12  F   UNL     1       5.816   4.065  -0.056  1.00  0.00    -0.206 F 
HETATM   13  C   UNL     1       3.672   1.209   0.588  1.00  0.00     0.017 A 
ENDBRANCH   4   7
BRANCH   3  14
HETATM   14  C   UNL     1      -0.016  -2.629   0.016  1.00  0.00     0.167 C 
BRANCH  14  15
HETATM   15  C   UNL     1      -0.095  -3.168   1.425  1.00  0.00     0.221 C 
HETATM   16  O   UNL     1      -1.093  -3.744   1.865  1.00  0.00    -0.273 OA
HETATM   17  N   UNL     1       1.030  -3.074   2.189  1.00  0.00    -0.370 N 
HETATM   18  H   UNL     1       1.827  -2.614   1.837  1.00  0.00     0.159 HD
HETATM   19  H   UNL     1       1.047  -3.466   3.091  1.00  0.00     0.159 HD
ENDBRANCH  14  15
ENDBRANCH   3  14
TORSDOF 3
