REMARK  1 active torsions:
REMARK  status: ('A' for Active; 'I' for Inactive)
REMARK    1  A    between atoms: C_1  and  CA_3 
ROOT
ATOM      1  N   PRO A   1       0.772  -2.395  -0.555  1.00  0.00    -0.061 N 
ATOM      2  CA  PRO A   1       0.255  -1.009  -0.784  1.00  0.00     0.285 C 
ATOM      3  CD  PRO A   1      -0.379  -3.308  -0.697  1.00  0.00     0.233 C 
ATOM      4  CB  PRO A   1      -1.215  -1.059  -0.427  1.00  0.00     0.046 C 
ATOM      5  CG  PRO A   1      -1.641  -2.469  -0.784  1.00  0.00     0.030 C 
ATOM      6  H1  PRO A   1       1.167  -2.471   0.382  1.00  0.00     0.278 HD
ATOM      7  H2  PRO A   1       1.507  -2.626  -1.223  1.00  0.00     0.278 HD
ENDROOT
BRANCH   2   8
ATOM      8  C   PRO A   1       0.498  -0.599  -2.245  1.00  0.00     0.204 C 
ATOM      9  O   PRO A   1       0.080   0.423  -2.764  1.00  0.00    -0.646 OA
ATOM     10  OXT PRO A   1       1.265  -1.507  -2.900  1.00  0.00    -0.646 OA
ENDBRANCH   2   8
TORSDOF 1
