REMARK  3 active torsions:
REMARK  status: ('A' for Active; 'I' for Inactive)
REMARK    1  A    between atoms: C_1  and  C_3 
REMARK    2  A    between atoms: C_2  and  N_7 
REMARK    3  A    between atoms: N_7  and  N_11 
ROOT
HETATM    1  C   UNL     1      -0.040   1.594  -3.276  1.00  0.00     0.117 A 
HETATM    2  C   UNL     1       0.462   0.182  -1.365  1.00  0.00     0.052 A 
HETATM    3  C   UNL     1       0.370   1.453  -1.951  1.00  0.00     0.066 A 
HETATM    4  N   UNL     1      -0.357   0.495  -4.012  1.00  0.00    -0.351 N 
ATOM      5  HN  UNL     1      -0.647   0.589  -4.985  1.00  0.00     0.166 HD
HETATM    6  C   UNL     1      -0.281  -0.721  -3.434  1.00  0.00     0.090 A 
HETATM    7  C   UNL     1       0.120  -0.932  -2.131  1.00  0.00     0.033 A 
ENDROOT
BRANCH   1   8
HETATM    8  N   UNL     1      -0.114   2.847  -3.907  1.00  0.00    -0.305 N 
HETATM    9  C   UNL     1      -0.007   4.087  -3.151  1.00  0.00     0.173 C 
BRANCH   8  10
HETATM   10  N   UNL     1      -0.613   2.896  -5.234  1.00  0.00    -0.246 NA
HETATM   11  H   UNL     1      -0.627   1.954  -5.626  1.00  0.00     0.143 HD
HETATM   12  H   UNL     1      -0.011   3.492  -5.802  1.00  0.00     0.143 HD
ENDBRANCH   8  10
ENDBRANCH   1   8
BRANCH   2  13
HETATM   13  C   UNL     1       0.931   0.016   0.054  1.00  0.00     0.417 C 
HETATM   14  F   UNL     1       1.245   1.192   0.664  1.00  0.00    -0.166 F 
HETATM   15  F   UNL     1       2.046  -0.760   0.144  1.00  0.00    -0.166 F 
HETATM   16  F   UNL     1      -0.004  -0.577   0.846  1.00  0.00    -0.166 F 
ENDBRANCH   2  13
TORSDOF 3
