REMARK  0 active torsions:
REMARK  status: ('A' for Active; 'I' for Inactive)
ROOT
HETATM    1  S   UNL     1      -1.337   1.706   0.121  1.00  0.00     0.176 S 
HETATM    2  C   UNL     1       0.129   0.729   0.075  1.00  0.00     0.073 A 
HETATM    3  C   UNL     1       0.065  -0.663  -0.008  1.00  0.00     0.033 A 
HETATM    4  C   UNL     1      -1.216  -1.420  -0.021  1.00  0.00     0.162 C 
HETATM    5  C   UNL     1      -2.610   0.592  -0.400  1.00  0.00     0.153 C 
HETATM    6  O   UNL     1      -1.198   2.728  -0.896  1.00  0.00    -0.223 OA
HETATM    7  O   UNL     1      -1.560   2.038   1.512  1.00  0.00    -0.223 OA
HETATM    8  C   UNL     1       1.360   1.396   0.089  1.00  0.00     0.026 A 
HETATM    9  C   UNL     1      -2.490  -0.707   0.356  1.00  0.00     0.099 C 
HETATM   10  C   UNL     1       1.262  -1.393  -0.077  1.00  0.00     0.040 A 
HETATM   11  O   UNL     1      -1.215  -2.616  -0.297  1.00  0.00    -0.292 OA
HETATM   12  C   UNL     1       2.489  -0.730  -0.052  1.00  0.00     0.035 A 
HETATM   13  C   UNL     1       2.543   0.661   0.030  1.00  0.00     0.025 A 
HETATM   14 CL   UNL     1       3.951  -1.634  -0.117  1.00  0.00    -0.084 Cl
ENDROOT
TORSDOF 0
