REMARK  2 active torsions:
REMARK  status: ('A' for Active; 'I' for Inactive)
REMARK    1  A    between atoms: C_1  and  C_4 
REMARK    2  A    between atoms: C_1  and  C_5 
ROOT
HETATM    1  N   UNL     1       3.573   0.325  -2.955  1.00  0.00    -0.075 N 
HETATM    2  C   UNL     1       2.482   0.224  -0.229  1.00  0.00     0.064 C 
HETATM    3  C   UNL     1       2.897   1.497  -2.375  1.00  0.00     0.233 C 
HETATM    4  C   UNL     1       2.972  -0.923  -2.468  1.00  0.00     0.233 C 
HETATM    5  C   UNL     1       3.080   1.505  -0.845  1.00  0.00     0.040 C 
HETATM    6  C   UNL     1       3.091  -1.004  -0.940  1.00  0.00     0.040 C 
HETATM    7  H   UNL     1       4.559   0.345  -2.693  1.00  0.00     0.277 HD
HETATM    8  H   UNL     1       3.472   0.361  -3.969  1.00  0.00     0.277 HD
ENDROOT
BRANCH   2   9
HETATM    9  C   UNL     1       0.952   0.289  -0.231  1.00  0.00     0.163 C 
HETATM   10  O   UNL     1       0.326  -0.350  -1.066  1.00  0.00    -0.292 OA
BRANCH   9  11
HETATM   11  C   UNL     1       0.184   1.046   0.816  1.00  0.00     0.010 A 
HETATM   12  C   UNL     1       0.822   1.631   1.936  1.00  0.00     0.015 A 
HETATM   13  C   UNL     1       0.076   2.276   2.928  1.00  0.00     0.001 A 
HETATM   14  C   UNL     1      -1.310   2.368   2.818  1.00  0.00     0.000 A 
HETATM   15  C   UNL     1      -1.957   1.816   1.712  1.00  0.00     0.001 A 
HETATM   16  C   UNL     1      -1.220   1.155   0.722  1.00  0.00     0.015 A 
ENDBRANCH   9  11
ENDBRANCH   2   9
TORSDOF 2
