REMARK  1 active torsions:
REMARK  status: ('A' for Active; 'I' for Inactive)
REMARK    1  A    between atoms: C_3  and  C_7 
ROOT
HETATM    1  N   UNL     1      -1.004   0.568  -0.214  1.00  0.00    -0.354 N 
ATOM      2  HN  UNL     1      -1.792   1.117  -0.558  1.00  0.00     0.166 HD
HETATM    3  C   UNL     1       0.573  -1.031   0.041  1.00  0.00     0.102 A 
HETATM    4  C   UNL     1      -0.225   0.816   0.812  1.00  0.00     0.233 A 
HETATM    5  O   UNL     1       0.750  -0.106   1.039  1.00  0.00    -0.304 OA
HETATM    6  C   UNL     1      -0.503  -0.608  -0.712  1.00  0.00     0.127 A 
ENDROOT
BRANCH   3   7
HETATM    7  C   UNL     1       1.497  -2.155  -0.006  1.00  0.00    -0.001 A 
HETATM    8  C   UNL     1       1.418  -3.091  -1.049  1.00  0.00     0.014 A 
HETATM    9  C   UNL     1       2.306  -4.168  -1.115  1.00  0.00     0.001 A 
HETATM   10  C   UNL     1       3.283  -4.326  -0.137  1.00  0.00     0.000 A 
HETATM   11  C   UNL     1       3.375  -3.409   0.907  1.00  0.00     0.001 A 
HETATM   12  C   UNL     1       2.488  -2.330   0.971  1.00  0.00     0.014 A 
ENDBRANCH   3   7
TORSDOF 1
