REMARK  3 active torsions:
REMARK  status: ('A' for Active; 'I' for Inactive)
REMARK    1  A    between atoms: C_1  and  N_2 
REMARK    2  A    between atoms: C_1  and  N_6 
REMARK    3  A    between atoms: N_2  and  C_7 
ROOT
HETATM    1  N   UNL     1      -4.055   1.416  -0.132  1.00  0.00    -0.375 N 
ATOM      2  HN  UNL     1      -5.067   1.546  -0.125  1.00  0.00     0.164 HD
HETATM    3  C   UNL     1      -1.275   1.013  -0.174  1.00  0.00     0.036 A 
HETATM    4  C   UNL     1      -2.060   0.442   0.821  1.00  0.00     0.046 A 
HETATM    5  C   UNL     1      -1.896   1.829  -1.122  1.00  0.00     0.046 A 
HETATM    6  C   UNL     1      -3.273   1.987  -1.067  1.00  0.00     0.090 A 
HETATM    7  C   UNL     1      -3.429   0.663   0.796  1.00  0.00     0.090 A 
ENDROOT
BRANCH   3   8
HETATM    8  N   UNL     1       0.125   0.848  -0.286  1.00  0.00    -0.333 N 
HETATM    9  H   UNL     1       0.582   1.561  -0.788  1.00  0.00     0.168 HD
BRANCH   8  10
HETATM   10  C   UNL     1       0.956  -0.139   0.189  1.00  0.00     0.169 C 
HETATM   11  S   UNL     1       0.613  -1.594   0.914  1.00  0.00    -0.041 SA
BRANCH  10  12
HETATM   12  N   UNL     1       2.270   0.142  -0.072  1.00  0.00    -0.376 N 
HETATM   13  H   UNL     1       2.515   0.994  -0.501  1.00  0.00     0.158 HD
HETATM   14  H   UNL     1       2.970  -0.507   0.169  1.00  0.00     0.158 HD
ENDBRANCH  10  12
ENDBRANCH   8  10
ENDBRANCH   3   8
TORSDOF 3
