REMARK  2 active torsions:
REMARK  status: ('A' for Active; 'I' for Inactive)
REMARK    1  A    between atoms: C_2  and  C_8 
REMARK    2  A    between atoms: C_13  and  O_16 
ROOT
HETATM    1  C   UNL     1      -0.136   0.840   0.092  1.00  0.00    -0.010 A 
HETATM    2  C   UNL     1      -1.556   1.369   0.058  1.00  0.00     0.253 C 
HETATM    3  C   UNL     1       0.140  -0.516   0.034  1.00  0.00    -0.007 A 
HETATM    4  S   UNL     1       1.799  -0.874   0.079  1.00  0.00    -0.106 SA
HETATM    5  N   UNL     1      -2.513   0.313  -0.332  1.00  0.00    -0.062 N 
HETATM    6  C   UNL     1       1.076   1.583   0.288  1.00  0.00     0.018 A 
HETATM    7  C   UNL     1       2.195   0.778   0.273  1.00  0.00     0.051 A 
HETATM    8  C   UNL     1      -0.913  -1.570  -0.067  1.00  0.00     0.074 C 
HETATM    9  C   UNL     1      -2.264  -0.960   0.354  1.00  0.00     0.238 C 
HETATM   10  H   UNL     1      -2.439   0.161  -1.338  1.00  0.00     0.278 HD
HETATM   11  H   UNL     1      -3.445   0.629  -0.065  1.00  0.00     0.278 HD
ENDROOT
BRANCH   2  12
HETATM   12  C   UNL     1      -1.604   2.500  -0.959  1.00  0.00    -0.023 A 
HETATM   13  C   UNL     1      -1.280   2.294  -2.312  1.00  0.00     0.012 A 
HETATM   14  C   UNL     1      -1.407   3.321  -3.257  1.00  0.00     0.037 A 
HETATM   15  C   UNL     1      -1.875   4.573  -2.863  1.00  0.00     0.068 A 
HETATM   16  C   UNL     1      -2.211   4.790  -1.527  1.00  0.00     0.037 A 
HETATM   17  C   UNL     1      -2.069   3.770  -0.579  1.00  0.00     0.012 A 
BRANCH  15  18
HETATM   18  O   UNL     1      -2.096   5.635  -3.697  1.00  0.00    -0.356 OA
HETATM   19  C   UNL     1      -1.288   5.683  -4.868  1.00  0.00     0.210 C 
ENDBRANCH  15  18
ENDBRANCH   2  12
TORSDOF 2
