REMARK  1 active torsions:
REMARK  status: ('A' for Active; 'I' for Inactive)
REMARK    1  A    between atoms: C_3  and  C_7 
ROOT
HETATM    1  N   UNL     1      -1.040  -0.053  -0.521  1.00  0.00    -0.351 N 
ATOM      2  HN  UNL     1      -1.950  -0.076  -0.982  1.00  0.00     0.166 HD
HETATM    3  C   UNL     1      -0.352  -1.117   0.018  1.00  0.00     0.059 A 
HETATM    4  N   UNL     1       0.884   0.656   0.311  1.00  0.00    -0.360 N 
HETATM    5  C   UNL     1      -0.279   0.998  -0.317  1.00  0.00     0.180 A 
HETATM    6  C   UNL     1       0.854  -0.693   0.534  1.00  0.00     0.119 A 
HETATM    7  H   UNL     1       1.612   1.271   0.559  1.00  0.00     0.166 HD
ENDROOT
BRANCH   3   8
HETATM    8  C   UNL     1      -0.832  -2.487  -0.010  1.00  0.00    -0.008 A 
HETATM    9  C   UNL     1      -1.686  -2.901  -1.041  1.00  0.00     0.014 A 
HETATM   10  C   UNL     1      -2.131  -4.224  -1.108  1.00  0.00     0.001 A 
HETATM   11  C   UNL     1      -1.738  -5.142  -0.135  1.00  0.00     0.000 A 
HETATM   12  C   UNL     1      -0.907  -4.736   0.908  1.00  0.00     0.001 A 
HETATM   13  C   UNL     1      -0.456  -3.416   0.971  1.00  0.00     0.014 A 
ENDBRANCH   3   8
TORSDOF 1
