REMARK  0 active torsions:
REMARK  status: ('A' for Active; 'I' for Inactive)
ROOT
HETATM    1  C   UNL     1       0.067   0.667   0.025  1.00  0.00     0.028 A 
HETATM    2  C   UNL     1      -1.215   1.419   0.022  1.00  0.00     0.161 C 
HETATM    3  C   UNL     1       0.105  -0.733  -0.058  1.00  0.00     0.014 A 
HETATM    4  S   UNL     1      -1.338  -1.779  -0.139  1.00  0.00    -0.129 SA
HETATM    5  C   UNL     1       1.260   1.404   0.091  1.00  0.00     0.040 A 
HETATM    6  O   UNL     1      -1.224   2.622   0.272  1.00  0.00    -0.292 OA
HETATM    7  C   UNL     1       1.350  -1.377  -0.089  1.00  0.00     0.021 A 
HETATM    8  C   UNL     1       2.486   0.746   0.058  1.00  0.00     0.035 A 
HETATM    9  C   UNL     1      -2.479   0.689  -0.361  1.00  0.00     0.094 C 
HETATM   10  C   UNL     1      -2.603  -0.603   0.412  1.00  0.00     0.087 C 
HETATM   11  C   UNL     1       2.537  -0.642  -0.032  1.00  0.00     0.025 A 
HETATM   12 CL   UNL     1       3.948   1.650   0.114  1.00  0.00    -0.084 Cl
ENDROOT
TORSDOF 0
