REMARK  1 active torsions:
REMARK  status: ('A' for Active; 'I' for Inactive)
REMARK    1  A    between atoms: C_9  and  O_11 
ROOT
HETATM    1  C   UNL     1      -0.365   0.633  -0.001  1.00  0.00     0.045 A 
HETATM    2  C   UNL     1      -0.167  -0.733   0.003  1.00  0.00     0.086 A 
HETATM    3  O   UNL     1      -1.305  -1.497   0.014  1.00  0.00    -0.343 OA
HETATM    4  C   UNL     1      -1.791   0.820   0.011  1.00  0.00     0.186 A 
HETATM    5  C   UNL     1       1.111  -1.253  -0.004  1.00  0.00     0.074 A 
HETATM    6  C   UNL     1       0.671   1.548  -0.012  1.00  0.00     0.021 A 
HETATM    7  C   UNL     1      -2.408  -0.555   0.023  1.00  0.00     0.259 A 
HETATM    8  O   UNL     1      -2.355   1.898   0.011  1.00  0.00    -0.290 OA
HETATM    9  C   UNL     1       2.178  -0.353  -0.013  1.00  0.00     0.068 A 
HETATM   10  C   UNL     1       1.972   1.037  -0.018  1.00  0.00     0.037 A 
ENDROOT
BRANCH   9  11
HETATM   11  O   UNL     1       3.438  -0.877  -0.017  1.00  0.00    -0.361 OA
HETATM   12  H   UNL     1       3.559  -1.807  -0.014  1.00  0.00     0.217 HD
ENDBRANCH   9  11
TORSDOF 1
