REMARK  2 active torsions:
REMARK  status: ('A' for Active; 'I' for Inactive)
REMARK    1  A    between atoms: C_1  and  N_4 
REMARK       I    between atoms: N_4  and  C_7 
REMARK    2  A    between atoms: C_8  and  O_12 
ROOT
HETATM    1  C   UNL     1       0.303   0.451   0.007  1.00  0.00     0.078 A 
HETATM    2  C   UNL     1       1.376  -0.455  -0.006  1.00  0.00     0.065 A 
HETATM    3  C   UNL     1      -0.997  -0.133   0.019  1.00  0.00     0.065 A 
HETATM    4  C   UNL     1       1.138  -1.844  -0.017  1.00  0.00     0.063 A 
HETATM    5  C   UNL     1      -1.224  -1.517   0.023  1.00  0.00     0.063 A 
HETATM    6  C   UNL     1      -0.144  -2.379   0.010  1.00  0.00     0.071 A 
HETATM    7 CL   UNL     1      -2.426   0.869   0.016  1.00  0.00    -0.082 Cl
HETATM    8 CL   UNL     1       3.053  -0.082  -0.020  1.00  0.00    -0.082 Cl
ENDROOT
BRANCH   1   9
HETATM    9  N   UNL     1       0.291   1.871   0.008  1.00  0.00    -0.325 N 
HETATM   10  C   UNL     1       1.122   2.939   0.009  1.00  0.00     0.218 C 
HETATM   11  O   UNL     1       0.578   4.051  -0.004  1.00  0.00    -0.274 OA
HETATM   12  C   UNL     1       2.607   2.865   0.026  1.00  0.00     0.117 C 
HETATM   13  H   UNL     1      -0.642   2.186   0.010  1.00  0.00     0.169 HD
ENDBRANCH   1   9
BRANCH   6  14
HETATM   14  O   UNL     1      -0.208  -3.740  -0.038  1.00  0.00    -0.356 OA
HETATM   15  C   UNL     1      -1.326  -4.337   0.610  1.00  0.00     0.210 C 
ENDBRANCH   6  14
TORSDOF 2
