REMARK  2 active torsions:
REMARK  status: ('A' for Active; 'I' for Inactive)
REMARK    1  A    between atoms: C_1  and  C_3 
REMARK    2  A    between atoms: C_2  and  N_4 
ROOT
HETATM    1  C   UNL     1      -0.135   0.524   1.095  1.00  0.00     0.091 A 
HETATM    2  C   UNL     1      -0.787   1.207   0.059  1.00  0.00     0.118 A 
HETATM    3  N   UNL     1      -0.773   0.721  -1.207  1.00  0.00    -0.352 N 
ATOM      4  HN  UNL     1      -1.231   1.231  -1.962  1.00  0.00     0.166 HD
HETATM    5  C   UNL     1       0.493  -0.707   0.802  1.00  0.00     0.021 A 
HETATM    6  C   UNL     1      -0.142  -0.451  -1.453  1.00  0.00     0.089 A 
HETATM    7  C   UNL     1       0.497  -1.198  -0.490  1.00  0.00     0.018 A 
ENDROOT
BRANCH   2   8
HETATM    8  N   UNL     1      -1.402   2.425   0.275  1.00  0.00    -0.363 N 
HETATM    9  C   UNL     1      -1.485   3.376  -0.843  1.00  0.00     0.152 C 
HETATM   10  C   UNL     1      -1.654   4.796  -0.235  1.00  0.00     0.252 C 
HETATM   11  N   UNL     1      -2.815   4.934   0.680  1.00  0.00    -0.072 N 
HETATM   12  C   UNL     1      -2.775   3.857   1.699  1.00  0.00     0.252 C 
HETATM   13  H   UNL     1      -2.776   5.841   1.144  1.00  0.00     0.277 HD
HETATM   14  H   UNL     1      -3.680   4.862   0.144  1.00  0.00     0.277 HD
HETATM   15  C   UNL     1      -2.633   2.440   1.086  1.00  0.00     0.152 C 
ENDBRANCH   2   8
BRANCH   1  16
HETATM   16  C   UNL     1      -0.011   1.024   2.504  1.00  0.00     0.421 C 
HETATM   17  F   UNL     1      -0.506   2.257   2.787  1.00  0.00    -0.166 F 
HETATM   18  F   UNL     1      -0.629   0.183   3.387  1.00  0.00    -0.166 F 
HETATM   19  F   UNL     1       1.292   1.069   2.913  1.00  0.00    -0.166 F 
ENDBRANCH   1  16
TORSDOF 2
