REMARK  4 active torsions:
REMARK  status: ('A' for Active; 'I' for Inactive)
REMARK    1  A    between atoms: C_1  and  C_2 
REMARK    2  A    between atoms: C_2  and  O_10 
REMARK    3  A    between atoms: C_3  and  C_7 
REMARK    4  A    between atoms: O_10  and  C_16 
ROOT
HETATM    1  C   UNL     1      -0.290   1.439   0.293  1.00  0.00     0.098 C 
HETATM    2  C   UNL     1      -1.389   0.495  -0.246  1.00  0.00     0.037 C 
HETATM    3  C   UNL     1       0.373  -1.353  -0.004  1.00  0.00    -0.030 C 
HETATM    4  C   UNL     1       1.355  -0.453  -0.139  1.00  0.00    -0.030 C 
HETATM    5  C   UNL     1       1.112   1.025  -0.182  1.00  0.00     0.042 C 
HETATM    6  C   UNL     1      -1.076  -0.983   0.104  1.00  0.00     0.037 C 
ENDROOT
BRANCH   2   7
HETATM    7  C   UNL     1      -2.781   0.847   0.254  1.00  0.00    -0.037 A 
HETATM    8  C   UNL     1      -3.812   1.138  -0.638  1.00  0.00     0.095 A 
HETATM    9  N   UNL     1      -5.082   1.422  -0.269  1.00  0.00    -0.375 N 
HETATM   10  C   UNL     1      -5.349   1.415   1.054  1.00  0.00     0.087 A 
ATOM     11  HN  UNL     1      -5.804   1.632  -0.958  1.00  0.00     0.164 HD
HETATM   12  C   UNL     1      -4.400   1.151   2.025  1.00  0.00     0.018 A 
HETATM   13  C   UNL     1      -3.100   0.869   1.617  1.00  0.00     0.010 A 
ENDBRANCH   2   7
BRANCH   1  14
HETATM   14  C   UNL     1      -0.473   2.899  -0.077  1.00  0.00     0.264 C 
HETATM   15  O   UNL     1      -0.017   3.814   0.602  1.00  0.00    -0.265 OA
BRANCH  14  16
HETATM   16  O   UNL     1      -1.103   3.062  -1.270  1.00  0.00    -0.322 OA
BRANCH  16  17
HETATM   17  C   UNL     1      -1.263   4.418  -1.715  1.00  0.00     0.174 C 
HETATM   18  C   UNL     1      -2.456   5.072  -1.043  1.00  0.00     0.034 C 
ENDBRANCH  16  17
ENDBRANCH  14  16
ENDBRANCH   1  14
TORSDOF 4
