REMARK  1 active torsions:
REMARK  status: ('A' for Active; 'I' for Inactive)
REMARK    1  A    between atoms: C_3  and  C_7 
ROOT
HETATM    1  C   UNL     1       1.482  -2.186   0.022  1.00  0.00    -0.001 A 
HETATM    2  C   UNL     1       1.419  -3.134  -1.010  1.00  0.00     0.015 A 
HETATM    3  C   UNL     1       2.408  -2.386   1.054  1.00  0.00     0.015 A 
HETATM    4  C   UNL     1       3.223  -3.522   1.073  1.00  0.00     0.007 A 
HETATM    5  C   UNL     1       2.233  -4.268  -0.993  1.00  0.00     0.007 A 
HETATM    6  C   UNL     1       3.131  -4.478   0.056  1.00  0.00    -0.062 A 
HETATM    7  C   UNL     1       3.969  -5.719   0.112  1.00  0.00     0.048 C 
ENDROOT
BRANCH   1   8
HETATM    8  C   UNL     1       0.581  -1.045   0.015  1.00  0.00     0.102 A 
HETATM    9  C   UNL     1      -0.458  -0.622  -0.789  1.00  0.00     0.127 A 
HETATM   10  N   UNL     1      -0.982   0.553  -0.317  1.00  0.00    -0.354 N 
HETATM   11  C   UNL     1      -0.255   0.799   0.747  1.00  0.00     0.233 A 
ATOM     12  HN  UNL     1      -1.751   1.103  -0.700  1.00  0.00     0.166 HD
HETATM   13  O   UNL     1       0.709  -0.121   1.021  1.00  0.00    -0.304 OA
ENDBRANCH   1   8
TORSDOF 1
