REMARK  2 active torsions:
REMARK  status: ('A' for Active; 'I' for Inactive)
REMARK    1  A    between atoms: C_3  and  C_4 
REMARK    2  A    between atoms: C_9  and  N_10 
ROOT
HETATM    1  C   UNL     1       1.488  -2.193   0.021  1.00  0.00     0.001 A 
HETATM    2  C   UNL     1       1.413  -3.158  -0.998  1.00  0.00     0.043 A 
HETATM    3  C   UNL     1       2.277  -4.259  -1.029  1.00  0.00     0.026 A 
HETATM    4  C   UNL     1       2.435  -2.373   1.039  1.00  0.00     0.014 A 
HETATM    5  C   UNL     1       3.260  -3.498   1.051  1.00  0.00     0.003 A 
HETATM    6  C   UNL     1       3.161  -4.448   0.034  1.00  0.00     0.029 A 
ENDROOT
BRANCH   1   7
HETATM    7  C   UNL     1       0.582  -1.052   0.019  1.00  0.00     0.102 A 
HETATM    8  C   UNL     1      -0.473  -0.631  -0.764  1.00  0.00     0.127 A 
HETATM    9  N   UNL     1      -0.982   0.553  -0.290  1.00  0.00    -0.354 N 
HETATM   10  C   UNL     1      -0.228   0.806   0.754  1.00  0.00     0.233 A 
ATOM     11  HN  UNL     1      -1.758   1.102  -0.660  1.00  0.00     0.166 HD
HETATM   12  O   UNL     1       0.742  -0.113   1.009  1.00  0.00    -0.304 OA
ENDBRANCH   1   7
BRANCH   3  13
HETATM   13  N   UNL     1       2.093  -5.270  -1.981  1.00  0.00    -0.399 N 
HETATM   14  H   UNL     1       1.468  -5.133  -2.729  1.00  0.00     0.156 HD
HETATM   15  H   UNL     1       2.587  -6.118  -1.900  1.00  0.00     0.156 HD
ENDBRANCH   3  13
TORSDOF 2
