REMARK  1 active torsions:
REMARK  status: ('A' for Active; 'I' for Inactive)
REMARK    1  A    between atoms: C_3  and  C_9 
ROOT
HETATM    1  N   UNL     1       3.205  -4.430   0.029  1.00  0.00    -0.375 N 
ATOM      2  HN  UNL     1       3.830  -5.236   0.035  1.00  0.00     0.164 HD
HETATM    3  C   UNL     1       1.480  -2.208   0.015  1.00  0.00     0.002 A 
HETATM    4  C   UNL     1       3.231  -3.506   1.012  1.00  0.00     0.088 A 
HETATM    5  C   UNL     1       2.311  -4.234  -0.961  1.00  0.00     0.088 A 
HETATM    6  C   UNL     1       1.441  -3.156  -1.012  1.00  0.00     0.031 A 
HETATM    7  C   UNL     1       2.403  -2.396   1.048  1.00  0.00     0.031 A 
ENDROOT
BRANCH   3   8
HETATM    8  C   UNL     1       0.577  -1.066   0.004  1.00  0.00     0.102 A 
HETATM    9  C   UNL     1      -0.450  -0.625  -0.806  1.00  0.00     0.127 A 
HETATM   10  N   UNL     1      -0.969   0.551  -0.325  1.00  0.00    -0.354 N 
HETATM   11  C   UNL     1      -0.248   0.782   0.748  1.00  0.00     0.233 A 
ATOM     12  HN  UNL     1      -1.731   1.110  -0.708  1.00  0.00     0.166 HD
HETATM   13  O   UNL     1       0.707  -0.148   1.016  1.00  0.00    -0.304 OA
ENDBRANCH   3   8
TORSDOF 1
