REMARK  2 active torsions:
REMARK  status: ('A' for Active; 'I' for Inactive)
REMARK    1  A    between atoms: C_2  and  C_7 
REMARK    2  A    between atoms: C_7  and  N_8 
ROOT
HETATM    1  N   UNL     1       0.920  -0.671   0.001  1.00  0.00    -0.357 N 
HETATM    2  C   UNL     1       0.941   0.713   0.013  1.00  0.00     0.036 A 
HETATM    3  C   UNL     1      -0.388  -1.115   0.007  1.00  0.00     0.007 A 
HETATM    4  C   UNL     1      -1.203   0.001   0.013  1.00  0.00     0.027 A 
HETATM    5  C   UNL     1      -0.374   1.141   0.016  1.00  0.00     0.029 A 
HETATM    6  C   UNL     1       2.101  -1.510  -0.015  1.00  0.00     0.156 C 
HETATM    7  C   UNL     1      -0.773  -2.551   0.008  1.00  0.00     0.068 C 
ENDROOT
BRANCH   2   8
HETATM    8  C   UNL     1       2.190   1.526  -0.002  1.00  0.00     0.286 C 
BRANCH   8   9
HETATM    9  N   UNL     1       2.974   1.273   1.196  1.00  0.00    -0.074 N 
HETATM   10  H   UNL     1       2.428   1.527   2.020  1.00  0.00     0.274 HD
HETATM   11  H   UNL     1       3.827   1.830   1.169  1.00  0.00     0.274 HD
HETATM   12  H   UNL     1       3.215   0.283   1.241  1.00  0.00     0.274 HD
ENDBRANCH   8   9
ENDBRANCH   2   8
TORSDOF 2
