REMARK  3 active torsions:
REMARK  status: ('A' for Active; 'I' for Inactive)
REMARK    1  A    between atoms: N_1  and  C_3 
REMARK    2  A    between atoms: C_2  and  C_4 
REMARK    3  A    between atoms: C_2  and  N_11 
ROOT
HETATM    1  C   UNL     1      -0.699  -2.470   0.014  1.00  0.00     0.039 A 
HETATM    2  C   UNL     1      -1.845  -4.323  -1.101  1.00  0.00     0.004 A 
HETATM    3  C   UNL     1      -1.524  -2.956  -1.014  1.00  0.00     0.044 A 
HETATM    4  C   UNL     1      -0.229  -3.368   0.983  1.00  0.00     0.030 A 
HETATM    5  C   UNL     1      -1.357  -5.202  -0.127  1.00  0.00     0.014 A 
HETATM    6  C   UNL     1      -0.562  -4.724   0.914  1.00  0.00     0.003 A 
ENDROOT
BRANCH   1   7
HETATM    7  N   UNL     1      -0.316  -1.090   0.051  1.00  0.00    -0.333 N 
HETATM    8  C   UNL     1      -0.720  -0.095  -0.822  1.00  0.00     0.096 A 
HETATM    9  C   UNL     1      -0.099   1.090  -0.491  1.00  0.00     0.019 A 
HETATM   10  C   UNL     1       0.711   0.834   0.629  1.00  0.00     0.019 A 
HETATM   11  C   UNL     1       0.553  -0.496   0.950  1.00  0.00     0.096 A 
ENDBRANCH   1   7
BRANCH   2  12
HETATM   12  C   UNL     1      -2.656  -4.847  -2.241  1.00  0.00     0.104 C 
HETATM   13  S   UNL     1      -2.664  -4.224  -3.794  1.00  0.00    -0.060 SA
BRANCH  12  14
HETATM   14  N   UNL     1      -3.450  -5.937  -1.991  1.00  0.00    -0.390 N 
HETATM   15  H   UNL     1      -3.473  -6.333  -1.090  1.00  0.00     0.157 HD
HETATM   16  H   UNL     1      -3.997  -6.324  -2.713  1.00  0.00     0.157 HD
ENDBRANCH  12  14
ENDBRANCH   2  12
TORSDOF 3
