REMARK  2 active torsions:
REMARK  status: ('A' for Active; 'I' for Inactive)
REMARK    1  A    between atoms: C_3  and  C_5 
REMARK    2  A    between atoms: C_4  and  C_9 
ROOT
HETATM    1  N   UNK     1       1.339  -0.560   0.438  1.00  0.00    -0.344 N 
ATOM      2  HN  UNK     1       2.147  -1.046   0.827  1.00  0.00     0.167 HD
HETATM    3  C   UNK     1       0.261  -1.162  -0.018  1.00  0.00     0.086 A 
HETATM    4  C   UNK     1       1.238   0.824   0.322  1.00  0.00     0.117 A 
HETATM    5  S   UNK     1      -0.916  -0.084  -0.683  1.00  0.00    -0.081 SA
HETATM    6  C   UNK     1       0.086   1.251  -0.307  1.00  0.00     0.088 A 
ENDROOT
BRANCH   3   7
HETATM    7  C   UNK     1       0.034  -2.624   0.009  1.00  0.00     0.021 A 
HETATM    8  C   UNK     1       0.514  -3.443   1.058  1.00  0.00     0.068 A 
HETATM    9  C   UNK     1       0.314  -4.837   1.007  1.00  0.00     0.056 A 
HETATM   10 CL   UNK     1       1.306  -2.763   2.452  1.00  0.00    -0.082 Cl
HETATM   11 CL   UNK     1       0.891  -5.913   2.237  1.00  0.00    -0.083 Cl
HETATM   12  C   UNK     1      -0.373  -5.420  -0.061  1.00  0.00     0.026 A 
HETATM   13  C   UNK     1      -0.863  -4.624  -1.089  1.00  0.00     0.003 A 
HETATM   14  C   UNK     1      -0.654  -3.245  -1.058  1.00  0.00     0.016 A 
ENDBRANCH   3   7
BRANCH   4  15
HETATM   15  C   UNK     1       2.262   1.731   0.829  1.00  0.00     0.227 C 
HETATM   16  O   UNK     1       2.232   2.952   0.734  1.00  0.00    -0.643 OA
HETATM   17  O   UNK     1       3.297   1.128   1.456  1.00  0.00    -0.643 OA
ENDBRANCH   4  15
TORSDOF 2
