REMARK  1 active torsions:
REMARK  status: ('A' for Active; 'I' for Inactive)
REMARK    1  A    between atoms: C_1  and  N_2 
ROOT
HETATM    1  C   UNL     1       0.011  -0.807  -0.046  1.00  0.00     0.077 A 
HETATM    2  C   UNL     1      -1.094  -0.025  -0.474  1.00  0.00     0.077 A 
HETATM    3  C   UNL     1       1.137  -0.050   0.380  1.00  0.00     0.077 A 
HETATM    4  N   UNL     1       0.037   2.081  -0.026  1.00  0.00    -0.372 N 
ATOM      5  HN  UNL     1       0.044   3.101  -0.013  1.00  0.00     0.164 HD
HETATM    6 CL   UNL     1      -2.639  -0.673  -0.927  1.00  0.00    -0.080 Cl
HETATM    7 CL   UNL     1       2.669  -0.737   0.817  1.00  0.00    -0.080 Cl
HETATM    8  C   UNL     1       1.087   1.348   0.391  1.00  0.00     0.113 A 
HETATM    9  C   UNL     1      -1.023   1.372  -0.461  1.00  0.00     0.113 A 
ENDROOT
BRANCH   1  10
HETATM   10  N   UNL     1      -0.023  -2.200  -0.006  1.00  0.00    -0.375 N 
HETATM   11  C   UNL     1      -0.553  -3.036  -1.098  1.00  0.00     0.150 C 
HETATM   12  C   UNL     1      -1.547  -4.075  -0.522  1.00  0.00     0.252 C 
HETATM   13  N   UNL     1      -0.940  -4.935   0.519  1.00  0.00    -0.072 N 
HETATM   14  C   UNL     1      -0.394  -4.073   1.587  1.00  0.00     0.252 C 
HETATM   15  H   UNL     1      -1.649  -5.557   0.908  1.00  0.00     0.277 HD
HETATM   16  H   UNL     1      -0.193  -5.498   0.111  1.00  0.00     0.277 HD
HETATM   17  C   UNL     1       0.580  -2.977   1.093  1.00  0.00     0.150 C 
ENDBRANCH   1  10
TORSDOF 1
