REMARK  0 active torsions:
REMARK  status: ('A' for Active; 'I' for Inactive)
ROOT
HETATM    1  C   UNL     1      -0.826  -0.401   0.025  1.00  0.00     0.112 A 
HETATM    2  C   UNL     1      -0.168   0.937  -0.007  1.00  0.00     0.266 A 
HETATM    3  N   UNL     1       1.210   0.933  -0.037  1.00  0.00    -0.326 N 
HETATM    4  C   UNL     1      -0.050  -1.500   0.050  1.00  0.00     0.030 A 
HETATM    5  C   UNL     1      -2.242  -0.486   0.016  1.00  0.00     0.105 C 
HETATM    6  N   UNL     1      -3.395  -0.619   0.002  1.00  0.00    -0.191 NA
HETATM    7  C   UNL     1       1.990  -0.201  -0.019  1.00  0.00     0.008 A 
HETATM    8  C   UNL     1       1.393  -1.402   0.035  1.00  0.00     0.026 A 
HETATM    9  O   UNL     1      -0.800   1.987  -0.011  1.00  0.00    -0.267 OA
HETATM   10  C   UNL     1       3.474  -0.008  -0.064  1.00  0.00     0.068 C 
HETATM   11  H   UNL     1       1.669   1.803  -0.073  1.00  0.00     0.169 HD
ENDROOT
TORSDOF 0
