REMARK  2 active torsions:
REMARK  status: ('A' for Active; 'I' for Inactive)
REMARK    1  A    between atoms: C_1  and  C_4 
REMARK    2  A    between atoms: C_4  and  N_9 
ROOT
HETATM    1  C   UNL     1       1.205  -1.287  -0.020  1.00  0.00     0.077 A 
HETATM    2  N   UNL     1      -0.192  -1.446  -0.025  1.00  0.00    -0.351 N 
ATOM      3  HN  UNL     1      -0.675  -2.344  -0.038  1.00  0.00     0.166 HD
HETATM    4  C   UNL     1       1.607   0.039  -0.001  1.00  0.00     0.084 A 
HETATM    5  C   UNL     1      -0.789  -0.273  -0.011  1.00  0.00     0.047 A 
HETATM    6  S   UNL     1       0.255   1.088   0.009  1.00  0.00    -0.087 SA
HETATM    7  C   UNL     1      -2.263  -0.069  -0.014  1.00  0.00     0.076 C 
ENDROOT
BRANCH   1   8
HETATM    8  C   UNL     1       2.059  -2.474  -0.034  1.00  0.00     0.121 C 
HETATM    9  S   UNL     1       3.716  -2.381  -0.032  1.00  0.00    -0.059 SA
BRANCH   8  10
HETATM   10  N   UNL     1       1.410  -3.676  -0.051  1.00  0.00    -0.388 N 
HETATM   11  H   UNL     1       0.426  -3.704  -0.052  1.00  0.00     0.157 HD
HETATM   12  H   UNL     1       1.927  -4.514  -0.061  1.00  0.00     0.157 HD
ENDBRANCH   8  10
ENDBRANCH   1   8
TORSDOF 2
