REMARK  4 active torsions:
REMARK  status: ('A' for Active; 'I' for Inactive)
REMARK    1  A    between atoms: C_1  and  O_11 
REMARK    2  A    between atoms: C_2  and  C_5 
REMARK    3  A    between atoms: C_5  and  O_12 
REMARK    4  A    between atoms: O_12  and  C_13 
ROOT
HETATM    1  C   UNL     1       0.004   0.394  -0.006  1.00  0.00     0.109 A 
HETATM    2  C   UNL     1      -0.023  -2.403   0.051  1.00  0.00     0.043 A 
HETATM    3  C   UNL     1       1.207  -0.315  -0.002  1.00  0.00     0.069 A 
HETATM    4  C   UNL     1      -1.211  -0.301   0.010  1.00  0.00     0.069 A 
HETATM    5  C   UNL     1      -1.231  -1.696   0.041  1.00  0.00     0.044 A 
HETATM    6  C   UNL     1       1.195  -1.710   0.020  1.00  0.00     0.044 A 
HETATM    7 CL   UNL     1      -2.705   0.561  -0.011  1.00  0.00    -0.081 Cl
HETATM    8 CL   UNL     1       2.731   0.492  -0.018  1.00  0.00    -0.081 Cl
ENDROOT
BRANCH   2   9
HETATM    9  C   UNL     1       0.028  -3.880   0.074  1.00  0.00     0.293 C 
HETATM   10  O   UNL     1       0.978  -4.519  -0.349  1.00  0.00    -0.259 OA
BRANCH   9  11
HETATM   11  O   UNL     1      -1.076  -4.384   0.677  1.00  0.00    -0.318 OA
BRANCH  11  12
HETATM   12  C   UNL     1      -1.089  -5.813   0.827  1.00  0.00     0.174 C 
HETATM   13  C   UNL     1      -1.590  -6.467  -0.445  1.00  0.00     0.034 C 
ENDBRANCH  11  12
ENDBRANCH   9  11
ENDBRANCH   2   9
BRANCH   1  14
HETATM   14  O   UNL     1       0.027   1.765  -0.028  1.00  0.00    -0.357 OA
HETATM   15  H   UNL     1       0.846   2.220  -0.038  1.00  0.00     0.217 HD
ENDBRANCH   1  14
TORSDOF 4
