REMARK  2 active torsions:
REMARK  status: ('A' for Active; 'I' for Inactive)
REMARK    1  A    between atoms: C_1  and  C_4 
REMARK    2  A    between atoms: C_7  and  C_13 
ROOT
HETATM    1  N   UNL     1       1.958  -3.430  -0.982  1.00  0.00    -0.345 N 
ATOM      2  HN  UNL     1       1.235  -3.478  -1.700  1.00  0.00     0.167 HD
HETATM    3  C   UNL     1       2.070  -2.469  -0.085  1.00  0.00     0.102 A 
HETATM    4  C   UNL     1       2.972  -4.370  -0.806  1.00  0.00     0.085 A 
HETATM    5  S   UNL     1       3.354  -2.659   1.041  1.00  0.00    -0.080 SA
HETATM    6  C   UNL     1       3.805  -4.118   0.269  1.00  0.00     0.085 A 
ENDROOT
BRANCH   3   7
HETATM    7  C   UNL     1       1.151  -1.277  -0.067  1.00  0.00     0.073 A 
HETATM    8  N   UNL     1       1.345  -0.200   0.786  1.00  0.00    -0.352 N 
HETATM    9  C   UNL     1       0.440   0.726   0.549  1.00  0.00     0.047 A 
ATOM     10  HN  UNL     1       2.079  -0.135   1.491  1.00  0.00     0.166 HD
HETATM   11  S   UNL     1      -0.726   0.332  -0.651  1.00  0.00    -0.087 SA
HETATM   12  C   UNL     1       0.390   2.045   1.236  1.00  0.00     0.076 C 
HETATM   13  C   UNL     1       0.068  -1.163  -0.915  1.00  0.00     0.083 A 
ENDBRANCH   3   7
BRANCH   4  14
HETATM   14  C   UNL     1       3.132  -5.514  -1.705  1.00  0.00     0.172 C 
HETATM   15  O   UNL     1       4.013  -6.356  -1.532  1.00  0.00    -0.291 OA
HETATM   16  C   UNL     1       2.178  -5.621  -2.868  1.00  0.00     0.098 C 
ENDBRANCH   4  14
TORSDOF 2
