REMARK  1 active torsions:
REMARK  status: ('A' for Active; 'I' for Inactive)
REMARK    1  A    between atoms: N_1  and  C_2 
REMARK       I    between atoms: N_1  and  C_3 
ROOT
HETATM    1  C   UNL     1       0.272  -0.313   1.256  1.00  0.00     0.073 A 
HETATM    2  C   UNL     1       0.782   0.226   2.441  1.00  0.00     0.143 A 
HETATM    3  F   UNL     1       1.851   1.034   2.401  1.00  0.00    -0.204 F 
HETATM    4  C   UNL     1      -0.833  -1.164   1.314  1.00  0.00     0.033 A 
HETATM    5  C   UNL     1       0.162  -0.013   3.663  1.00  0.00     0.044 A 
HETATM    6  C   UNL     1      -1.433  -1.444   2.546  1.00  0.00     0.002 A 
HETATM    7  C   UNL     1      -0.948  -0.853   3.716  1.00  0.00     0.003 A 
ENDROOT
BRANCH   1   8
HETATM    8  N   UNL     1       0.934  -0.034   0.052  1.00  0.00    -0.325 N 
HETATM    9  C   UNL     1       0.389   0.500  -1.085  1.00  0.00     0.218 C 
HETATM   10  O   UNL     1       1.105   0.699  -2.068  1.00  0.00    -0.274 OA
HETATM   11  C   UNL     1      -1.056   0.924  -1.074  1.00  0.00     0.117 C 
HETATM   12  H   UNL     1       1.896  -0.245   0.020  1.00  0.00     0.169 HD
ENDBRANCH   1   8
TORSDOF 1
