REMARK  1 active torsions:
REMARK  status: ('A' for Active; 'I' for Inactive)
REMARK    1  A    between atoms: C_1  and  C_2 
ROOT
HETATM    1  C   UNL     1      -0.833   0.939  -0.010  1.00  0.00     0.137 A 
HETATM    2  N   UNL     1       0.970  -0.420  -0.002  1.00  0.00    -0.272 N 
ATOM      3  HN  UNL     1       1.934  -0.754   0.000  1.00  0.00     0.194 HD
HETATM    4  O   UNL     1       0.537   0.896  -0.010  1.00  0.00    -0.235 OA
HETATM    5  C   UNL     1      -1.297  -0.364  -0.001  1.00  0.00     0.061 A 
HETATM    6  C   UNL     1      -0.141  -1.158   0.002  1.00  0.00     0.117 A 
ENDROOT
BRANCH   1   7
HETATM    7  C   UNL     1      -1.484   2.220  -0.018  1.00  0.00     0.130 C 
HETATM    8  S   UNL     1      -3.145   2.363  -0.019  1.00  0.00    -0.058 SA
HETATM    9  N   UNL     1      -0.714   3.347  -0.024  1.00  0.00    -0.388 N 
HETATM   10  H   UNL     1       0.268   3.273  -0.023  1.00  0.00     0.157 HD
HETATM   11  H   UNL     1      -1.141   4.234  -0.029  1.00  0.00     0.157 HD
ENDBRANCH   1   7
TORSDOF 1
