REMARK  2 active torsions:
REMARK  status: ('A' for Active; 'I' for Inactive)
REMARK    1  A    between atoms: C_1  and  N_2 
REMARK    2  A    between atoms: N_2  and  C_3 
ROOT
HETATM    1  C   UNL     1      -1.086  -0.628  -1.206  1.00  0.00     0.040 A 
HETATM    2  C   UNL     1      -1.818   0.549  -0.944  1.00  0.00    -0.035 A 
HETATM    3  C   UNL     1      -1.783  -1.819  -1.461  1.00  0.00     0.030 A 
HETATM    4  C   UNL     1      -1.200   1.892  -0.662  1.00  0.00     0.050 C 
HETATM    5  C   UNL     1      -3.226   0.493  -0.955  1.00  0.00     0.009 A 
HETATM    6  C   UNL     1      -3.176  -1.854  -1.480  1.00  0.00     0.002 A 
HETATM    7  C   UNL     1      -3.898  -0.697  -1.227  1.00  0.00     0.001 A 
ENDROOT
BRANCH   1   8
HETATM    8  N   UNL     1       0.325  -0.637  -1.105  1.00  0.00    -0.333 N 
HETATM    9  H   UNL     1       0.712   0.036  -0.501  1.00  0.00     0.168 HD
BRANCH   8  10
HETATM   10  C   UNL     1       1.227  -1.459  -1.735  1.00  0.00     0.170 C 
HETATM   11  S   UNL     1       1.096  -2.255  -3.191  1.00  0.00    -0.041 SA
HETATM   12  N   UNL     1       2.404  -1.544  -1.049  1.00  0.00    -0.376 N 
HETATM   13  H   UNL     1       2.504  -1.082  -0.186  1.00  0.00     0.158 HD
HETATM   14  H   UNL     1       3.151  -2.068  -1.417  1.00  0.00     0.158 HD
ENDBRANCH   8  10
ENDBRANCH   1   8
TORSDOF 2
