REMARK  3 active torsions:
REMARK  status: ('A' for Active; 'I' for Inactive)
REMARK    1  A    between atoms: S_1  and  C_2 
REMARK    2  A    between atoms: S_1  and  C_4 
REMARK    3  A    between atoms: C_2  and  C_3 
ROOT
HETATM    1  S   UNL     1       1.072  -0.099  -0.069  1.00  0.00     0.181 S 
HETATM    2  O   UNL     1       2.326   0.041   0.653  1.00  0.00    -0.222 OA
HETATM    3  O   UNL     1      -0.071  -0.751   0.536  1.00  0.00    -0.222 OA
ENDROOT
BRANCH   1   4
HETATM    4  C   UNL     1       1.438  -0.858  -1.631  1.00  0.00     0.214 C 
BRANCH   4   5
HETATM    5  C   UNL     1       1.929  -2.265  -1.430  1.00  0.00     0.085 C 
HETATM    6  S   UNL     1       1.121  -3.589  -2.044  1.00  0.00    -0.065 SA
HETATM    7  N   UNL     1       3.135  -2.438  -0.819  1.00  0.00    -0.393 N 
HETATM    8  H   UNL     1       3.619  -1.662  -0.454  1.00  0.00     0.156 HD
HETATM    9  H   UNL     1       3.523  -3.340  -0.742  1.00  0.00     0.156 HD
ENDBRANCH   4   5
ENDBRANCH   1   4
BRANCH   1  10
HETATM   10  C   UNL     1       0.534   1.542  -0.513  1.00  0.00     0.059 A 
HETATM   11  C   UNL     1      -0.634   1.697  -1.266  1.00  0.00     0.025 A 
HETATM   12  C   UNL     1      -1.058   2.981  -1.620  1.00  0.00     0.025 A 
HETATM   13  C   UNL     1      -0.324   4.094  -1.205  1.00  0.00     0.034 A 
HETATM   14  C   UNL     1       0.830   3.936  -0.437  1.00  0.00     0.025 A 
HETATM   15 CL   UNL     1      -0.850   5.673  -1.640  1.00  0.00    -0.084 Cl
HETATM   16  C   UNL     1       1.264   2.655  -0.087  1.00  0.00     0.025 A 
ENDBRANCH   1  10
TORSDOF 3
