REMARK  1 active torsions:
REMARK  status: ('A' for Active; 'I' for Inactive)
REMARK    1  A    between atoms: C_6  and  C_7 
ROOT
HETATM    1  C   UNL     1      -1.384  -0.345   0.004  1.00  0.00     0.178 A 
HETATM    2  N   UNL     1      -0.658   0.867   0.002  1.00  0.00    -0.326 N 
HETATM    3  N   UNL     1      -0.439  -1.384   0.005  1.00  0.00    -0.331 N 
HETATM    4  C   UNL     1       0.835  -0.833   0.006  1.00  0.00     0.062 A 
HETATM    5  C   UNL     1       0.715   0.556   0.000  1.00  0.00     0.063 A 
HETATM    6  C   UNL     1       3.206  -0.670   0.009  1.00  0.00     0.050 A 
HETATM    7  C   UNL     1       2.052  -1.473   0.011  1.00  0.00     0.048 A 
HETATM    8  S   UNL     1      -3.019  -0.598   0.007  1.00  0.00    -0.040 SA
HETATM    9  C   UNL     1       1.825   1.372  -0.003  1.00  0.00     0.033 A 
HETATM   10  C   UNL     1       3.081   0.748   0.000  1.00  0.00     0.018 A 
HETATM   11  C   UNL     1      -1.163   2.220   0.019  1.00  0.00     0.159 C 
HETATM   12  H   UNL     1      -0.647  -2.347   0.006  1.00  0.00     0.168 HD
ENDROOT
BRANCH   6  13
HETATM   13  C   UNL     1       4.573  -1.315   0.009  1.00  0.00     0.417 C 
HETATM   14  F   UNL     1       4.523  -2.676   0.022  1.00  0.00    -0.166 F 
HETATM   15  F   UNL     1       5.309  -0.980  -1.086  1.00  0.00    -0.166 F 
HETATM   16  F   UNL     1       5.321  -0.960   1.090  1.00  0.00    -0.166 F 
ENDBRANCH   6  13
TORSDOF 1
