REMARK  2 active torsions:
REMARK  status: ('A' for Active; 'I' for Inactive)
REMARK    1  A    between atoms: C_1  and  C_2 
REMARK    2  A    between atoms: C_1  and  O_5 
ROOT
HETATM    1  C   UNL     1       1.037   0.023  -0.005  1.00  0.00     0.040 A 
HETATM    2  C   UNL     1       0.331   1.235   0.001  1.00  0.00     0.024 A 
HETATM    3  C   UNL     1      -1.073   1.242   0.004  1.00  0.00    -0.061 A 
HETATM    4  C   UNL     1       0.328  -1.186  -0.005  1.00  0.00     0.017 A 
HETATM    5  C   UNL     1      -1.067  -1.185  -0.004  1.00  0.00     0.002 A 
HETATM    6  C   UNL     1      -1.763   0.023  -0.000  1.00  0.00     0.007 A 
HETATM    7  C   UNL     1      -1.841   2.531   0.012  1.00  0.00     0.048 C 
ENDROOT
BRANCH   1   8
HETATM    8  C   UNL     1       2.526  -0.042  -0.012  1.00  0.00     0.292 C 
HETATM    9  O   UNL     1       3.152  -1.091  -0.015  1.00  0.00    -0.259 OA
BRANCH   8  10
HETATM   10  O   UNL     1       3.070   1.201  -0.018  1.00  0.00    -0.323 OA
HETATM   11  C   UNL     1       4.499   1.205  -0.036  1.00  0.00     0.213 C 
ENDBRANCH   8  10
ENDBRANCH   1   8
TORSDOF 2
