REMARK  2 active torsions:
REMARK  status: ('A' for Active; 'I' for Inactive)
REMARK       I    between atoms: C_1  and  N_2 
REMARK    1  A    between atoms: N_2  and  C_7 
REMARK    2  A    between atoms: C_6  and  C_7 
ROOT
HETATM    1  N   UNL     1      -2.173  -3.719  -2.887  1.00  0.00    -0.375 N 
ATOM      2  HN  UNL     1      -2.276  -4.729  -2.988  1.00  0.00     0.164 HD
HETATM    3  C   UNL     1      -1.570  -1.795  -1.542  1.00  0.00    -0.025 A 
HETATM    4  C   UNL     1      -1.732  -3.163  -1.736  1.00  0.00     0.096 A 
HETATM    5  C   UNL     1      -2.470  -2.873  -3.896  1.00  0.00     0.087 A 
HETATM    6  C   UNL     1      -1.869  -0.953  -2.617  1.00  0.00     0.011 A 
HETATM    7  C   UNL     1      -2.332  -1.497  -3.812  1.00  0.00     0.018 A 
ENDROOT
BRANCH   3   8
HETATM    8  C   UNL     1      -1.063  -1.257  -0.239  1.00  0.00     0.162 C 
BRANCH   8   9
HETATM    9  N   UNL     1       0.377  -1.164  -0.228  1.00  0.00    -0.357 N 
HETATM   10  C   UNL     1       1.038  -0.708   0.886  1.00  0.00     0.213 C 
HETATM   11  O   UNL     1       0.465  -0.348   1.909  1.00  0.00    -0.274 OA
HETATM   12  C   UNL     1       2.537  -0.687   0.760  1.00  0.00     0.117 C 
HETATM   13  H   UNL     1       0.890  -1.430  -1.025  1.00  0.00     0.162 HD
ENDBRANCH   8   9
ENDBRANCH   3   8
TORSDOF 2
