REMARK  3 active torsions:
REMARK  status: ('A' for Active; 'I' for Inactive)
REMARK    1  A    between atoms: C_2  and  C_6 
REMARK    2  A    between atoms: C_6  and  C_8 
REMARK    3  A    between atoms: N_7  and  C_8 
ROOT
HETATM    1  C   UNL     1      -0.262   2.643   0.012  1.00  0.00     0.073 C 
ENDROOT
BRANCH   1   2
HETATM    2  C   UNL     1       0.145   1.197   0.016  1.00  0.00    -0.016 A 
HETATM    3  S   UNL     1       1.686   0.731  -0.570  1.00  0.00    -0.106 SA
HETATM    4  C   UNL     1       1.396  -0.915  -0.212  1.00  0.00     0.050 A 
HETATM    5  C   UNL     1       0.147  -1.114   0.333  1.00  0.00     0.008 A 
HETATM    6  C   UNL     1      -0.577   0.106   0.464  1.00  0.00     0.015 A 
ENDBRANCH   1   2
BRANCH   1   7
HETATM    7  C   UNL     1      -1.026   3.017  -1.263  1.00  0.00     0.234 C 
BRANCH   7   8
HETATM    8  N   UNL     1      -1.446   4.418  -1.241  1.00  0.00    -0.079 N 
HETATM    9  H   UNL     1      -1.950   4.636  -2.101  1.00  0.00     0.274 HD
HETATM   10  H   UNL     1      -0.625   5.019  -1.168  1.00  0.00     0.274 HD
HETATM   11  H   UNL     1      -2.057   4.578  -0.440  1.00  0.00     0.274 HD
ENDBRANCH   7   8
ENDBRANCH   1   7
TORSDOF 3
