REMARK  2 active torsions:
REMARK  status: ('A' for Active; 'I' for Inactive)
REMARK    1  A    between atoms: C_6  and  C_9 
REMARK    2  A    between atoms: N_8  and  C_9 
ROOT
HETATM    1  C   UNL     1       0.311  -0.268   0.010  1.00  0.00     0.040 A 
HETATM    2  C   UNL     1      -0.281   1.004   0.001  1.00  0.00    -0.040 A 
HETATM    3  C   UNL     1      -0.476  -1.424   0.008  1.00  0.00     0.033 A 
HETATM    4  C   UNL     1      -1.680   1.089  -0.013  1.00  0.00     0.009 A 
HETATM    5 CL   UNL     1       2.029  -0.464   0.023  1.00  0.00    -0.084 Cl
HETATM    6  C   UNL     1      -1.874  -1.337  -0.001  1.00  0.00    -0.031 A 
HETATM    7  C   UNL     1      -2.466  -0.067  -0.018  1.00  0.00     0.009 A 
HETATM    8  C   UNL     1       0.539   2.263   0.009  1.00  0.00     0.050 C 
ENDROOT
BRANCH   6   9
HETATM    9  C   UNL     1      -2.721  -2.582  -0.008  1.00  0.00     0.268 C 
BRANCH   9  10
HETATM   10  N   UNL     1      -3.596  -2.638   1.157  1.00  0.00    -0.075 N 
HETATM   11  H   UNL     1      -4.155  -3.491   1.122  1.00  0.00     0.274 HD
HETATM   12  H   UNL     1      -4.214  -1.827   1.158  1.00  0.00     0.274 HD
HETATM   13  H   UNL     1      -3.032  -2.637   2.007  1.00  0.00     0.274 HD
ENDBRANCH   9  10
ENDBRANCH   6   9
TORSDOF 2
