REMARK  5 active torsions:
REMARK  status: ('A' for Active; 'I' for Inactive)
REMARK    1  A    between atoms: C_1  and  C_3 
REMARK    2  A    between atoms: C_1  and  O_7 
REMARK    3  A    between atoms: C_3  and  C_4 
REMARK    4  A    between atoms: C_5  and  N_6 
REMARK    5  A    between atoms: O_7  and  C_12 
ROOT
HETATM    1  C   UNL     1       0.536   2.457  -0.378  1.00  0.00    -0.049 A 
HETATM    2  C   UNL     1       1.019   5.153   0.337  1.00  0.00     0.025 A 
HETATM    3  C   UNL     1       0.158   4.836  -0.717  1.00  0.00     0.029 A 
HETATM    4  C   UNL     1       1.679   4.111   0.990  1.00  0.00     0.029 A 
HETATM    5  C   UNL     1       1.423   2.774   0.659  1.00  0.00     0.010 A 
HETATM    6  C   UNL     1      -0.101   3.504  -1.057  1.00  0.00     0.010 A 
ENDROOT
BRANCH   1   7
HETATM    7  C   UNL     1       0.295   1.024  -0.791  1.00  0.00     0.149 C 
BRANCH   7   8
HETATM    8  C   UNL     1      -0.863   0.339  -0.097  1.00  0.00     0.263 C 
HETATM    9  O   UNL     1      -1.596   0.828   0.749  1.00  0.00    -0.265 OA
BRANCH   8  10
HETATM   10  O   UNL     1      -0.976  -0.938  -0.580  1.00  0.00    -0.322 OA
BRANCH  10  11
HETATM   11  C   UNL     1      -2.074  -1.712  -0.072  1.00  0.00     0.174 C 
HETATM   12  C   UNL     1      -1.711  -2.351   1.256  1.00  0.00     0.034 C 
ENDBRANCH  10  11
ENDBRANCH   8  10
ENDBRANCH   7   8
ENDBRANCH   1   7
BRANCH   2  13
HETATM   13  N   UNL     1       1.389   6.483   0.564  1.00  0.00    -0.399 N 
HETATM   14  H   UNL     1       0.919   7.212   0.099  1.00  0.00     0.156 HD
HETATM   15  H   UNL     1       2.121   6.690   1.190  1.00  0.00     0.156 HD
ENDBRANCH   2  13
TORSDOF 5
