REMARK  2 active torsions:
REMARK  status: ('A' for Active; 'I' for Inactive)
REMARK    1  A    between atoms: C_1  and  C_2 
REMARK    2  A    between atoms: C_2  and  O_8 
ROOT
HETATM    1  C   UNL     1       0.154   1.329  -0.009  1.00  0.00     0.080 A 
HETATM    2  S   UNL     1      -1.050   0.105  -0.012  1.00  0.00    -0.096 SA
HETATM    3  C   UNL     1       1.423   0.774  -0.001  1.00  0.00     0.025 A 
HETATM    4  C   UNL     1       0.116  -1.144  -0.005  1.00  0.00     0.050 A 
HETATM    5  C   UNL     1       1.400  -0.652   0.001  1.00  0.00     0.009 A 
ENDROOT
BRANCH   1   6
HETATM    6  C   UNL     1      -0.251   2.723  -0.014  1.00  0.00     0.299 C 
HETATM    7  O   UNL     1      -1.401   3.148  -0.021  1.00  0.00    -0.259 OA
BRANCH   6   8
HETATM    8  O   UNL     1       0.855   3.527  -0.012  1.00  0.00    -0.322 OA
HETATM    9  C   UNL     1       0.556   4.923  -0.020  1.00  0.00     0.213 C 
ENDBRANCH   6   8
ENDBRANCH   1   6
TORSDOF 2
