REMARK  3 active torsions:
REMARK  status: ('A' for Active; 'I' for Inactive)
REMARK    1  A    between atoms: C_1  and  O_2 
REMARK    2  A    between atoms: O_2  and  C_3 
REMARK    3  A    between atoms: C_6  and  N_7 
ROOT
HETATM    1  C   UNL     1       0.956   0.780   2.351  1.00  0.00     0.075 A 
HETATM    2  C   UNL     1       1.607   0.495   5.076  1.00  0.00     0.025 A 
HETATM    3  C   UNL     1      -0.025   0.923   3.333  1.00  0.00     0.039 A 
HETATM    4  C   UNL     1       2.248   0.417   2.728  1.00  0.00     0.039 A 
HETATM    5  C   UNL     1       0.296   0.767   4.683  1.00  0.00     0.031 A 
HETATM    6  C   UNL     1       2.564   0.265   4.083  1.00  0.00     0.031 A 
ENDROOT
BRANCH   1   7
HETATM    7  O   UNL     1       0.526   0.973   1.070  1.00  0.00    -0.290 OA
BRANCH   7   8
HETATM    8  C   UNL     1       1.524   1.379   0.149  1.00  0.00     0.505 C 
HETATM    9  F   UNL     1       0.896   2.013  -0.874  1.00  0.00    -0.184 F 
HETATM   10  F   UNL     1       2.108   0.274  -0.376  1.00  0.00    -0.184 F 
ENDBRANCH   7   8
ENDBRANCH   1   7
BRANCH   2  11
HETATM   11  N   UNL     1       1.899   0.222   6.416  1.00  0.00    -0.399 N 
HETATM   12  H   UNL     1       2.826   0.031   6.689  1.00  0.00     0.156 HD
HETATM   13  H   UNL     1       1.178   0.220   7.086  1.00  0.00     0.156 HD
ENDBRANCH   2  11
TORSDOF 3
