REMARK  1 active torsions:
REMARK  status: ('A' for Active; 'I' for Inactive)
REMARK       I    between atoms: C_2  and  N_3 
REMARK    1  A    between atoms: N_3  and  C_4 
ROOT
HETATM    1  C   UNL     1       0.373   0.632   0.057  1.00  0.00    -0.050 A 
HETATM    2  C   UNL     1      -2.016   0.820  -0.034  1.00  0.00     0.035 A 
HETATM    3  C   UNL     1      -0.763   1.427   0.027  1.00  0.00     0.037 A 
HETATM    4  C   UNL     1       0.293  -0.760   0.045  1.00  0.00    -0.052 A 
HETATM    5  C   UNL     1      -0.934  -1.389   0.006  1.00  0.00     0.010 A 
HETATM    6  C   UNL     1      -2.086  -0.592  -0.042  1.00  0.00     0.030 A 
HETATM    7  C   UNL     1       1.794   1.091   0.147  1.00  0.00     0.039 C 
HETATM    8  C   UNL     1       2.538  -0.177  -0.288  1.00  0.00     0.009 C 
HETATM    9  C   UNL     1       1.658  -1.367   0.129  1.00  0.00     0.039 C 
ENDROOT
BRANCH   2  10
HETATM   10  N   UNL     1      -3.245   1.505  -0.090  1.00  0.00    -0.328 N 
HETATM   11  C   UNL     1      -3.598   2.821  -0.110  1.00  0.00     0.218 C 
HETATM   12  O   UNL     1      -4.799   3.096  -0.172  1.00  0.00    -0.274 OA
HETATM   13  C   UNL     1      -2.579   3.921  -0.056  1.00  0.00     0.117 C 
HETATM   14  H   UNL     1      -4.020   0.899  -0.123  1.00  0.00     0.169 HD
ENDBRANCH   2  10
TORSDOF 1
