REMARK  2 active torsions:
REMARK  status: ('A' for Active; 'I' for Inactive)
REMARK    1  A    between atoms: C_3  and  C_6 
REMARK    2  A    between atoms: N_4  and  C_6 
ROOT
HETATM    1  N   UNL     1      -1.365  -0.067   0.019  1.00  0.00    -0.375 N 
ATOM      2  HN  UNL     1      -2.384  -0.105   0.031  1.00  0.00     0.164 HD
HETATM    3  C   UNL     1       0.689   1.225   0.000  1.00  0.00    -0.017 A 
HETATM    4  C   UNL     1      -0.697   1.110   0.007  1.00  0.00     0.096 A 
HETATM    5  C   UNL     1      -0.613  -1.187   0.014  1.00  0.00     0.087 A 
HETATM    6  C   UNL     1       1.430   0.038   0.007  1.00  0.00     0.011 A 
HETATM    7  C   UNL     1       0.771  -1.188   0.006  1.00  0.00     0.018 A 
ENDROOT
BRANCH   3   8
HETATM    8  C   UNL     1       1.353   2.576   0.012  1.00  0.00     0.271 C 
BRANCH   8   9
HETATM    9  N   UNL     1       2.184   2.777  -1.175  1.00  0.00    -0.075 N 
HETATM   10  C   UNL     1       2.824   4.083  -1.150  1.00  0.00     0.267 C 
HETATM   11  H   UNL     1       1.598   2.708  -2.007  1.00  0.00     0.277 HD
HETATM   12  H   UNL     1       2.909   2.060  -1.189  1.00  0.00     0.277 HD
ENDBRANCH   8   9
ENDBRANCH   3   8
TORSDOF 2
