REMARK  2 active torsions:
REMARK  status: ('A' for Active; 'I' for Inactive)
REMARK    1  A    between atoms: C_1  and  C_2 
REMARK    2  A    between atoms: C_2  and  O_5 
ROOT
HETATM    1  C   UNL     1       0.215   1.221  -0.027  1.00  0.00     0.061 A 
HETATM    2  C   UNL     1      -0.442  -0.017  -0.024  1.00  0.00     0.050 A 
HETATM    3 CL   UNL     1      -2.160  -0.204   0.049  1.00  0.00    -0.083 Cl
HETATM    4  C   UNL     1       1.622   1.247  -0.006  1.00  0.00     0.019 A 
HETATM    5  C   UNL     1       0.309  -1.203  -0.025  1.00  0.00     0.025 A 
HETATM    6  C   UNL     1       2.362   0.061  -0.001  1.00  0.00     0.001 A 
HETATM    7  C   UNL     1       1.704  -1.164  -0.013  1.00  0.00     0.002 A 
ENDROOT
BRANCH   1   8
HETATM    8  C   UNL     1      -0.458   2.544  -0.007  1.00  0.00     0.294 C 
HETATM    9  O   UNL     1       0.033   3.525   0.529  1.00  0.00    -0.259 OA
BRANCH   8  10
HETATM   10  O   UNL     1      -1.602   2.530  -0.728  1.00  0.00    -0.322 OA
HETATM   11  C   UNL     1      -2.297   3.778  -0.755  1.00  0.00     0.213 C 
ENDBRANCH   8  10
ENDBRANCH   1   8
TORSDOF 2
