REMARK  1 active torsions:
REMARK  status: ('A' for Active; 'I' for Inactive)
REMARK    1  A    between atoms: C_3  and  N_6 
ROOT
HETATM    1  C   UNL     1       1.192   0.176   0.009  1.00  0.00     0.145 A 
HETATM    2  C   UNL     1       0.026   0.935   0.000  1.00  0.00     0.086 A 
HETATM    3  C   UNL     1       1.182  -1.235   0.012  1.00  0.00     0.066 A 
HETATM    4  C   UNL     1      -0.069  -1.861   0.003  1.00  0.00     0.035 A 
HETATM    5  C   UNL     1      -1.191   0.279  -0.008  1.00  0.00     0.119 A 
HETATM    6  F   UNL     1       2.371   0.821   0.014  1.00  0.00    -0.204 F 
HETATM    7  C   UNL     1      -1.251  -1.108  -0.006  1.00  0.00     0.044 A 
HETATM    8  F   UNL     1      -2.327   0.988  -0.018  1.00  0.00    -0.206 F 
ENDROOT
BRANCH   3   9
HETATM    9  N   UNL     1       2.386  -1.912   0.001  1.00  0.00    -0.392 N 
HETATM   10  C   UNL     1       2.594  -3.339   0.021  1.00  0.00     0.146 C 
HETATM   11  H   UNL     1       3.197  -1.355  -0.023  1.00  0.00     0.159 HD
ENDBRANCH   3   9
TORSDOF 1
