REMARK  2 active torsions:
REMARK  status: ('A' for Active; 'I' for Inactive)
REMARK    1  A    between atoms: C_1  and  C_2 
REMARK       I    between atoms: C_2  and  N_7 
REMARK    2  A    between atoms: C_3  and  N_8 
ROOT
HETATM    1  C   UNL     1      -1.190   1.125   0.001  1.00  0.00     0.058 A 
HETATM    2  C   UNL     1      -1.217  -0.289   0.010  1.00  0.00     0.042 A 
HETATM    3  C   UNL     1       0.049   1.789   0.022  1.00  0.00     0.020 A 
HETATM    4  C   UNL     1      -0.002  -0.993  -0.016  1.00  0.00     0.036 A 
HETATM    5  C   UNL     1       1.247   1.065   0.039  1.00  0.00     0.008 A 
HETATM    6  C   UNL     1       1.233  -0.330   0.020  1.00  0.00    -0.060 A 
HETATM    7  C   UNL     1       2.508  -1.121   0.032  1.00  0.00     0.048 C 
ENDROOT
BRANCH   1   8
HETATM    8  C   UNL     1      -2.478   1.893   0.062  1.00  0.00     0.251 C 
HETATM    9  O   UNL     1      -3.478   1.433   0.590  1.00  0.00    -0.268 OA
HETATM   10  N   UNL     1      -2.521   3.148  -0.493  1.00  0.00    -0.366 N 
HETATM   11  H   UNL     1      -1.719   3.526  -0.920  1.00  0.00     0.159 HD
HETATM   12  H   UNL     1      -3.355   3.671  -0.462  1.00  0.00     0.159 HD
ENDBRANCH   1   8
BRANCH   2  13
HETATM   13  N   UNL     1      -2.404  -1.023  -0.206  1.00  0.00    -0.398 N 
HETATM   14  H   UNL     1      -3.275  -0.565  -0.195  1.00  0.00     0.156 HD
HETATM   15  H   UNL     1      -2.361  -1.993  -0.367  1.00  0.00     0.156 HD
ENDBRANCH   2  13
TORSDOF 2
