REMARK  4 active torsions:
REMARK  status: ('A' for Active; 'I' for Inactive)
REMARK    1  A    between atoms: C_1  and  O_2 
REMARK    2  A    between atoms: O_2  and  C_6 
REMARK    3  A    between atoms: C_7  and  C_13 
REMARK    4  A    between atoms: O_12  and  C_13 
ROOT
HETATM    1  C   UNL     1       0.851  -1.698  -1.609  1.00  0.00     0.078 A 
HETATM    2  C   UNL     1       1.380  -2.802  -4.148  1.00  0.00    -0.035 A 
HETATM    3  C   UNL     1       2.155  -1.735  -2.096  1.00  0.00     0.037 A 
HETATM    4  C   UNL     1      -0.174  -2.275  -2.365  1.00  0.00     0.037 A 
HETATM    5  C   UNL     1       2.414  -2.269  -3.365  1.00  0.00     0.012 A 
HETATM    6  C   UNL     1       0.084  -2.818  -3.625  1.00  0.00     0.012 A 
ENDROOT
BRANCH   1   7
HETATM    7  O   UNL     1       0.445  -1.167  -0.426  1.00  0.00    -0.255 OA
BRANCH   7   8
HETATM    8  C   UNL     1       1.211  -0.133   0.172  1.00  0.00     0.530 C 
HETATM    9  F   UNL     1       2.024   0.516  -0.689  1.00  0.00    -0.144 F 
HETATM   10  F   UNL     1       1.946  -0.637   1.185  1.00  0.00    -0.144 F 
HETATM   11  F   UNL     1       0.356   0.777   0.688  1.00  0.00    -0.144 F 
ENDBRANCH   7   8
ENDBRANCH   1   7
BRANCH   2  12
HETATM   12  C   UNL     1       1.665  -3.341  -5.524  1.00  0.00     0.202 C 
BRANCH  12  13
HETATM   13  O   UNL     1       2.113  -2.297  -6.382  1.00  0.00    -0.396 OA
HETATM   14  H   UNL     1       2.292  -2.658  -7.264  1.00  0.00     0.209 HD
ENDBRANCH  12  13
ENDBRANCH   2  12
TORSDOF 4
