REMARK  1 active torsions:
REMARK  status: ('A' for Active; 'I' for Inactive)
REMARK    1  A    between atoms: C_1  and  C_8 
ROOT
HETATM    1  C   UNL     1       2.085   0.042  -0.016  1.00  0.00     0.051 A 
HETATM    2  S   UNL     1       0.718   1.081  -0.010  1.00  0.00    -0.076 SA
HETATM    3  C   UNL     1      -0.378  -0.228   0.001  1.00  0.00     0.086 A 
HETATM    4  C   UNL     1       1.697  -1.286  -0.004  1.00  0.00     0.025 A 
HETATM    5  N   UNL     1      -2.955   0.028   0.004  1.00  0.00    -0.191 NA
HETATM    6  C   UNL     1      -1.798  -0.069   0.003  1.00  0.00     0.107 C 
HETATM    7  C   UNL     1       0.278  -1.440   0.006  1.00  0.00     0.032 A 
ENDROOT
BRANCH   1   8
HETATM    8  C   UNL     1       3.426   0.617  -0.033  1.00  0.00     0.162 C 
HETATM    9  O   UNL     1       3.659   1.827  -0.043  1.00  0.00    -0.292 OA
HETATM   10  C   UNL     1       4.579  -0.361  -0.040  1.00  0.00     0.097 C 
ENDBRANCH   1   8
TORSDOF 1
