REMARK  2 active torsions:
REMARK  status: ('A' for Active; 'I' for Inactive)
REMARK    1  A    between atoms: C_1  and  C_2 
REMARK    2  A    between atoms: C_1  and  O_10 
ROOT
HETATM    1  C   UNL     1       0.211  -0.877  -1.006  1.00  0.00     0.041 A 
HETATM    2  C   UNL     1      -1.363  -1.040  -2.844  1.00  0.00     0.041 A 
HETATM    3  C   UNL     1      -0.755  -0.291  -1.831  1.00  0.00     0.042 A 
HETATM    4  C   UNL     1      -1.013  -2.383  -3.059  1.00  0.00    -0.040 A 
HETATM    5  C   UNL     1       0.544  -2.225  -1.194  1.00  0.00     0.018 A 
HETATM    6  C   UNL     1      -0.062  -2.969  -2.212  1.00  0.00     0.009 A 
HETATM    7 CL   UNL     1      -2.557  -0.255  -3.817  1.00  0.00    -0.084 Cl
HETATM    8  C   UNL     1      -1.626  -3.196  -4.165  1.00  0.00     0.050 C 
ENDROOT
BRANCH   1   9
HETATM    9  C   UNL     1       0.912  -0.115   0.068  1.00  0.00     0.293 C 
HETATM   10  O   UNL     1       1.748  -0.610   0.805  1.00  0.00    -0.259 OA
BRANCH   9  11
HETATM   11  O   UNL     1       0.491   1.173   0.086  1.00  0.00    -0.323 OA
HETATM   12  C   UNL     1       1.114   2.017   1.059  1.00  0.00     0.213 C 
ENDBRANCH   9  11
ENDBRANCH   1   9
TORSDOF 2
