REMARK  4 active torsions:
REMARK  status: ('A' for Active; 'I' for Inactive)
REMARK    1  A    between atoms: C_1  and  C_4 
REMARK    2  A    between atoms: C_2  and  O_5 
REMARK    3  A    between atoms: C_3  and  O_5 
REMARK    4  A    between atoms: C_4  and  O_10 
ROOT
HETATM    1  C   UNL     1       1.452  -0.178   0.121  1.00  0.00     0.073 A 
HETATM    2  C   UNL     1       0.610  -1.302   0.083  1.00  0.00     0.094 A 
HETATM    3  C   UNL     1       0.893   1.113   0.030  1.00  0.00     0.020 A 
HETATM    4  C   UNL     1      -0.772  -1.106  -0.057  1.00  0.00     0.038 A 
HETATM    5  C   UNL     1      -0.480   1.292  -0.103  1.00  0.00     0.001 A 
HETATM    6  C   UNL     1      -1.315   0.180  -0.152  1.00  0.00     0.003 A 
ENDROOT
BRANCH   2   7
HETATM    7  O   UNL     1       0.982  -2.578   0.392  1.00  0.00    -0.254 OA
BRANCH   7   8
HETATM    8  C   UNL     1       1.873  -3.249  -0.495  1.00  0.00     0.530 C 
HETATM    9  F   UNL     1       2.697  -2.420  -1.168  1.00  0.00    -0.144 F 
HETATM   10  F   UNL     1       2.613  -4.126   0.216  1.00  0.00    -0.144 F 
HETATM   11  F   UNL     1       1.157  -3.955  -1.400  1.00  0.00    -0.144 F 
ENDBRANCH   7   8
ENDBRANCH   2   7
BRANCH   1  12
HETATM   12  C   UNL     1       2.910  -0.265   0.401  1.00  0.00     0.295 C 
HETATM   13  O   UNL     1       3.427  -1.113   1.107  1.00  0.00    -0.259 OA
BRANCH  12  14
HETATM   14  O   UNL     1       3.540   0.740  -0.258  1.00  0.00    -0.322 OA
HETATM   15  C   UNL     1       4.942   0.874  -0.028  1.00  0.00     0.213 C 
ENDBRANCH  12  14
ENDBRANCH   1  12
TORSDOF 4
