REMARK  1 active torsions:
REMARK  status: ('A' for Active; 'I' for Inactive)
REMARK    1  A    between atoms: N_1  and  C_2 
REMARK       I    between atoms: N_1  and  C_3 
ROOT
HETATM    1  C   UNL     1       0.185   0.712   1.150  1.00  0.00     0.040 A 
HETATM    2  C   UNL     1       0.658   1.902   1.725  1.00  0.00    -0.034 A 
HETATM    3  C   UNL     1      -0.106   2.510   2.739  1.00  0.00     0.032 A 
HETATM    4  C   UNL     1      -0.972   0.098   1.655  1.00  0.00     0.032 A 
HETATM    5  C   UNL     1      -1.273   1.911   3.208  1.00  0.00     0.034 A 
HETATM    6  C   UNL     1      -1.697   0.692   2.690  1.00  0.00     0.026 A 
HETATM    7 CL   UNL     1      -2.197   2.685   4.437  1.00  0.00    -0.084 Cl
HETATM    8  C   UNL     1       1.892   2.621   1.256  1.00  0.00     0.050 C 
ENDROOT
BRANCH   1   9
HETATM    9  N   UNL     1       0.882   0.099   0.104  1.00  0.00    -0.327 N 
HETATM   10  C   UNL     1       0.392  -0.237  -1.130  1.00  0.00     0.218 C 
HETATM   11  O   UNL     1       1.135  -0.776  -1.953  1.00  0.00    -0.274 OA
HETATM   12  C   UNL     1      -1.022   0.144  -1.487  1.00  0.00     0.117 C 
HETATM   13  H   UNL     1       1.828  -0.116   0.274  1.00  0.00     0.169 HD
ENDBRANCH   1   9
TORSDOF 1
