REMARK  1 active torsions:
REMARK  status: ('A' for Active; 'I' for Inactive)
REMARK    1  A    between atoms: C_4  and  N_7 
ROOT
HETATM    1  N   UNL     1       1.085  -0.082   0.260  1.00  0.00    -0.191 NA
HETATM    2  C   UNL     1       3.663  -0.029  -0.040  1.00  0.00     0.070 A 
HETATM    3  C   UNL     1       2.240  -0.059   0.141  1.00  0.00     0.101 C 
HETATM    4  C   UNL     1       4.356   1.187  -0.182  1.00  0.00     0.047 A 
HETATM    5  C   UNL     1       5.754   1.145  -0.304  1.00  0.00     0.037 A 
HETATM    6  C   UNL     1       4.352  -1.249  -0.109  1.00  0.00     0.025 A 
HETATM    7  C   UNL     1       6.448  -0.072  -0.387  1.00  0.00    -0.060 A 
HETATM    8  C   UNL     1       5.735  -1.269  -0.291  1.00  0.00     0.008 A 
HETATM    9  C   UNL     1       7.934  -0.099  -0.591  1.00  0.00     0.048 C 
ENDROOT
BRANCH   4  10
HETATM   10  N   UNL     1       3.742   2.437   0.016  1.00  0.00    -0.398 N 
HETATM   11  H   UNL     1       2.763   2.496   0.105  1.00  0.00     0.156 HD
HETATM   12  H   UNL     1       4.291   3.253   0.066  1.00  0.00     0.156 HD
ENDBRANCH   4  10
TORSDOF 1
