REMARK  1 active torsions:
REMARK  status: ('A' for Active; 'I' for Inactive)
REMARK    1  A    between atoms: C_1  and  C_2 
ROOT
HETATM    1  C   UNL     1       0.247  -0.813   1.052  1.00  0.00     0.042 A 
HETATM    2  C   UNL     1      -1.633  -2.236   1.603  1.00  0.00     0.041 A 
HETATM    3  C   UNL     1      -0.919  -1.480   0.669  1.00  0.00     0.042 A 
HETATM    4  C   UNL     1      -1.193  -2.326   2.935  1.00  0.00    -0.040 A 
HETATM    5  C   UNL     1       0.696  -0.895   2.376  1.00  0.00     0.019 A 
HETATM    6  C   UNL     1      -0.018  -1.656   3.306  1.00  0.00     0.009 A 
HETATM    7 CL   UNL     1      -3.067  -3.035   1.071  1.00  0.00    -0.084 Cl
HETATM    8  C   UNL     1      -1.965  -3.094   3.973  1.00  0.00     0.050 C 
ENDROOT
BRANCH   1   9
HETATM    9  C   UNL     1       0.936   0.026   0.041  1.00  0.00     0.209 C 
HETATM   10  O   UNL     1       0.342   0.599  -0.855  1.00  0.00    -0.644 OA
HETATM   11  O   UNL     1       2.277   0.069   0.187  1.00  0.00    -0.644 OA
ENDBRANCH   1   9
TORSDOF 1
