REMARK  3 active torsions:
REMARK  status: ('A' for Active; 'I' for Inactive)
REMARK    1  A    between atoms: C_1  and  C_2 
REMARK    2  A    between atoms: C_8  and  C_10 
REMARK    3  A    between atoms: C_10  and  C_11 
ROOT
HETATM    1  C   UNL     1       0.262   0.525   1.082  1.00  0.00     0.009 A 
HETATM    2  C   UNL     1       0.621   1.685   1.773  1.00  0.00     0.015 A 
HETATM    3  C   UNL     1      -0.859  -0.203   1.495  1.00  0.00     0.015 A 
HETATM    4  C   UNL     1      -1.643   0.252   2.557  1.00  0.00     0.008 A 
HETATM    5  C   UNL     1      -0.165   2.138   2.839  1.00  0.00     0.008 A 
HETATM    6  C   UNL     1      -1.315   1.439   3.227  1.00  0.00    -0.058 A 
ENDROOT
BRANCH   1   7
HETATM    7  C   UNL     1       1.033   0.018  -0.089  1.00  0.00     0.155 C 
HETATM    8  O   UNL     1       1.000  -1.180  -0.362  1.00  0.00    -0.293 OA
HETATM    9  C   UNL     1       1.789   0.987  -0.963  1.00  0.00     0.096 C 
ENDBRANCH   1   7
BRANCH   6  10
HETATM   10  C   UNL     1      -2.181   1.936   4.359  1.00  0.00     0.038 C 
BRANCH  10  11
HETATM   11  C   UNL     1      -2.788   3.327   4.136  1.00  0.00     0.000 C 
HETATM   12  C   UNL     1      -3.685   3.409   2.909  1.00  0.00     0.005 C 
ENDBRANCH  10  11
ENDBRANCH   6  10
TORSDOF 3
