REMARK  2 active torsions:
REMARK  status: ('A' for Active; 'I' for Inactive)
REMARK    1  A    between atoms: S_1  and  C_2 
REMARK    2  A    between atoms: S_1  and  N_10 
ROOT
HETATM    1  C   UNL     1       0.349  -1.622  -0.104  1.00  0.00     0.084 A 
HETATM    2  C   UNL     1      -1.037  -1.862  -0.251  1.00  0.00    -0.017 A 
HETATM    3  C   UNL     1      -1.462  -3.209  -0.300  1.00  0.00     0.044 A 
HETATM    4  C   UNL     1       1.258  -2.688  -0.013  1.00  0.00     0.067 A 
HETATM    5  C   UNL     1      -0.555  -4.265  -0.209  1.00  0.00     0.066 A 
HETATM    6  C   UNL     1       0.795  -3.993  -0.067  1.00  0.00     0.119 A 
HETATM    7 CL   UNL     1      -3.133  -3.628  -0.478  1.00  0.00    -0.084 Cl
HETATM    8  F   UNL     1       1.666  -5.006   0.019  1.00  0.00    -0.206 F 
HETATM    9  C   UNL     1      -2.069  -0.770  -0.366  1.00  0.00     0.052 C 
ENDROOT
BRANCH   1  10
HETATM   10  S   UNL     1       1.037   0.016  -0.044  1.00  0.00     0.240 S 
HETATM   11  O   UNL     1       0.579   0.756  -1.196  1.00  0.00    -0.206 OA
HETATM   12  O   UNL     1       2.435  -0.069   0.308  1.00  0.00    -0.206 OA
BRANCH  10  13
HETATM   13  N   UNL     1       0.295   0.685   1.304  1.00  0.00    -0.225 NA
HETATM   14  H   UNL     1      -0.706   0.778   1.131  1.00  0.00     0.136 HD
HETATM   15  H   UNL     1       0.695   1.604   1.492  1.00  0.00     0.136 HD
ENDBRANCH  10  13
ENDBRANCH   1  10
TORSDOF 2
