REMARK  2 active torsions:
REMARK  status: ('A' for Active; 'I' for Inactive)
REMARK    1  A    between atoms: C_1  and  C_7 
REMARK    2  A    between atoms: C_4  and  N_8 
ROOT
HETATM    1  C   UNL     1      -0.273  -1.205   0.017  1.00  0.00     0.093 A 
HETATM    2  N   UNL     1       0.977  -0.718   0.120  1.00  0.00    -0.258 N 
ATOM      3  HN  UNL     1       1.837  -1.260   0.200  1.00  0.00     0.195 HD
HETATM    4  C   UNL     1      -1.207  -0.123  -0.055  1.00  0.00     0.087 A 
HETATM    5  C   UNL     1      -0.438   1.012  -0.008  1.00  0.00     0.101 A 
HETATM    6  O   UNL     1       0.868   0.656   0.096  1.00  0.00    -0.240 OA
HETATM    7  C   UNL     1      -0.722   2.458  -0.024  1.00  0.00     0.081 C 
ENDROOT
BRANCH   1   8
HETATM    8  C   UNL     1      -0.513  -2.651   0.015  1.00  0.00    -0.005 A 
HETATM    9  C   UNL     1       0.334  -3.504   0.740  1.00  0.00     0.014 A 
HETATM   10  C   UNL     1       0.115  -4.885   0.756  1.00  0.00     0.001 A 
HETATM   11  C   UNL     1      -0.952  -5.428   0.047  1.00  0.00     0.000 A 
HETATM   12  C   UNL     1      -1.794  -4.596  -0.688  1.00  0.00     0.001 A 
HETATM   13  C   UNL     1      -1.571  -3.216  -0.710  1.00  0.00     0.014 A 
ENDBRANCH   1   8
BRANCH   4  14
HETATM   14  N   UNL     1      -2.557  -0.156  -0.125  1.00  0.00    -0.395 N 
HETATM   15  H   UNL     1      -3.027  -1.021  -0.155  1.00  0.00     0.156 HD
HETATM   16  H   UNL     1      -3.070   0.684  -0.146  1.00  0.00     0.156 HD
ENDBRANCH   4  14
TORSDOF 2
