REMARK  4 active torsions:
REMARK  status: ('A' for Active; 'I' for Inactive)
REMARK    1  A    between atoms: N_1  and  C_5 
REMARK    2  A    between atoms: N_2  and  C_6 
REMARK    3  A    between atoms: C_5  and  C_6 
REMARK    4  A    between atoms: C_5  and  C_7 
ROOT
HETATM    1  C   UNL     1      -1.513   0.023  -1.677  1.00  0.00     0.308 C 
ENDROOT
BRANCH   1   2
HETATM    2  N   UNL     1      -1.442   0.032  -0.175  1.00  0.00    -0.048 N 
HETATM    3  C   UNL     1      -0.792  -1.167   0.422  1.00  0.00     0.263 C 
HETATM    4  C   UNL     1       0.756  -1.189   0.413  1.00  0.00     0.195 C 
HETATM    5  O   UNL     1       1.302   0.004   0.986  1.00  0.00    -0.388 OA
HETATM    6  C   UNL     1       0.791   1.197   0.385  1.00  0.00     0.195 C 
HETATM    7  C   UNL     1      -0.755   1.230   0.374  1.00  0.00     0.263 C 
HETATM    8  H   UNL     1      -2.427   0.038   0.090  1.00  0.00     0.282 HD
ENDBRANCH   1   2
BRANCH   1   9
HETATM    9  C   UNL     1      -0.104  -0.024  -2.246  1.00  0.00    -0.039 C 
BRANCH   9  10
HETATM   10  N   UNL     1       1.065  -0.063  -2.718  1.00  0.00    -0.368 N 
ATOM     11  HN2 UNL     1       0.121  -0.032  -2.333  1.00  0.00     0.165 HD
ATOM     12  HN1 UNL     1       2.010  -0.095  -3.100  1.00  0.00     0.165 HD
ENDBRANCH   9  10
ENDBRANCH   1   9
BRANCH   1  13
HETATM   13  C   UNL     1      -2.378  -1.134  -2.205  1.00  0.00    -0.015 A 
HETATM   14  C   UNL     1      -3.726  -1.221  -1.816  1.00  0.00     0.010 A 
HETATM   15  C   UNL     1      -4.533  -2.274  -2.259  1.00  0.00     0.001 A 
HETATM   16  C   UNL     1      -4.013  -3.255  -3.101  1.00  0.00     0.000 A 
HETATM   17  C   UNL     1      -2.685  -3.185  -3.506  1.00  0.00     0.001 A 
HETATM   18  C   UNL     1      -1.873  -2.137  -3.062  1.00  0.00     0.010 A 
ENDBRANCH   1  13
TORSDOF 4
