REMARK  1 active torsions:
REMARK  status: ('A' for Active; 'I' for Inactive)
REMARK    1  A    between atoms: S_1  and  C_2 
ROOT
HETATM    1  C   LIG     1       2.723   0.163   0.052  1.00  0.00     0.085 A 
HETATM    2  C   LIG     1       3.461   1.381  -0.017  1.00  0.00    -0.003 A 
HETATM    3  C   LIG     1       4.877   1.281   0.006  1.00  0.00    -0.024 A 
HETATM    4  C   LIG     1       3.369  -1.083   0.117  1.00  0.00     0.025 A 
HETATM    5  C   LIG     1       2.913   2.689  -0.106  1.00  0.00     0.014 A 
HETATM    6  C   LIG     1       4.755  -1.149   0.132  1.00  0.00     0.002 A 
HETATM    7  C   LIG     1       5.500   0.025   0.081  1.00  0.00     0.012 A 
HETATM    8  C   LIG     1       5.673   2.438  -0.048  1.00  0.00     0.012 A 
HETATM    9  C   LIG     1       3.720   3.829  -0.160  1.00  0.00     0.001 A 
HETATM   10  C   LIG     1       5.100   3.704  -0.128  1.00  0.00     0.001 A 
ENDROOT
BRANCH   1  11
HETATM   11  S   LIG     1       0.946   0.140   0.055  1.00  0.00     0.262 S 
HETATM   12  O   LIG     1       0.443   1.021  -0.978  1.00  0.00    -0.206 OA
HETATM   13  O   LIG     1       0.485  -1.228   0.186  1.00  0.00    -0.206 OA
HETATM   14 CL   LIG     1       0.492   1.014   1.849  1.00  0.00     0.024 Cl
ENDBRANCH   1  11
TORSDOF 1
