REMARK  2 active torsions:
REMARK  status: ('A' for Active; 'I' for Inactive)
REMARK    1  A    between atoms: C_4  and  C_8 
REMARK    2  A    between atoms: C_5  and  S_9 
ROOT
HETATM    1  N   LIG     1      -0.377   0.977   0.015  1.00  0.00    -0.306 N 
HETATM    2  N   LIG     1       0.945   0.727   0.011  1.00  0.00    -0.294 N 
ATOM      3  HN  LIG     1       1.707   1.406   0.005  1.00  0.00     0.187 HD
HETATM    4  C   LIG     1       1.042  -0.622   0.017  1.00  0.00     0.156 A 
HETATM    5  C   LIG     1      -0.251  -1.200   0.015  1.00  0.00     0.124 A 
HETATM    6  C   LIG     1      -1.142  -0.147   0.012  1.00  0.00     0.136 A 
HETATM    7  C   LIG     1      -0.840   2.345   0.001  1.00  0.00     0.177 C 
ENDROOT
BRANCH   4   8
HETATM    8  C   LIG     1       2.365  -1.345   0.000  1.00  0.00     0.435 C 
HETATM    9  F   LIG     1       3.417  -0.523  -0.263  1.00  0.00    -0.165 F 
HETATM   10  F   LIG     1       2.636  -1.951   1.183  1.00  0.00    -0.165 F 
HETATM   11  F   LIG     1       2.383  -2.305  -0.963  1.00  0.00    -0.165 F 
ENDBRANCH   4   8
BRANCH   5  12
HETATM   12  S   LIG     1      -0.619  -2.874  -0.016  1.00  0.00     0.265 S 
HETATM   13  O   LIG     1       0.454  -3.523   0.698  1.00  0.00    -0.206 OA
HETATM   14  O   LIG     1      -2.009  -2.964   0.378  1.00  0.00    -0.206 OA
HETATM   15 CL   LIG     1      -0.524  -3.497  -1.953  1.00  0.00     0.024 Cl
ENDBRANCH   5  12
TORSDOF 2
