REMARK  5 active torsions:
REMARK  status: ('A' for Active; 'I' for Inactive)
REMARK    1  A    between atoms: S_1  and  C_2 
REMARK    2  A    between atoms: C_10  and  C_11 
REMARK    3  A    between atoms: C_11  and  C_12 
REMARK    4  A    between atoms: C_12  and  C_14 
REMARK    5  A    between atoms: C_13  and  C_14 
ROOT
HETATM    1  C   LIG     1       0.439   0.032  -1.362  1.00  0.00     0.074 A 
HETATM    2  C   LIG     1       1.108   1.039  -2.065  1.00  0.00     0.025 A 
HETATM    3  C   LIG     1      -0.428  -0.836  -2.029  1.00  0.00     0.025 A 
HETATM    4  C   LIG     1      -0.631  -0.694  -3.405  1.00  0.00     0.009 A 
HETATM    5  C   LIG     1       0.893   1.181  -3.441  1.00  0.00     0.009 A 
HETATM    6  C   LIG     1       0.023   0.318  -4.127  1.00  0.00    -0.058 A 
ENDROOT
BRANCH   6   7
HETATM    7  C   LIG     1      -0.204   0.483  -5.618  1.00  0.00     0.038 C 
BRANCH   7   8
HETATM    8  C   LIG     1       0.789  -0.317  -6.476  1.00  0.00     0.005 C 
BRANCH   8   9
HETATM    9  C   LIG     1       0.565  -0.117  -7.987  1.00  0.00    -0.000 C 
BRANCH   9  10
HETATM   10  C   LIG     1       1.579  -0.924  -8.811  1.00  0.00    -0.005 C 
HETATM   11  C   LIG     1       1.405  -0.764 -10.316  1.00  0.00     0.005 C 
ENDBRANCH   9  10
ENDBRANCH   8   9
ENDBRANCH   7   8
ENDBRANCH   6   7
BRANCH   1  12
HETATM   12  S   LIG     1       0.712  -0.151   0.376  1.00  0.00     0.262 S 
HETATM   13  O   LIG     1       2.119  -0.396   0.599  1.00  0.00    -0.206 OA
HETATM   14  O   LIG     1      -0.338  -0.991   0.939  1.00  0.00    -0.206 OA
HETATM   15 CL   LIG     1       0.335   1.723   1.109  1.00  0.00     0.024 Cl
ENDBRANCH   1  12
TORSDOF 5
