REMARK  1 active torsions:
REMARK  status: ('A' for Active; 'I' for Inactive)
REMARK    1  A    between atoms: S_1  and  C_2 
ROOT
HETATM    1  C   LIG     1       0.375  -0.309  -1.613  1.00  0.00     0.078 A 
HETATM    2  C   LIG     1       0.339   0.839  -2.411  1.00  0.00     0.048 A 
HETATM    3  C   LIG     1      -0.003  -1.553  -2.128  1.00  0.00     0.048 A 
HETATM    4  C   LIG     1      -0.057   0.726  -3.742  1.00  0.00     0.037 A 
HETATM    5  C   LIG     1      -0.395  -1.642  -3.462  1.00  0.00     0.037 A 
HETATM    6  C   LIG     1      -0.422  -0.510  -4.274  1.00  0.00     0.047 A 
HETATM    7 CL   LIG     1      -0.096   2.127  -4.738  1.00  0.00    -0.084 Cl
HETATM    8 CL   LIG     1      -0.850  -3.168  -4.113  1.00  0.00    -0.084 Cl
ENDROOT
BRANCH   1   9
HETATM    9  S   LIG     1       0.844  -0.176   0.088  1.00  0.00     0.262 S 
HETATM   10  O   LIG     1       0.275  -1.290   0.816  1.00  0.00    -0.206 OA
HETATM   11  O   LIG     1       0.693   1.201   0.508  1.00  0.00    -0.206 OA
HETATM   12 CL   LIG     1       2.852  -0.524  -0.017  1.00  0.00     0.024 Cl
ENDBRANCH   1   9
TORSDOF 1
