REMARK  4 active torsions:
REMARK  status: ('A' for Active; 'I' for Inactive)
REMARK    1  A    between atoms: S_1  and  C_5 
REMARK    2  A    between atoms: N_2  and  C_3 
REMARK    3  A    between atoms: C_4  and  O_6 
REMARK    4  A    between atoms: O_6  and  C_15 
ROOT
HETATM    1  O   LIG     1      -0.744   2.678   4.612  1.00  0.00    -0.307 OA
ENDROOT
BRANCH   1   2
HETATM    2  C   LIG     1      -0.450   4.006   4.849  1.00  0.00     0.130 A 
HETATM    3  C   LIG     1      -0.760   4.507   6.122  1.00  0.00     0.138 A 
HETATM    4  C   LIG     1      -0.473   5.826   6.505  1.00  0.00     0.039 A 
HETATM    5  C   LIG     1       0.128   6.681   5.589  1.00  0.00     0.004 A 
HETATM    6  C   LIG     1       0.392   6.228   4.297  1.00  0.00     0.027 A 
HETATM    7  C   LIG     1       0.079   4.913   3.913  1.00  0.00     0.070 A 
HETATM    8 CL   LIG     1       0.319   4.554   2.236  1.00  0.00    -0.081 Cl
BRANCH   3   9
HETATM    9  N   LIG     1      -1.428   3.661   7.092  1.00  0.00    -0.113 N 
HETATM   10  O   LIG     1      -2.536   3.205   6.783  1.00  0.00    -0.532 OA
HETATM   11  O   LIG     1      -0.861   3.509   8.182  1.00  0.00    -0.532 OA
ENDBRANCH   3   9
ENDBRANCH   1   2
BRANCH   1  12
HETATM   12  C   LIG     1       0.127   1.933   3.852  1.00  0.00     0.076 A 
HETATM   13  C   LIG     1      -0.445   1.159   2.840  1.00  0.00     0.039 A 
HETATM   14  C   LIG     1       0.371   0.532   1.900  1.00  0.00     0.027 A 
HETATM   15  C   LIG     1       1.758   0.679   1.993  1.00  0.00     0.074 A 
HETATM   16  C   LIG     1       2.337   1.349   3.080  1.00  0.00     0.027 A 
HETATM   17  C   LIG     1       1.514   1.963   4.026  1.00  0.00     0.039 A 
BRANCH  15  18
HETATM   18  S   LIG     1       2.803   0.040   0.715  1.00  0.00     0.262 S 
HETATM   19  O   LIG     1       1.989  -0.614  -0.291  1.00  0.00    -0.206 OA
HETATM   20  O   LIG     1       3.953  -0.587   1.330  1.00  0.00    -0.206 OA
HETATM   21 CL   LIG     1       3.491   1.753  -0.167  1.00  0.00     0.024 Cl
ENDBRANCH  15  18
ENDBRANCH   1  12
TORSDOF 4
