REMARK  1 active torsions:
REMARK  status: ('A' for Active; 'I' for Inactive)
REMARK    1  A    between atoms: S_1  and  C_2 
ROOT
HETATM    1  C   LIG     1       0.504  -1.682  -0.568  1.00  0.00     0.076 A 
HETATM    2  C   LIG     1       0.733  -2.739   0.322  1.00  0.00     0.051 A 
HETATM    3  C   LIG     1       0.420  -4.039  -0.073  1.00  0.00     0.074 A 
HETATM    4  C   LIG     1      -0.106  -4.276  -1.344  1.00  0.00     0.138 A 
HETATM    5  C   LIG     1      -0.011  -1.919  -1.849  1.00  0.00     0.028 A 
HETATM    6  C   LIG     1      -0.321  -3.224  -2.233  1.00  0.00     0.045 A 
HETATM    7 CL   LIG     1       0.690  -5.341   1.020  1.00  0.00    -0.081 Cl
HETATM    8  F   LIG     1      -0.413  -5.521  -1.737  1.00  0.00    -0.204 F 
ENDROOT
BRANCH   1   9
HETATM    9  S   LIG     1       0.929  -0.029  -0.087  1.00  0.00     0.262 S 
HETATM   10  O   LIG     1       1.130   0.766  -1.279  1.00  0.00    -0.206 OA
HETATM   11  O   LIG     1       1.891  -0.091   0.992  1.00  0.00    -0.206 OA
HETATM   12 CL   LIG     1      -0.822   0.614   0.743  1.00  0.00     0.024 Cl
ENDBRANCH   1   9
TORSDOF 1
