REMARK  2 active torsions:
REMARK  status: ('A' for Active; 'I' for Inactive)
REMARK    1  A    between atoms: S_1  and  C_3 
REMARK    2  A    between atoms: C_2  and  C_4 
ROOT
HETATM    1  C   LIG     1       0.437   0.570   1.479  1.00  0.00     0.075 A 
HETATM    2  C   LIG     1       0.192   2.574   2.828  1.00  0.00     0.049 A 
HETATM    3  C   LIG     1       0.611   1.950   1.642  1.00  0.00     0.040 A 
HETATM    4  C   LIG     1      -0.175  -0.196   2.474  1.00  0.00     0.025 A 
HETATM    5  C   LIG     1      -0.409   1.793   3.829  1.00  0.00     0.016 A 
HETATM    6  C   LIG     1      -0.593   0.419   3.652  1.00  0.00     0.002 A 
ENDROOT
BRANCH   1   7
HETATM    7  S   LIG     1       0.956  -0.203  -0.030  1.00  0.00     0.262 S 
HETATM    8  O   LIG     1       0.878   0.768  -1.100  1.00  0.00    -0.206 OA
HETATM    9  O   LIG     1       0.366  -1.521  -0.118  1.00  0.00    -0.206 OA
HETATM   10 CL   LIG     1       2.945  -0.499   0.330  1.00  0.00     0.024 Cl
ENDBRANCH   1   7
BRANCH   2  11
HETATM   11  C   LIG     1       0.374   4.059   3.041  1.00  0.00     0.417 C 
HETATM   12  F   LIG     1       0.992   4.684   2.001  1.00  0.00    -0.166 F 
HETATM   13  F   LIG     1      -0.809   4.707   3.220  1.00  0.00    -0.166 F 
HETATM   14  F   LIG     1       1.126   4.335   4.142  1.00  0.00    -0.166 F 
ENDBRANCH   2  11
TORSDOF 2
