REMARK  1 active torsions:
REMARK  status: ('A' for Active; 'I' for Inactive)
REMARK    1  A    between atoms: S_1  and  C_2 
ROOT
HETATM    1  C   LIG     1       0.316   0.886   1.432  1.00  0.00     0.076 A 
HETATM    2  C   LIG     1      -0.160   0.169   2.533  1.00  0.00     0.048 A 
HETATM    3  C   LIG     1      -0.562   0.866   3.670  1.00  0.00     0.035 A 
HETATM    4 CL   LIG     1      -1.141   0.000   5.039  1.00  0.00    -0.084 Cl
HETATM    5  C   LIG     1       0.368   2.285   1.453  1.00  0.00     0.025 A 
HETATM    6  C   LIG     1      -0.038   2.969   2.599  1.00  0.00     0.003 A 
HETATM    7  C   LIG     1      -0.501   2.259   3.708  1.00  0.00     0.024 A 
ENDROOT
BRANCH   1   8
HETATM    8  S   LIG     1       0.804   0.015  -0.030  1.00  0.00     0.262 S 
HETATM    9  O   LIG     1       0.726   0.915  -1.161  1.00  0.00    -0.206 OA
HETATM   10  O   LIG     1       0.191  -1.296  -0.024  1.00  0.00    -0.206 OA
HETATM   11 CL   LIG     1       2.793  -0.286   0.321  1.00  0.00     0.024 Cl
ENDBRANCH   1   8
TORSDOF 1
