REMARK  2 active torsions:
REMARK  status: ('A' for Active; 'I' for Inactive)
REMARK    1  A    between atoms: S_1  and  C_2 
REMARK    2  A    between atoms: C_6  and  O_12 
ROOT
HETATM    1  C   LIG     1       0.491  -1.458   0.285  1.00  0.00     0.109 A 
HETATM    2  C   LIG     1       1.451  -2.462   0.086  1.00  0.00     0.046 A 
HETATM    3  C   LIG     1      -0.822  -1.780   0.651  1.00  0.00     0.090 A 
HETATM    4  C   LIG     1      -1.173  -3.128   0.780  1.00  0.00     0.039 A 
HETATM    5  C   LIG     1       1.085  -3.795   0.234  1.00  0.00     0.012 A 
HETATM    6  C   LIG     1      -0.222  -4.133   0.575  1.00  0.00     0.022 A 
HETATM    7 BR   LIG     1       2.366  -5.158  -0.034  1.00  0.00    -0.051 Br
ENDROOT
BRANCH   1   8
HETATM    8  S   LIG     1       0.991   0.231   0.111  1.00  0.00     0.264 S 
HETATM    9  O   LIG     1       2.334   0.260  -0.434  1.00  0.00    -0.206 OA
HETATM   10  O   LIG     1       0.638   0.965   1.309  1.00  0.00    -0.206 OA
HETATM   11 CL   LIG     1      -0.194   0.930  -1.402  1.00  0.00     0.024 Cl
ENDBRANCH   1   8
BRANCH   3  12
HETATM   12  O   LIG     1      -1.708  -0.754   0.817  1.00  0.00    -0.354 OA
HETATM   13  C   LIG     1      -2.811  -0.995   1.685  1.00  0.00     0.210 C 
ENDBRANCH   3  12
TORSDOF 2
