REMARK  2 active torsions:
REMARK  status: ('A' for Active; 'I' for Inactive)
REMARK    1  A    between atoms: S_1  and  C_3 
REMARK    2  A    between atoms: N_2  and  C_5 
ROOT
HETATM    1  C   LIG     1       0.264  -0.335   1.457  1.00  0.00     0.083 A 
HETATM    2  C   LIG     1       0.334  -1.685   1.847  1.00  0.00     0.061 A 
HETATM    3  C   LIG     1      -0.067  -2.055   3.136  1.00  0.00     0.104 A 
HETATM    4  C   LIG     1      -0.205   0.648   2.354  1.00  0.00    -0.039 A 
HETATM    5  C   LIG     1      -0.542  -1.096   4.034  1.00  0.00     0.037 A 
HETATM    6  C   LIG     1      -0.612   0.242   3.639  1.00  0.00     0.011 A 
HETATM    7  C   LIG     1      -0.345   2.105   2.005  1.00  0.00     0.050 C 
ENDROOT
BRANCH   1   8
HETATM    8  S   LIG     1       0.736   0.052  -0.221  1.00  0.00     0.262 S 
HETATM    9  O   LIG     1      -0.047   1.165  -0.708  1.00  0.00    -0.206 OA
HETATM   10  O   LIG     1       0.867  -1.184  -0.965  1.00  0.00    -0.206 OA
HETATM   11 CL   LIG     1       2.642   0.742   0.036  1.00  0.00     0.024 Cl
ENDBRANCH   1   8
BRANCH   3  12
HETATM   12  N   LIG     1       0.003  -3.464   3.549  1.00  0.00    -0.116 N 
HETATM   13  O   LIG     1       0.440  -4.282   2.728  1.00  0.00    -0.532 OA
HETATM   14  O   LIG     1      -0.376  -3.748   4.694  1.00  0.00    -0.532 OA
ENDBRANCH   3  12
TORSDOF 2
