REMARK  2 active torsions:
REMARK  status: ('A' for Active; 'I' for Inactive)
REMARK    1  A    between atoms: S_1  and  C_2 
REMARK    2  A    between atoms: C_10  and  C_11 
ROOT
HETATM    1  C   LIG     1       0.431   1.435  -0.696  1.00  0.00     0.074 A 
HETATM    2  C   LIG     1      -0.145   1.367  -1.968  1.00  0.00     0.025 A 
HETATM    3  C   LIG     1       0.770   2.667  -0.132  1.00  0.00     0.025 A 
HETATM    4  C   LIG     1       0.561   3.838  -0.862  1.00  0.00     0.009 A 
HETATM    5  C   LIG     1      -0.350   2.543  -2.693  1.00  0.00     0.009 A 
HETATM    6  C   LIG     1       0.013   3.785  -2.153  1.00  0.00    -0.058 A 
ENDROOT
BRANCH   1   7
HETATM    7  S   LIG     1       0.692  -0.057   0.221  1.00  0.00     0.262 S 
HETATM    8  O   LIG     1      -0.295  -1.036  -0.179  1.00  0.00    -0.206 OA
HETATM    9  O   LIG     1       0.953   0.274   1.607  1.00  0.00    -0.206 OA
HETATM   10 CL   LIG     1       2.474  -0.700  -0.544  1.00  0.00     0.024 Cl
ENDBRANCH   1   7
BRANCH   6  11
HETATM   11  C   LIG     1      -0.197   5.052  -2.945  1.00  0.00     0.034 C 
HETATM   12  C   LIG     1      -1.566   5.667  -2.696  1.00  0.00     0.010 C 
ENDBRANCH   6  11
TORSDOF 2
