REMARK  4 active torsions:
REMARK  status: ('A' for Active; 'I' for Inactive)
REMARK    1  A    between atoms: S_1  and  C_2 
REMARK    2  A    between atoms: C_10  and  C_11 
REMARK    3  A    between atoms: C_11  and  C_12 
REMARK    4  A    between atoms: C_12  and  C_13 
ROOT
HETATM    1  C   LIG     1       0.351  -0.330   0.895  1.00  0.00     0.074 A 
HETATM    2  C   LIG     1       0.597  -1.637   1.323  1.00  0.00     0.025 A 
HETATM    3  C   LIG     1      -0.515   0.501   1.612  1.00  0.00     0.025 A 
HETATM    4  C   LIG     1      -1.151   0.010   2.757  1.00  0.00     0.009 A 
HETATM    5  C   LIG     1      -0.042  -2.120   2.468  1.00  0.00     0.009 A 
HETATM    6  C   LIG     1      -0.915  -1.301   3.199  1.00  0.00    -0.058 A 
ENDROOT
BRANCH   1   7
HETATM    7  S   LIG     1       1.179   0.294  -0.540  1.00  0.00     0.262 S 
HETATM    8  O   LIG     1       2.031  -0.738  -1.090  1.00  0.00    -0.206 OA
HETATM    9  O   LIG     1       1.651   1.636  -0.259  1.00  0.00    -0.206 OA
HETATM   10 CL   LIG     1      -0.360   0.499  -1.870  1.00  0.00     0.024 Cl
ENDBRANCH   1   7
BRANCH   6  11
HETATM   11  C   LIG     1      -1.583  -1.824   4.452  1.00  0.00     0.038 C 
BRANCH  11  12
HETATM   12  C   LIG     1      -2.922  -2.513   4.170  1.00  0.00     0.004 C 
BRANCH  12  13
HETATM   13  C   LIG     1      -3.581  -3.008   5.462  1.00  0.00    -0.004 C 
HETATM   14  C   LIG     1      -4.913  -3.697   5.197  1.00  0.00     0.005 C 
ENDBRANCH  12  13
ENDBRANCH  11  12
ENDBRANCH   6  11
TORSDOF 4
