REMARK  1 active torsions:
REMARK  status: ('A' for Active; 'I' for Inactive)
REMARK    1  A    between atoms: S_2  and  C_9 
ROOT
HETATM    1  C   LIG     1       4.351   1.860  -4.388  1.00  0.00     0.068 C 
HETATM    2  C   LIG     1       4.520   0.367  -4.117  1.00  0.00     0.180 C 
HETATM    3  O   LIG     1       3.703   0.004  -2.978  1.00  0.00    -0.349 OA
HETATM    4  C   LIG     1       3.918   2.292  -3.039  1.00  0.00    -0.021 A 
HETATM    5  C   LIG     1       3.541   1.180  -2.296  1.00  0.00     0.097 A 
HETATM    6  C   LIG     1       3.036   1.318  -1.019  1.00  0.00     0.108 A 
HETATM    7  C   LIG     1       2.925   2.604  -0.473  1.00  0.00     0.027 A 
HETATM    8  C   LIG     1       3.308   3.725  -1.228  1.00  0.00     0.002 A 
HETATM    9  C   LIG     1       3.802   3.573  -2.526  1.00  0.00     0.010 A 
ENDROOT
BRANCH   6  10
HETATM   10  S   LIG     1       2.564  -0.089  -0.080  1.00  0.00     0.264 S 
HETATM   11  O   LIG     1       1.850   0.362   1.100  1.00  0.00    -0.206 OA
HETATM   12  O   LIG     1       3.680  -1.008   0.006  1.00  0.00    -0.206 OA
HETATM   13 CL   LIG     1       1.136  -0.985  -1.237  1.00  0.00     0.024 Cl
ENDBRANCH   6  10
TORSDOF 1
