REMARK  1 active torsions:
REMARK  status: ('A' for Active; 'I' for Inactive)
REMARK    1  A    between atoms: C_3  and  S_9 
ROOT
HETATM    1  O   LIG     1      -0.112  -0.916  -0.095  1.00  0.00    -0.241 OA
HETATM    2  C   LIG     1       1.174  -0.482   0.005  1.00  0.00     0.097 A 
HETATM    3  C   LIG     1       1.168   0.891   0.037  1.00  0.00     0.130 A 
HETATM    4  C   LIG     1      -0.191   1.258  -0.056  1.00  0.00     0.054 A 
HETATM    5  N   LIG     1      -0.968   0.169  -0.137  1.00  0.00    -0.264 N 
ATOM      6  HN  LIG     1      -1.985   0.145  -0.214  1.00  0.00     0.194 HD
HETATM    7  C   LIG     1      -0.809   2.605  -0.071  1.00  0.00     0.072 C 
HETATM    8  C   LIG     1       2.214  -1.527   0.052  1.00  0.00     0.081 C 
ENDROOT
BRANCH   3   9
HETATM    9  S   LIG     1       2.506   1.938   0.124  1.00  0.00     0.266 S 
HETATM   10 CL   LIG     1       2.880   2.618  -1.762  1.00  0.00     0.024 Cl
HETATM   11  O   LIG     1       2.064   3.080   0.894  1.00  0.00    -0.206 OA
HETATM   12  O   LIG     1       3.639   1.120   0.496  1.00  0.00    -0.206 OA
ENDBRANCH   3   9
TORSDOF 1
