REMARK  1 active torsions:
REMARK  status: ('A' for Active; 'I' for Inactive)
REMARK    1  A    between atoms: S_1  and  C_2 
ROOT
HETATM    1  C   LIG     1       0.503  -0.992  -1.341  1.00  0.00     0.075 A 
HETATM    2  C   LIG     1       0.702  -2.336  -0.996  1.00  0.00     0.034 A 
HETATM    3  C   LIG     1       0.136  -0.618  -2.649  1.00  0.00     0.027 A 
HETATM    4  C   LIG     1      -0.061  -1.597  -3.625  1.00  0.00     0.039 A 
HETATM    5  C   LIG     1       0.113  -2.917  -3.261  1.00  0.00     0.075 A 
HETATM    6  C   LIG     1       0.489  -3.287  -1.978  1.00  0.00    -0.021 A 
HETATM    7  C   LIG     1       0.677  -4.754  -1.931  1.00  0.00     0.068 C 
HETATM    8  C   LIG     1      -0.016  -5.130  -3.241  1.00  0.00     0.180 C 
HETATM    9  O   LIG     1      -0.034  -3.977  -4.117  1.00  0.00    -0.350 OA
ENDROOT
BRANCH   1  10
HETATM   10  S   LIG     1       0.780   0.269  -0.127  1.00  0.00     0.262 S 
HETATM   11  O   LIG     1       1.151   1.497  -0.797  1.00  0.00    -0.206 OA
HETATM   12  O   LIG     1       1.543  -0.288   0.971  1.00  0.00    -0.206 OA
HETATM   13 CL   LIG     1      -1.109   0.563   0.593  1.00  0.00     0.024 Cl
ENDBRANCH   1  10
TORSDOF 1
