REMARK  2 active torsions:
REMARK  status: ('A' for Active; 'I' for Inactive)
REMARK    1  A    between atoms: C_3  and  S_14 
REMARK    2  A    between atoms: C_4  and  C_7 
ROOT
HETATM    1  O   LIG     1      -0.237   0.028   0.077  1.00  0.00    -0.241 OA
HETATM    2  C   LIG     1       1.091  -0.230   0.145  1.00  0.00     0.097 A 
HETATM    3  C   LIG     1       1.772   0.966   0.139  1.00  0.00     0.135 A 
HETATM    4  C   LIG     1       0.774   1.972   0.013  1.00  0.00     0.090 A 
HETATM    5  N   LIG     1      -0.439   1.383   0.005  1.00  0.00    -0.259 N 
ATOM      6  HN  LIG     1      -1.341   1.857  -0.045  1.00  0.00     0.195 HD
HETATM    7  C   LIG     1       1.470  -1.655   0.210  1.00  0.00     0.081 C 
ENDROOT
BRANCH   4   8
HETATM    8  C   LIG     1       0.837   3.437  -0.088  1.00  0.00    -0.006 A 
HETATM    9  C   LIG     1      -0.196   4.212   0.471  1.00  0.00     0.014 A 
HETATM   10  C   LIG     1      -0.204   5.605   0.353  1.00  0.00     0.001 A 
HETATM   11  C   LIG     1       0.830   6.250  -0.316  1.00  0.00     0.000 A 
HETATM   12  C   LIG     1       1.859   5.501  -0.881  1.00  0.00     0.001 A 
HETATM   13  C   LIG     1       1.852   4.105  -0.784  1.00  0.00     0.014 A 
ENDBRANCH   4   8
BRANCH   3  14
HETATM   14  S   LIG     1       3.459   1.136   0.267  1.00  0.00     0.266 S 
HETATM   15  O   LIG     1       3.938  -0.090   0.866  1.00  0.00    -0.206 OA
HETATM   16  O   LIG     1       3.903   1.586  -1.037  1.00  0.00    -0.206 OA
HETATM   17 CL   LIG     1       3.911   2.609   1.602  1.00  0.00     0.024 Cl
ENDBRANCH   3  14
TORSDOF 2
