REMARK  2 active torsions:
REMARK  status: ('A' for Active; 'I' for Inactive)
REMARK    1  A    between atoms: C_2  and  C_7 
REMARK    2  A    between atoms: C_3  and  S_8 
ROOT
HETATM    1  O   LIG     1       0.884   0.668   0.143  1.00  0.00    -0.309 OA
HETATM    2  C   LIG     1       0.982  -0.697   0.083  1.00  0.00     0.182 A 
HETATM    3  C   LIG     1      -0.282  -1.235  -0.032  1.00  0.00     0.115 A 
HETATM    4  C   LIG     1      -1.200  -0.157  -0.066  1.00  0.00     0.060 A 
HETATM    5  C   LIG     1      -0.438   0.987   0.046  1.00  0.00     0.051 A 
HETATM    6  C   LIG     1      -0.763   2.428   0.066  1.00  0.00     0.077 C 
ENDROOT
BRANCH   2   7
HETATM    7  C   LIG     1       2.332  -1.310   0.141  1.00  0.00     0.441 C 
HETATM    8  F   LIG     1       3.322  -0.412  -0.102  1.00  0.00    -0.164 F 
HETATM    9  F   LIG     1       2.589  -1.855   1.355  1.00  0.00    -0.164 F 
HETATM   10  F   LIG     1       2.470  -2.296  -0.782  1.00  0.00    -0.164 F 
ENDBRANCH   2   7
BRANCH   3  11
HETATM   11  S   LIG     1      -0.627  -2.907  -0.157  1.00  0.00     0.264 S 
HETATM   12  O   LIG     1      -0.640  -3.169  -1.579  1.00  0.00    -0.206 OA
HETATM   13  O   LIG     1       0.269  -3.544   0.778  1.00  0.00    -0.206 OA
HETATM   14 CL   LIG     1      -2.520  -3.245   0.525  1.00  0.00     0.024 Cl
ENDBRANCH   3  11
TORSDOF 2
