REMARK  1 active torsions:
REMARK  status: ('A' for Active; 'I' for Inactive)
REMARK    1  A    between atoms: C_3  and  S_7 
ROOT
HETATM    1  O   LIG     1       0.903   0.582   0.120  1.00  0.00    -0.242 OA
HETATM    2  C   LIG     1       0.907  -0.781   0.077  1.00  0.00     0.096 A 
HETATM    3  C   LIG     1      -0.392  -1.214  -0.011  1.00  0.00     0.123 A 
HETATM    4  C   LIG     1      -1.167  -0.051  -0.020  1.00  0.00     0.141 A 
HETATM    5  N   LIG     1      -0.406   1.043   0.065  1.00  0.00    -0.271 N 
ATOM      6  HN  LIG     1      -0.720   2.013   0.085  1.00  0.00     0.194 HD
HETATM    7  C   LIG     1       2.226  -1.438   0.119  1.00  0.00     0.081 C 
ENDROOT
BRANCH   3   8
HETATM    8  S   LIG     1      -0.960  -2.810  -0.075  1.00  0.00     0.265 S 
HETATM    9 CL   LIG     1      -0.801  -3.604   1.796  1.00  0.00     0.024 Cl
HETATM   10  O   LIG     1      -2.374  -2.709  -0.363  1.00  0.00    -0.206 OA
HETATM   11  O   LIG     1      -0.020  -3.524  -0.911  1.00  0.00    -0.206 OA
ENDBRANCH   3   8
TORSDOF 1
