REMARK  1 active torsions:
REMARK  status: ('A' for Active; 'I' for Inactive)
REMARK    1  A    between atoms: C_3  and  S_8 
ROOT
HETATM    1  O   LIG     1       0.850   0.620   0.096  1.00  0.00    -0.319 OA
HETATM    2  C   LIG     1       0.858  -0.745   0.066  1.00  0.00     0.072 A 
HETATM    3  C   LIG     1      -0.436  -1.209  -0.028  1.00  0.00     0.106 A 
HETATM    4  C   LIG     1      -1.284  -0.073  -0.056  1.00  0.00     0.059 A 
HETATM    5  C   LIG     1      -0.450   1.022   0.020  1.00  0.00     0.051 A 
HETATM    6  C   LIG     1      -0.683   2.480   0.032  1.00  0.00     0.077 C 
HETATM    7  C   LIG     1       2.185  -1.392   0.124  1.00  0.00     0.078 C 
ENDROOT
BRANCH   3   8
HETATM    8  S   LIG     1      -0.926  -2.850  -0.076  1.00  0.00     0.264 S 
HETATM    9 CL   LIG     1      -0.701  -3.619   1.800  1.00  0.00     0.024 Cl
HETATM   10  O   LIG     1      -2.348  -2.829  -0.345  1.00  0.00    -0.206 OA
HETATM   11  O   LIG     1       0.038  -3.523  -0.919  1.00  0.00    -0.206 OA
ENDBRANCH   3   8
TORSDOF 1
