REMARK  1 active torsions:
REMARK  status: ('A' for Active; 'I' for Inactive)
REMARK    1  A    between atoms: S_1  and  C_2 
ROOT
HETATM    1  C   LIG     1       0.376  -0.485   1.665  1.00  0.00     0.077 A 
HETATM    2  C   LIG     1      -0.171   0.526   2.462  1.00  0.00     0.064 A 
HETATM    3  C   LIG     1      -0.546   0.231   3.770  1.00  0.00     0.103 A 
HETATM    4  C   LIG     1      -0.341  -1.052   4.291  1.00  0.00     0.102 A 
HETATM    5  O   LIG     1      -1.103   1.254   4.493  1.00  0.00    -0.346 OA
HETATM    6  O   LIG     1      -0.656  -1.397   5.580  1.00  0.00    -0.346 OA
HETATM    7  C   LIG     1       0.572  -1.774   2.175  1.00  0.00     0.027 A 
HETATM    8  C   LIG     1       0.205  -2.056   3.492  1.00  0.00     0.041 A 
HETATM    9  C   LIG     1      -1.747   0.770   5.678  1.00  0.00     0.202 C 
HETATM   10  C   LIG     1      -0.865  -0.238   6.396  1.00  0.00     0.202 C 
ENDROOT
BRANCH   1  11
HETATM   11  S   LIG     1       0.870  -0.115   0.007  1.00  0.00     0.262 S 
HETATM   12  O   LIG     1       1.854  -1.089  -0.420  1.00  0.00    -0.206 OA
HETATM   13  O   LIG     1       1.072   1.312  -0.123  1.00  0.00    -0.206 OA
HETATM   14 CL   LIG     1      -0.836  -0.544  -1.032  1.00  0.00     0.024 Cl
ENDBRANCH   1  11
TORSDOF 1
