REMARK  1 active torsions:
REMARK  status: ('A' for Active; 'I' for Inactive)
REMARK    1  A    between atoms: C_2  and  S_5 
ROOT
HETATM    1  C   LIG     1       1.937   1.005  -0.013  1.00  0.00     0.027 A 
HETATM    2  C   LIG     1       2.190  -0.383  -0.022  1.00  0.00     0.077 A 
HETATM    3  C   LIG     1       1.143  -1.313  -0.030  1.00  0.00     0.064 A 
HETATM    4  C   LIG     1       0.621   1.475   0.012  1.00  0.00     0.041 A 
HETATM    5  C   LIG     1      -0.394   0.541   0.017  1.00  0.00     0.105 A 
HETATM    6  C   LIG     1      -0.140  -0.811  -0.005  1.00  0.00     0.106 A 
HETATM    7  O   LIG     1      -1.280  -1.552  -0.001  1.00  0.00    -0.323 OA
HETATM    8  C   LIG     1      -2.282  -0.514   0.022  1.00  0.00     0.352 A 
HETATM    9  O   LIG     1      -1.725   0.818   0.038  1.00  0.00    -0.323 OA
ENDROOT
BRANCH   2  10
HETATM   10  S   LIG     1       3.862  -0.964  -0.078  1.00  0.00     0.262 S 
HETATM   11 CL   LIG     1       4.282  -1.187   1.908  1.00  0.00     0.024 Cl
HETATM   12  O   LIG     1       3.881  -2.295  -0.647  1.00  0.00    -0.206 OA
HETATM   13  O   LIG     1       4.717   0.104  -0.551  1.00  0.00    -0.206 OA
ENDBRANCH   2  10
TORSDOF 1
