REMARK  2 active torsions:
REMARK  status: ('A' for Active; 'I' for Inactive)
REMARK    1  A    between atoms: C_1  and  C_6 
REMARK    2  A    between atoms: C_3  and  S_7 
ROOT
HETATM    1  S   LIG     1       0.018  -4.028   0.147  1.00  0.00    -0.075 SA
HETATM    2  C   LIG     1      -1.373  -4.959  -0.188  1.00  0.00     0.116 A 
HETATM    3  C   LIG     1      -2.465  -4.159  -0.459  1.00  0.00     0.033 A 
HETATM    4  C   LIG     1      -2.145  -2.774  -0.383  1.00  0.00     0.023 A 
HETATM    5  C   LIG     1      -0.815  -2.542  -0.074  1.00  0.00     0.033 A 
ENDROOT
BRANCH   5   6
HETATM    6  C   LIG     1      -0.137  -1.248   0.099  1.00  0.00     0.049 A 
HETATM    7  N   LIG     1      -0.962  -0.241   0.479  1.00  0.00    -0.365 N 
HETATM    8  C   LIG     1      -0.412   0.980   0.658  1.00  0.00     0.088 A 
ATOM      9  HN  LIG     1      -1.959  -0.399   0.624  1.00  0.00     0.165 HD
HETATM   10  C   LIG     1       0.930   1.257   0.464  1.00  0.00     0.017 A 
HETATM   11  C   LIG     1       1.760   0.220   0.062  1.00  0.00     0.004 A 
HETATM   12  C   LIG     1       1.224  -1.053  -0.124  1.00  0.00     0.031 A 
ENDBRANCH   5   6
BRANCH   2  13
HETATM   13  S   LIG     1      -1.172  -6.719  -0.126  1.00  0.00     0.268 S 
HETATM   14 CL   LIG     1      -0.544  -7.226   1.752  1.00  0.00     0.024 Cl
HETATM   15  O   LIG     1      -2.503  -7.269  -0.260  1.00  0.00    -0.205 OA
HETATM   16  O   LIG     1      -0.089  -7.050  -1.029  1.00  0.00    -0.205 OA
ENDBRANCH   2  13
TORSDOF 2
