REMARK  2 active torsions:
REMARK  status: ('A' for Active; 'I' for Inactive)
REMARK    1  A    between atoms: S_6  and  O_8 
REMARK    2  A    between atoms: S_6  and  O_10 
ROOT
HETATM    1  O   LIG     1      -0.371   0.086  -0.909  1.00  0.00    -0.316 OA
HETATM    2  C   LIG     1      -0.471   1.215  -0.119  1.00  0.00     0.141 A 
HETATM    3  C   LIG     1       0.472   1.101   0.898  1.00  0.00     0.178 A 
HETATM    4  C   LIG     1       1.158  -0.122   0.718  1.00  0.00     0.023 A 
HETATM    5  C   LIG     1       0.607  -0.701  -0.397  1.00  0.00     0.140 A 
HETATM    6  S   LIG     1      -1.654   2.504  -0.473  1.00  0.00     0.033 SA
HETATM    7 CL   LIG     1      -3.279   1.638  -1.352  1.00  0.00    -0.018 Cl
ENDROOT
BRANCH   6   8
HETATM    8  O   LIG     1      -2.098   2.996   0.814  1.00  0.00    -0.320 OA
ATOM      9  HO  LIG     1      -2.796   3.457   0.364  1.00  0.00     0.229 HD
ENDBRANCH   6   8
BRANCH   6  10
HETATM   10  O   LIG     1      -1.038   3.349  -1.474  1.00  0.00    -0.320 OA
ATOM     11  HO  LIG     1      -1.736   3.810  -1.924  1.00  0.00     0.229 HD
ENDBRANCH   6  10
TORSDOF 2
