REMARK  1 active torsions:
REMARK  status: ('A' for Active; 'I' for Inactive)
REMARK    1  A    between atoms: C_2  and  S_6 
ROOT
HETATM    1  O   LIG     1       0.790  -0.676   0.495  1.00  0.00    -0.310 OA
HETATM    2  C   LIG     1      -0.458  -1.105   0.085  1.00  0.00     0.184 A 
HETATM    3  C   LIG     1      -1.168   0.014  -0.340  1.00  0.00     0.052 A 
HETATM    4  C   LIG     1      -0.331   1.143  -0.184  1.00  0.00     0.028 A 
HETATM    5  C   LIG     1       0.850   0.667   0.326  1.00  0.00     0.143 A 
ENDROOT
BRANCH   2   6
HETATM    6  S   LIG     1      -0.925  -2.826   0.149  1.00  0.00     0.284 S 
HETATM    7 CL   LIG     1       0.071  -3.687   1.709  1.00  0.00     0.026 Cl
HETATM    8  O   LIG     1      -2.330  -2.841   0.501  1.00  0.00    -0.204 OA
HETATM    9  O   LIG     1      -0.404  -3.428  -1.060  1.00  0.00    -0.204 OA
ENDBRANCH   2   6
TORSDOF 1
