REMARK  1 active torsions:
REMARK  status: ('A' for Active; 'I' for Inactive)
REMARK    1  A    between atoms: C_3  and  S_8 
ROOT
HETATM    1  N   LIG     1      -0.369  -1.064   0.009  1.00  0.00    -0.354 N 
HETATM    2  C   LIG     1      -1.130   0.020  -0.324  1.00  0.00     0.134 A 
HETATM    3  C   LIG     1      -0.434   1.108   0.171  1.00  0.00     0.160 A 
HETATM    4  N   LIG     1       0.732   0.692   0.795  1.00  0.00    -0.341 N 
ATOM      5  HN  LIG     1       1.435   1.276   1.248  1.00  0.00     0.167 HD
HETATM    6  C   LIG     1       0.736  -0.617   0.676  1.00  0.00     0.183 A 
HETATM    7  C   LIG     1      -0.674  -2.442  -0.284  1.00  0.00     0.156 C 
ENDROOT
BRANCH   3   8
HETATM    8  S   LIG     1      -0.926   2.769   0.041  1.00  0.00     0.279 S 
HETATM    9 CL   LIG     1       0.332   3.930   1.150  1.00  0.00     0.025 Cl
HETATM   10  O   LIG     1      -0.712   3.124  -1.348  1.00  0.00    -0.204 OA
HETATM   11  O   LIG     1      -2.225   2.833   0.680  1.00  0.00    -0.204 OA
ENDBRANCH   3   8
TORSDOF 1
