REMARK  1 active torsions:
REMARK  status: ('A' for Active; 'I' for Inactive)
REMARK    1  A    between atoms: C_2  and  S_11 
ROOT
HETATM    1  C   LIG     1      -0.998  -1.477   0.071  1.00  0.00     0.045 A 
HETATM    2  C   LIG     1      -2.177  -0.717   0.074  1.00  0.00     0.076 A 
HETATM    3  C   LIG     1      -2.148   0.677   0.017  1.00  0.00     0.027 A 
HETATM    4  C   LIG     1      -0.920   1.347  -0.021  1.00  0.00     0.032 A 
HETATM    5  N   LIG     1       1.559   1.151  -0.043  1.00  0.00    -0.359 N 
ATOM      6  HN  LIG     1       1.777   2.147  -0.074  1.00  0.00     0.166 HD
HETATM    7  C   LIG     1       2.445   0.182  -0.028  1.00  0.00     0.139 A 
HETATM    8  S   LIG     1       1.828  -1.414   0.027  1.00  0.00    -0.083 SA
HETATM    9  C   LIG     1       0.223  -0.783   0.033  1.00  0.00     0.034 A 
HETATM   10  C   LIG     1       0.284   0.613  -0.010  1.00  0.00     0.049 A 
ENDROOT
BRANCH   2  11
HETATM   11  S   LIG     1      -3.741  -1.554   0.097  1.00  0.00     0.262 S 
HETATM   12 CL   LIG     1      -4.116  -1.660   2.101  1.00  0.00     0.024 Cl
HETATM   13  O   LIG     1      -4.751  -0.678  -0.457  1.00  0.00    -0.206 OA
HETATM   14  O   LIG     1      -3.550  -2.918  -0.350  1.00  0.00    -0.206 OA
ENDBRANCH   2  11
TORSDOF 1
