REMARK  1 active torsions:
REMARK  status: ('A' for Active; 'I' for Inactive)
REMARK    1  A    between atoms: C_2  and  S_9 
ROOT
HETATM    1  S   LIG     1      -0.338  -1.529   0.024  1.00  0.00    -0.062 SA
HETATM    2  C   LIG     1       1.152  -0.683   0.058  1.00  0.00     0.139 A 
HETATM    3  C   LIG     1       0.920   0.679  -0.003  1.00  0.00     0.035 A 
HETATM    4  N   LIG     1      -0.418   1.036  -0.090  1.00  0.00    -0.356 N 
ATOM      5  HN  LIG     1      -0.763   1.994  -0.154  1.00  0.00     0.166 HD
HETATM    6  C   LIG     1      -1.177  -0.037  -0.078  1.00  0.00     0.048 A 
HETATM    7  C   LIG     1      -2.664  -0.018  -0.144  1.00  0.00     0.076 C 
HETATM    8  C   LIG     1       1.939   1.762   0.012  1.00  0.00     0.070 C 
ENDROOT
BRANCH   2   9
HETATM    9  S   LIG     1       2.612  -1.658   0.168  1.00  0.00     0.270 S 
HETATM   10 CL   LIG     1       2.620  -2.989  -1.383  1.00  0.00     0.024 Cl
HETATM   11  O   LIG     1       3.719  -0.760  -0.085  1.00  0.00    -0.205 OA
HETATM   12  O   LIG     1       2.500  -2.441   1.380  1.00  0.00    -0.205 OA
ENDBRANCH   2   9
TORSDOF 1
