REMARK  1 active torsions:
REMARK  status: ('A' for Active; 'I' for Inactive)
REMARK    1  A    between atoms: C_6  and  S_10 
ROOT
HETATM    1  C   LIG     1       2.148   0.658  -0.108  1.00  0.00     0.001 A 
HETATM    2  C   LIG     1       2.072  -0.707   0.180  1.00  0.00     0.003 A 
HETATM    3  C   LIG     1       0.837  -1.350   0.314  1.00  0.00     0.038 A 
HETATM    4  C   LIG     1       0.988   1.428  -0.273  1.00  0.00     0.014 A 
HETATM    5  O   LIG     1      -1.579  -0.991   0.237  1.00  0.00    -0.297 OA
HETATM    6  C   LIG     1      -2.413   0.085   0.005  1.00  0.00     0.186 A 
HETATM    7  C   LIG     1      -1.616   1.201  -0.231  1.00  0.00     0.065 A 
HETATM    8  C   LIG     1      -0.262   0.798  -0.142  1.00  0.00     0.001 A 
HETATM    9  C   LIG     1      -0.296  -0.558   0.145  1.00  0.00     0.087 A 
ENDROOT
BRANCH   6  10
HETATM   10  S   LIG     1      -4.186  -0.089   0.038  1.00  0.00     0.284 S 
HETATM   11 CL   LIG     1      -4.647  -1.535   1.402  1.00  0.00     0.026 Cl
HETATM   12  O   LIG     1      -4.693   1.158   0.574  1.00  0.00    -0.204 OA
HETATM   13  O   LIG     1      -4.563  -0.604  -1.260  1.00  0.00    -0.204 OA
ENDBRANCH   6  10
TORSDOF 1
