REMARK  1 active torsions:
REMARK  status: ('A' for Active; 'I' for Inactive)
REMARK    1  A    between atoms: C_4  and  S_5 
ROOT
HETATM    1  C   LIG     1      -0.941  -1.476  -0.008  1.00  0.00     0.032 A 
HETATM    2  C   LIG     1      -2.094  -0.678  -0.087  1.00  0.00     0.004 A 
HETATM    3  C   LIG     1      -2.057   0.738  -0.102  1.00  0.00     0.027 A 
HETATM    4  C   LIG     1      -0.854   1.475  -0.037  1.00  0.00     0.104 A 
HETATM    5  C   LIG     1       0.292  -0.785   0.060  1.00  0.00     0.068 A 
HETATM    6  C   LIG     1       0.342   0.724   0.046  1.00  0.00     0.089 A 
HETATM    7  N   LIG     1       1.599   1.192   0.119  1.00  0.00    -0.309 N 
ATOM      8  HN  LIG     1       1.881   2.172   0.126  1.00  0.00     0.176 HD
HETATM    9  S   LIG     1       2.607  -0.123   0.196  1.00  0.00     0.068 SA
HETATM   10  N   LIG     1       1.501  -1.359   0.142  1.00  0.00    -0.310 N 
ATOM     11  HN  LIG     1       1.701  -2.359   0.166  1.00  0.00     0.176 HD
ENDROOT
BRANCH   4  12
HETATM   12  S   LIG     1      -0.767   3.225  -0.053  1.00  0.00     0.264 S 
HETATM   13  O   LIG     1      -0.345   3.678   1.255  1.00  0.00    -0.206 OA
HETATM   14  O   LIG     1      -0.150   3.647  -1.292  1.00  0.00    -0.206 OA
HETATM   15 CL   LIG     1      -2.703   3.884  -0.211  1.00  0.00     0.024 Cl
ENDBRANCH   4  12
TORSDOF 1
