REMARK  1 active torsions:
REMARK  status: ('A' for Active; 'I' for Inactive)
REMARK    1  A    between atoms: C_4  and  S_12 
ROOT
HETATM    1  C   LIG     1      -0.916  -1.478  -0.013  1.00  0.00     0.034 A 
HETATM    2  C   LIG     1      -2.081  -0.689  -0.005  1.00  0.00     0.004 A 
HETATM    3  C   LIG     1      -2.055   0.731   0.002  1.00  0.00     0.027 A 
HETATM    4  C   LIG     1      -0.853   1.474  -0.006  1.00  0.00     0.105 A 
HETATM    5  C   LIG     1       0.288  -0.750  -0.002  1.00  0.00     0.086 A 
HETATM    6  C   LIG     1       0.326   0.709   0.005  1.00  0.00     0.108 A 
HETATM    7  N   LIG     1       1.612   1.081   0.031  1.00  0.00    -0.238 N 
ATOM      8  HN  LIG     1       1.973   2.035   0.051  1.00  0.00     0.197 HD
HETATM    9  O   LIG     1       2.353  -0.086   0.026  1.00  0.00    -0.156 OA
HETATM   10  N   LIG     1       1.544  -1.207   0.007  1.00  0.00    -0.239 N 
ATOM     11  HN  LIG     1       1.844  -2.182   0.001  1.00  0.00     0.197 HD
ENDROOT
BRANCH   4  12
HETATM   12  S   LIG     1      -0.783   3.219   0.006  1.00  0.00     0.264 S 
HETATM   13  O   LIG     1      -0.770   3.661   1.383  1.00  0.00    -0.206 OA
HETATM   14  O   LIG     1       0.162   3.668  -0.993  1.00  0.00    -0.206 OA
HETATM   15 CL   LIG     1      -2.596   3.825  -0.737  1.00  0.00     0.024 Cl
ENDBRANCH   4  12
TORSDOF 1
