REMARK  1 active torsions:
REMARK  status: ('A' for Active; 'I' for Inactive)
REMARK    1  A    between atoms: C_3  and  S_12 
ROOT
HETATM    1  C   LIG     1      -0.941   1.439  -0.341  1.00  0.00     0.034 A 
HETATM    2  C   LIG     1      -2.115   0.663  -0.320  1.00  0.00     0.027 A 
HETATM    3  C   LIG     1      -2.110  -0.730  -0.037  1.00  0.00     0.077 A 
HETATM    4  C   LIG     1      -0.941  -1.473   0.226  1.00  0.00     0.057 A 
HETATM    5  C   LIG     1       0.266   0.750  -0.072  1.00  0.00     0.067 A 
HETATM    6  C   LIG     1       0.263  -0.732   0.215  1.00  0.00     0.068 A 
HETATM    7  N   LIG     1       1.488  -1.225   0.446  1.00  0.00    -0.310 N 
ATOM      8  HN  LIG     1       1.726  -2.193   0.662  1.00  0.00     0.176 HD
HETATM    9  S   LIG     1       2.543   0.052   0.312  1.00  0.00     0.068 SA
HETATM   10  N   LIG     1       1.492   1.291  -0.041  1.00  0.00    -0.310 N 
ATOM     11  HN  LIG     1       1.733   2.269  -0.202  1.00  0.00     0.176 HD
ENDROOT
BRANCH   3  12
HETATM   12  S   LIG     1      -3.664  -1.599  -0.065  1.00  0.00     0.262 S 
HETATM   13  O   LIG     1      -4.566  -0.905  -0.958  1.00  0.00    -0.206 OA
HETATM   14  O   LIG     1      -3.408  -3.021  -0.151  1.00  0.00    -0.206 OA
HETATM   15 CL   LIG     1      -4.352  -1.258   1.827  1.00  0.00     0.024 Cl
ENDBRANCH   3  12
TORSDOF 1
