REMARK  2 active torsions:
REMARK  status: ('A' for Active; 'I' for Inactive)
REMARK    1  A    between atoms: C_2  and  S_7 
REMARK    2  A    between atoms: C_5  and  C_6 
ROOT
HETATM    1  S   LIG     1       1.257  -1.270   0.419  1.00  0.00    -0.077 SA
HETATM    2  C   LIG     1      -0.420  -1.419   0.136  1.00  0.00     0.116 A 
HETATM    3  C   LIG     1      -0.988  -0.204  -0.183  1.00  0.00     0.033 A 
HETATM    4  C   LIG     1      -0.029   0.849  -0.209  1.00  0.00     0.022 A 
HETATM    5  C   LIG     1       1.253   0.417   0.088  1.00  0.00     0.016 A 
ENDROOT
BRANCH   5   6
HETATM    6  C   LIG     1       2.496   1.207   0.170  1.00  0.00    -0.019 A 
HETATM    7  C   LIG     1       3.743   0.674  -0.195  1.00  0.00     0.013 A 
HETATM    8  C   LIG     1       4.907   1.444  -0.113  1.00  0.00     0.001 A 
HETATM    9  C   LIG     1       4.843   2.763   0.328  1.00  0.00     0.000 A 
HETATM   10  C   LIG     1       3.616   3.313   0.686  1.00  0.00     0.001 A 
HETATM   11  C   LIG     1       2.453   2.541   0.608  1.00  0.00     0.013 A 
ENDBRANCH   5   6
BRANCH   2  12
HETATM   12  S   LIG     1      -1.103  -3.046   0.305  1.00  0.00     0.268 S 
HETATM   13 CL   LIG     1      -0.761  -3.690   2.213  1.00  0.00     0.024 Cl
HETATM   14  O   LIG     1      -2.537  -2.876   0.195  1.00  0.00    -0.205 OA
HETATM   15  O   LIG     1      -0.346  -3.914  -0.571  1.00  0.00    -0.205 OA
ENDBRANCH   2  12
TORSDOF 2
