REMARK  1 active torsions:
REMARK  status: ('A' for Active; 'I' for Inactive)
REMARK    1  A    between atoms: C_6  and  S_10 
ROOT
HETATM    1  C   LIG     1       2.165   0.744  -0.077  1.00  0.00     0.001 A 
HETATM    2  C   LIG     1       2.234  -0.633   0.084  1.00  0.00     0.001 A 
HETATM    3  C   LIG     1       1.069  -1.398   0.169  1.00  0.00     0.019 A 
HETATM    4  C   LIG     1       0.924   1.384  -0.156  1.00  0.00     0.013 A 
HETATM    5  S   LIG     1      -1.735  -1.480   0.170  1.00  0.00    -0.077 SA
HETATM    6  C   LIG     1      -2.536   0.013  -0.006  1.00  0.00     0.117 A 
HETATM    7  C   LIG     1      -1.643   1.057  -0.127  1.00  0.00     0.045 A 
HETATM    8  C   LIG     1      -0.274   0.635  -0.073  1.00  0.00    -0.017 A 
HETATM    9  C   LIG     1      -0.179  -0.749   0.089  1.00  0.00     0.016 A 
ENDROOT
BRANCH   6  10
HETATM   10  S   LIG     1      -4.306  -0.037  -0.002  1.00  0.00     0.268 S 
HETATM   11 CL   LIG     1      -4.924  -0.901   1.743  1.00  0.00     0.024 Cl
HETATM   12  O   LIG     1      -4.732   1.345   0.068  1.00  0.00    -0.205 OA
HETATM   13  O   LIG     1      -4.703  -0.928  -1.071  1.00  0.00    -0.205 OA
ENDBRANCH   6  10
TORSDOF 1
