REMARK  1 active torsions:
REMARK  status: ('A' for Active; 'I' for Inactive)
REMARK    1  A    between atoms: C_3  and  S_10 
ROOT
HETATM    1  S   LIG     1       1.778   1.413  -0.085  1.00  0.00    -0.100 SA
HETATM    2  C   LIG     1       2.540  -0.112  -0.094  1.00  0.00     0.076 A 
HETATM    3  C   LIG     1       1.627  -1.142  -0.065  1.00  0.00     0.092 A 
HETATM    4  C   LIG     1       0.206   0.712  -0.026  1.00  0.00     0.016 A 
HETATM    5  C   LIG     1       0.261  -0.687  -0.017  1.00  0.00     0.004 A 
HETATM    6  C   LIG     1      -0.970  -1.392   0.035  1.00  0.00     0.014 A 
HETATM    7  C   LIG     1      -2.188  -0.706   0.074  1.00  0.00     0.001 A 
HETATM    8  C   LIG     1      -2.211   0.680   0.062  1.00  0.00     0.001 A 
HETATM    9  C   LIG     1      -1.020   1.406   0.013  1.00  0.00     0.019 A 
ENDROOT
BRANCH   3  10
HETATM   10  S   LIG     1       2.064  -2.814  -0.058  1.00  0.00     0.263 S 
HETATM   11  O   LIG     1       1.842  -3.251   1.303  1.00  0.00    -0.206 OA
HETATM   12  O   LIG     1       1.392  -3.388  -1.204  1.00  0.00    -0.206 OA
HETATM   13 CL   LIG     1       4.065  -3.023  -0.411  1.00  0.00     0.024 Cl
ENDBRANCH   3  10
TORSDOF 1
