REMARK  1 active torsions:
REMARK  status: ('A' for Active; 'I' for Inactive)
REMARK    1  A    between atoms: S_1  and  C_2 
ROOT
HETATM    1  C   LIG     1       0.264   1.776  -0.019  1.00  0.00     0.077 A 
HETATM    2  C   LIG     1       0.982   2.843   0.528  1.00  0.00     0.064 A 
HETATM    3  C   LIG     1       0.457   4.134   0.450  1.00  0.00     0.103 A 
HETATM    4  C   LIG     1      -0.794   4.348  -0.137  1.00  0.00     0.102 A 
HETATM    5  O   LIG     1       1.173   5.117   1.075  1.00  0.00    -0.348 OA
HETATM    6  O   LIG     1      -1.423   5.563  -0.144  1.00  0.00    -0.348 OA
HETATM    7  C   LIG     1      -0.993   1.980  -0.596  1.00  0.00     0.027 A 
HETATM    8  C   LIG     1      -1.524   3.270  -0.644  1.00  0.00     0.041 A 
HETATM    9  C   LIG     1       0.420   7.165  -0.030  1.00  0.00     0.053 C 
HETATM   10  C   LIG     1       1.549   6.170   0.187  1.00  0.00     0.178 C 
HETATM   11  C   LIG     1      -0.692   6.553  -0.866  1.00  0.00     0.178 C 
ENDROOT
BRANCH   1  12
HETATM   12  S   LIG     1       0.922   0.137   0.088  1.00  0.00     0.262 S 
HETATM   13  O   LIG     1      -0.162  -0.817  -0.021  1.00  0.00    -0.206 OA
HETATM   14  O   LIG     1       1.910   0.087   1.145  1.00  0.00    -0.206 OA
HETATM   15 CL   LIG     1       1.965   0.007  -1.664  1.00  0.00     0.024 Cl
ENDBRANCH   1  12
TORSDOF 1
