REMARK  1 active torsions:
REMARK  status: ('A' for Active; 'I' for Inactive)
REMARK    1  A    between atoms: C_3  and  S_6 
ROOT
HETATM    1  S   LIG     1      -0.407  -1.403   0.344  1.00  0.00    -0.112 SA
HETATM    2  C   LIG     1      -1.204   0.108   0.470  1.00  0.00     0.074 A 
HETATM    3  C   LIG     1      -0.385   1.151   0.093  1.00  0.00     0.081 A 
HETATM    4  C   LIG     1       0.912   0.706  -0.307  1.00  0.00     0.032 A 
HETATM    5  C   LIG     1       1.033  -0.663  -0.214  1.00  0.00     0.051 A 
ENDROOT
BRANCH   3   6
HETATM    6  S   LIG     1      -0.890   2.807   0.079  1.00  0.00     0.262 S 
HETATM    7  O   LIG     1      -1.895   2.916   1.114  1.00  0.00    -0.206 OA
HETATM    8  O   LIG     1       0.328   3.588   0.056  1.00  0.00    -0.206 OA
HETATM    9 CL   LIG     1      -1.834   3.139  -1.697  1.00  0.00     0.024 Cl
ENDBRANCH   3   6
TORSDOF 1
