REMARK  1 active torsions:
REMARK  status: ('A' for Active; 'I' for Inactive)
REMARK    1  A    between atoms: C_2  and  S_6 
ROOT
HETATM    1  S   LIG     1       1.219  -0.836   0.363  1.00  0.00    -0.089 SA
HETATM    2  C   LIG     1      -0.428  -1.187   0.057  1.00  0.00     0.115 A 
HETATM    3  C   LIG     1      -1.156  -0.036  -0.180  1.00  0.00     0.033 A 
HETATM    4  C   LIG     1      -0.353   1.139  -0.107  1.00  0.00     0.009 A 
HETATM    5  C   LIG     1       0.961   0.846   0.182  1.00  0.00     0.051 A 
ENDROOT
BRANCH   2   6
HETATM    6  S   LIG     1      -0.888  -2.899   0.096  1.00  0.00     0.268 S 
HETATM    7 CL   LIG     1      -0.384  -3.662   1.923  1.00  0.00     0.024 Cl
HETATM    8  O   LIG     1      -2.336  -2.911   0.048  1.00  0.00    -0.205 OA
HETATM    9  O   LIG     1      -0.064  -3.578  -0.882  1.00  0.00    -0.205 OA
ENDBRANCH   2   6
TORSDOF 1
