REMARK  2 active torsions:
REMARK  status: ('A' for Active; 'I' for Inactive)
REMARK    1  A    between atoms: C_2  and  S_6 
REMARK    2  A    between atoms: C_5  and  C_10 
ROOT
HETATM    1  S   LIG     1       1.213  -1.085   0.040  1.00  0.00    -0.074 SA
HETATM    2  C   LIG     1      -0.481  -1.306   0.034  1.00  0.00     0.116 A 
HETATM    3  C   LIG     1      -1.149  -0.097   0.026  1.00  0.00     0.034 A 
HETATM    4  C   LIG     1      -0.253   1.013   0.016  1.00  0.00     0.024 A 
HETATM    5  C   LIG     1       1.073   0.622   0.018  1.00  0.00     0.041 A 
ENDROOT
BRANCH   5   6
HETATM    6  C   LIG     1       2.219   1.485   0.002  1.00  0.00     0.109 A 
HETATM    7  O   LIG     1       2.127   2.861  -0.027  1.00  0.00    -0.303 OA
HETATM    8  C   LIG     1       3.415   3.294  -0.041  1.00  0.00     0.233 A 
HETATM    9  N   LIG     1       4.322   2.348  -0.024  1.00  0.00    -0.354 N 
HETATM   10  C   LIG     1       3.574   1.198   0.004  1.00  0.00     0.128 A 
ATOM     11  HN  LIG     1       5.338   2.443  -0.030  1.00  0.00     0.166 HD
ENDBRANCH   5   6
BRANCH   2  12
HETATM   12  S   LIG     1      -1.050  -2.986   0.028  1.00  0.00     0.268 S 
HETATM   13 CL   LIG     1      -0.311  -3.899  -1.644  1.00  0.00     0.024 Cl
HETATM   14  O   LIG     1      -0.440  -3.639   1.165  1.00  0.00    -0.205 OA
HETATM   15  O   LIG     1      -2.484  -2.908  -0.162  1.00  0.00    -0.205 OA
ENDBRANCH   2  12
TORSDOF 2
