REMARK  2 active torsions:
REMARK  status: ('A' for Active; 'I' for Inactive)
REMARK    1  A    between atoms: C_1  and  C_3 
REMARK    2  A    between atoms: S_2  and  C_4 
ROOT
HETATM    1  C   LIG     1      -0.785  -2.433  -0.044  1.00  0.00    -0.001 A 
HETATM    2  C   LIG     1      -1.403  -5.164  -0.302  1.00  0.00     0.074 A 
HETATM    3  C   LIG     1      -2.381  -4.204  -0.569  1.00  0.00     0.025 A 
HETATM    4  C   LIG     1      -0.127  -4.779   0.112  1.00  0.00     0.025 A 
HETATM    5  C   LIG     1      -2.068  -2.846  -0.443  1.00  0.00     0.016 A 
HETATM    6  C   LIG     1       0.176  -3.419   0.234  1.00  0.00     0.016 A 
ENDROOT
BRANCH   1   7
HETATM    7  C   LIG     1      -0.470  -1.016   0.080  1.00  0.00     0.102 A 
HETATM    8  C   LIG     1      -1.150   0.170  -0.103  1.00  0.00     0.127 A 
HETATM    9  N   LIG     1      -0.331   1.240   0.162  1.00  0.00    -0.354 N 
HETATM   10  C   LIG     1       0.806   0.673   0.493  1.00  0.00     0.233 A 
ATOM     11  HN  LIG     1      -0.552   2.234   0.113  1.00  0.00     0.166 HD
HETATM   12  O   LIG     1       0.805  -0.687   0.468  1.00  0.00    -0.304 OA
ENDBRANCH   1   7
BRANCH   2  13
HETATM   13  S   LIG     1      -1.794  -6.886  -0.436  1.00  0.00     0.262 S 
HETATM   14  O   LIG     1      -0.999  -7.622   0.524  1.00  0.00    -0.206 OA
HETATM   15  O   LIG     1      -3.229  -7.039  -0.551  1.00  0.00    -0.206 OA
HETATM   16 CL   LIG     1      -1.032  -7.336  -2.277  1.00  0.00     0.024 Cl
ENDBRANCH   2  13
TORSDOF 2
