REMARK  1 active torsions:
REMARK  status: ('A' for Active; 'I' for Inactive)
REMARK    1  A    between atoms: C_5  and  S_10 
ROOT
HETATM    1  N   LIG     1      -0.273  -1.015  -0.016  1.00  0.00    -0.299 N 
HETATM    2  N   LIG     1       1.015  -0.640  -0.101  1.00  0.00    -0.302 N 
ATOM      3  HN  LIG     1       1.838  -1.242  -0.132  1.00  0.00     0.186 HD
HETATM    4  C   LIG     1       0.979   0.698  -0.136  1.00  0.00     0.046 A 
HETATM    5  C   LIG     1      -0.351   1.170  -0.056  1.00  0.00     0.122 A 
HETATM    6  C   LIG     1      -1.148   0.040   0.053  1.00  0.00     0.049 A 
HETATM    7  C   LIG     1      -2.619  -0.113   0.195  1.00  0.00     0.071 C 
HETATM    8  C   LIG     1      -0.588  -2.426   0.008  1.00  0.00     0.177 C 
HETATM    9  C   LIG     1       2.248   1.462  -0.244  1.00  0.00     0.071 C 
ENDROOT
BRANCH   5  10
HETATM   10  S   LIG     1      -0.828   2.821  -0.038  1.00  0.00     0.266 S 
HETATM   11  O   LIG     1       0.144   3.533  -0.838  1.00  0.00    -0.206 OA
HETATM   12  O   LIG     1      -2.248   2.840  -0.321  1.00  0.00    -0.206 OA
HETATM   13 CL   LIG     1      -0.614   3.497   1.875  1.00  0.00     0.024 Cl
ENDBRANCH   5  10
TORSDOF 1
