REMARK  2 active torsions:
REMARK  status: ('A' for Active; 'I' for Inactive)
REMARK    1  A    between atoms: N_1  and  C_7 
REMARK    2  A    between atoms: C_3  and  S_14 
ROOT
HETATM    1  N   LIG     1       1.109   0.466   0.062  1.00  0.00    -0.260 N 
HETATM    2  C   LIG     1       1.020  -0.929   0.014  1.00  0.00     0.054 A 
HETATM    3  C   LIG     1      -0.341  -1.211   0.004  1.00  0.00     0.115 A 
HETATM    4  C   LIG     1      -0.987   0.018   0.114  1.00  0.00     0.134 A 
HETATM    5  N   LIG     1      -0.126   1.026   0.208  1.00  0.00    -0.303 N 
ATOM      6  HN  LIG     1      -0.343   2.011   0.358  1.00  0.00     0.186 HD
HETATM    7  C   LIG     1       2.177  -1.861   0.051  1.00  0.00     0.072 C 
ENDROOT
BRANCH   1   8
HETATM    8  C   LIG     1       2.250   1.327   0.018  1.00  0.00     0.056 A 
HETATM    9  C   LIG     1       2.126   2.637   0.514  1.00  0.00     0.031 A 
HETATM   10  C   LIG     1       3.220   3.505   0.516  1.00  0.00     0.002 A 
HETATM   11  C   LIG     1       4.443   3.085   0.002  1.00  0.00     0.000 A 
HETATM   12  C   LIG     1       4.569   1.801  -0.523  1.00  0.00     0.002 A 
HETATM   13  C   LIG     1       3.479   0.924  -0.519  1.00  0.00     0.031 A 
ENDBRANCH   1   8
BRANCH   3  14
HETATM   14  S   LIG     1      -1.158  -2.717  -0.022  1.00  0.00     0.265 S 
HETATM   15 CL   LIG     1      -1.412  -3.310   1.914  1.00  0.00     0.024 Cl
HETATM   16  O   LIG     1      -2.479  -2.430  -0.538  1.00  0.00    -0.206 OA
HETATM   17  O   LIG     1      -0.254  -3.662  -0.633  1.00  0.00    -0.206 OA
ENDBRANCH   3  14
TORSDOF 2
