REMARK  1 active torsions:
REMARK  status: ('A' for Active; 'I' for Inactive)
REMARK    1  A    between atoms: C_8  and  S_12 
ROOT
HETATM    1  O   LIG     1      -1.252   0.017   0.047  1.00  0.00    -0.237 OA
HETATM    2  C   LIG     1      -0.293  -0.965   0.070  1.00  0.00     0.117 A 
HETATM    3  C   LIG     1       0.938  -0.339   0.113  1.00  0.00     0.059 A 
HETATM    4  C   LIG     1       0.651   1.035   0.115  1.00  0.00     0.117 A 
HETATM    5  N   LIG     1      -0.660   1.268   0.075  1.00  0.00    -0.272 N 
ATOM      6  HN  LIG     1      -1.128   2.174   0.067  1.00  0.00     0.194 HD
HETATM    7  S   LIG     1       0.575  -3.588   0.077  1.00  0.00    -0.074 SA
HETATM    8  C   LIG     1      -0.585  -4.840   0.037  1.00  0.00     0.116 A 
HETATM    9  C   LIG     1      -1.871  -4.338  -0.002  1.00  0.00     0.034 A 
HETATM   10  C   LIG     1      -1.892  -2.912   0.005  1.00  0.00     0.024 A 
HETATM   11  C   LIG     1      -0.624  -2.364   0.049  1.00  0.00     0.042 A 
ENDROOT
BRANCH   8  12
HETATM   12  S   LIG     1       0.054  -6.495   0.051  1.00  0.00     0.268 S 
HETATM   13 CL   LIG     1       1.275  -6.721  -1.571  1.00  0.00     0.024 Cl
HETATM   14  O   LIG     1       0.893  -6.607   1.224  1.00  0.00    -0.205 OA
HETATM   15  O   LIG     1      -1.089  -7.351  -0.187  1.00  0.00    -0.205 OA
ENDBRANCH   8  12
TORSDOF 1
