REMARK  2 active torsions:
REMARK  status: ('A' for Active; 'I' for Inactive)
REMARK    1  A    between atoms: S_1  and  C_2 
REMARK    2  A    between atoms: C_3  and  N_6 
ROOT
HETATM    1  C   LIG     1      -0.734  -3.610   0.291  1.00  0.00     0.090 A 
HETATM    2  C   LIG     1      -0.841  -3.628   3.056  1.00  0.00     0.082 A 
HETATM    3  N   LIG     1      -0.501  -4.756   2.391  1.00  0.00    -0.355 N 
ATOM      4  HN  LIG     1      -0.279  -5.610   2.902  1.00  0.00     0.166 HD
HETATM    5  C   LIG     1      -0.459  -4.736   1.035  1.00  0.00     0.113 A 
HETATM    6  C   LIG     1      -1.089  -2.444   0.954  1.00  0.00     0.029 A 
HETATM    7  C   LIG     1      -1.124  -2.455   2.348  1.00  0.00     0.044 A 
ENDROOT
BRANCH   2   8
HETATM    8  N   LIG     1      -0.858  -3.626   4.456  1.00  0.00    -0.265 NA
HETATM    9  C   LIG     1      -0.419  -4.887   5.100  1.00  0.00     0.123 C 
HETATM   10  C   LIG     1      -1.568  -5.908   5.188  1.00  0.00     0.182 C 
HETATM   11  O   LIG     1      -2.729  -5.349   5.833  1.00  0.00    -0.389 OA
HETATM   12  C   LIG     1      -3.180  -4.184   5.124  1.00  0.00     0.182 C 
HETATM   13  C   LIG     1      -2.087  -3.103   5.091  1.00  0.00     0.123 C 
ENDBRANCH   2   8
BRANCH   1  14
HETATM   14  S   LIG     1      -0.668  -3.677  -1.456  1.00  0.00     0.263 S 
HETATM   15  O   LIG     1      -1.665  -2.773  -1.994  1.00  0.00    -0.206 OA
HETATM   16  O   LIG     1      -0.549  -5.054  -1.880  1.00  0.00    -0.206 OA
HETATM   17 CL   LIG     1       1.144  -2.815  -1.838  1.00  0.00     0.024 Cl
ENDBRANCH   1  14
TORSDOF 2
