REMARK  2 active torsions:
REMARK  status: ('A' for Active; 'I' for Inactive)
REMARK    1  A    between atoms: C_2  and  S_6 
REMARK    2  A    between atoms: C_5  and  C_8 
ROOT
HETATM    1  S   LIG     1       1.458  -1.139   0.244  1.00  0.00    -0.075 SA
HETATM    2  C   LIG     1      -0.223  -1.405   0.068  1.00  0.00     0.116 A 
HETATM    3  C   LIG     1      -0.901  -0.223  -0.161  1.00  0.00     0.033 A 
HETATM    4  C   LIG     1      -0.027   0.902  -0.188  1.00  0.00     0.023 A 
HETATM    5  C   LIG     1       1.289   0.545   0.025  1.00  0.00     0.033 A 
ENDROOT
BRANCH   5   6
HETATM    6  C   LIG     1       2.409   1.542   0.054  1.00  0.00     0.056 A 
HETATM    7  N   LIG     1       2.158   2.891  -0.137  1.00  0.00    -0.353 N 
HETATM    8  C   LIG     1       3.281   3.574  -0.066  1.00  0.00     0.047 A 
ATOM      9  HN  LIG     1       1.237   3.296  -0.308  1.00  0.00     0.166 HD
HETATM   10  S   LIG     1       4.695   2.641   0.219  1.00  0.00    -0.087 SA
HETATM   11  C   LIG     1       3.371   5.050  -0.230  1.00  0.00     0.076 C 
HETATM   12  C   LIG     1       3.735   1.221   0.265  1.00  0.00     0.082 A 
ENDBRANCH   5   6
BRANCH   2  13
HETATM   13  S   LIG     1      -0.770  -3.085   0.200  1.00  0.00     0.268 S 
HETATM   14 CL   LIG     1       0.139  -4.168  -1.275  1.00  0.00     0.024 Cl
HETATM   15  O   LIG     1      -0.270  -3.594   1.458  1.00  0.00    -0.205 OA
HETATM   16  O   LIG     1      -2.179  -3.063  -0.137  1.00  0.00    -0.205 OA
ENDBRANCH   2  13
TORSDOF 2
