REMARK  2 active torsions:
REMARK  status: ('A' for Active; 'I' for Inactive)
REMARK    1  A    between atoms: C_2  and  N_9 
REMARK    2  A    between atoms: C_5  and  S_7 
ROOT
HETATM    1  C   LIG     1      -0.762   1.156  -0.175  1.00  0.00     0.033 A 
HETATM    2  C   LIG     1      -1.383  -0.098  -0.074  1.00  0.00     0.056 A 
HETATM    3  C   LIG     1      -0.591  -1.255   0.040  1.00  0.00     0.033 A 
HETATM    4  C   LIG     1       0.803  -1.161   0.054  1.00  0.00     0.027 A 
HETATM    5  C   LIG     1       1.409   0.094  -0.035  1.00  0.00     0.074 A 
HETATM    6  C   LIG     1       0.634   1.251  -0.160  1.00  0.00     0.027 A 
ENDROOT
BRANCH   2   7
HETATM    7  N   LIG     1      -2.802  -0.224  -0.092  1.00  0.00    -0.268 N 
HETATM    8  C   LIG     1      -3.746   0.777  -0.201  1.00  0.00     0.118 A 
HETATM    9  C   LIG     1      -4.982   0.175  -0.172  1.00  0.00     0.038 A 
HETATM   10  C   LIG     1      -4.703  -1.191  -0.043  1.00  0.00     0.109 A 
HETATM   11  N   LIG     1      -3.395  -1.443   0.008  1.00  0.00    -0.305 N 
ATOM     12  HN  LIG     1      -2.939  -2.351   0.101  1.00  0.00     0.186 HD
ENDBRANCH   2   7
BRANCH   5  13
HETATM   13  S   LIG     1       3.176   0.214  -0.060  1.00  0.00     0.262 S 
HETATM   14 CL   LIG     1       3.602   0.402   1.929  1.00  0.00     0.024 Cl
HETATM   15  O   LIG     1       3.732  -1.058  -0.472  1.00  0.00    -0.206 OA
HETATM   16  O   LIG     1       3.554   1.471  -0.671  1.00  0.00    -0.206 OA
ENDBRANCH   5  13
TORSDOF 2
