REMARK  2 active torsions:
REMARK  status: ('A' for Active; 'I' for Inactive)
REMARK    1  A    between atoms: C_1  and  C_9 
REMARK    2  A    between atoms: C_5  and  S_7 
ROOT
HETATM    1  C   LIG     1      -0.576  -1.314  -0.092  1.00  0.00    -0.007 A 
HETATM    2  C   LIG     1      -1.367  -0.155  -0.025  1.00  0.00     0.014 A 
HETATM    3  C   LIG     1      -0.779   1.113   0.017  1.00  0.00     0.002 A 
HETATM    4  C   LIG     1       0.608   1.240  -0.002  1.00  0.00     0.025 A 
HETATM    5  C   LIG     1       1.402   0.090  -0.047  1.00  0.00     0.075 A 
HETATM    6  C   LIG     1       0.819  -1.182  -0.099  1.00  0.00     0.038 A 
ENDROOT
BRANCH   1   7
HETATM    7  C   LIG     1      -1.170  -2.645  -0.140  1.00  0.00     0.049 A 
HETATM    8  C   LIG     1      -2.402  -2.929  -0.699  1.00  0.00     0.081 A 
HETATM    9  S   LIG     1      -2.742  -4.603  -0.559  1.00  0.00    -0.087 SA
HETATM   10  C   LIG     1      -1.227  -4.831   0.218  1.00  0.00     0.047 A 
HETATM   11  N   LIG     1      -0.498  -3.746   0.369  1.00  0.00    -0.353 N 
HETATM   12  C   LIG     1      -0.823  -6.191   0.669  1.00  0.00     0.076 C 
ATOM     13  HN  LIG     1       0.427  -3.719   0.798  1.00  0.00     0.166 HD
ENDBRANCH   1   7
BRANCH   5  14
HETATM   14  S   LIG     1       3.163   0.249  -0.101  1.00  0.00     0.262 S 
HETATM   15 CL   LIG     1       3.645   0.174   1.883  1.00  0.00     0.024 Cl
HETATM   16  O   LIG     1       3.734  -0.938  -0.701  1.00  0.00    -0.206 OA
HETATM   17  O   LIG     1       3.501   1.587  -0.542  1.00  0.00    -0.206 OA
ENDBRANCH   5  14
TORSDOF 2
