REMARK  3 active torsions:
REMARK  status: ('A' for Active; 'I' for Inactive)
REMARK    1  A    between atoms: S_1  and  C_2 
REMARK    2  A    between atoms: C_7  and  O_11 
REMARK    3  A    between atoms: O_11  and  C_13 
ROOT
HETATM    1  C   LIG     1       0.934  -0.471  -0.229  1.00  0.00     0.090 A 
HETATM    2  N   LIG     1      -0.237   0.364  -2.151  1.00  0.00    -0.345 N 
ATOM      3  HN  LIG     1      -0.774   1.101  -2.608  1.00  0.00     0.167 HD
HETATM    4  C   LIG     1       0.048  -0.797  -2.787  1.00  0.00     0.147 A 
HETATM    5  C   LIG     1       0.217   0.508  -0.888  1.00  0.00     0.115 A 
HETATM    6  C   LIG     1       1.168  -1.689  -0.869  1.00  0.00     0.030 A 
HETATM    7  C   LIG     1       0.714  -1.854  -2.179  1.00  0.00     0.058 A 
ENDROOT
BRANCH   4   8
HETATM    8  O   LIG     1      -0.371  -0.984  -4.096  1.00  0.00    -0.294 OA
BRANCH   8   9
HETATM    9  C   LIG     1      -0.478   0.117  -4.921  1.00  0.00     0.077 A 
HETATM   10  C   LIG     1       0.373   1.226  -4.869  1.00  0.00     0.037 A 
HETATM   11  C   LIG     1       0.234   2.266  -5.791  1.00  0.00     0.003 A 
HETATM   12  C   LIG     1      -0.746   2.197  -6.778  1.00  0.00     0.000 A 
HETATM   13  C   LIG     1      -1.592   1.090  -6.842  1.00  0.00     0.003 A 
HETATM   14  C   LIG     1      -1.452   0.048  -5.921  1.00  0.00     0.037 A 
ENDBRANCH   8   9
ENDBRANCH   4   8
BRANCH   1  15
HETATM   15  S   LIG     1       1.489  -0.163   1.404  1.00  0.00     0.263 S 
HETATM   16  O   LIG     1       1.545  -1.413   2.126  1.00  0.00    -0.206 OA
HETATM   17  O   LIG     1       0.820   1.015   1.919  1.00  0.00    -0.206 OA
HETATM   18 CL   LIG     1       3.427   0.398   1.084  1.00  0.00     0.024 Cl
ENDBRANCH   1  15
TORSDOF 3
