REMARK  2 active torsions:
REMARK  status: ('A' for Active; 'I' for Inactive)
REMARK    1  A    between atoms: S_2  and  C_14 
REMARK    2  A    between atoms: C_8  and  C_10 
ROOT
HETATM    1  C   LIG     1       3.610   4.091   1.683  1.00  0.00     0.042 A 
HETATM    2  N   LIG     1       4.428   3.115   2.165  1.00  0.00    -0.364 N 
ATOM      3  HN  LIG     1       5.216   3.347   2.769  1.00  0.00     0.165 HD
HETATM    4  C   LIG     1       4.173   1.830   1.825  1.00  0.00     0.113 A 
HETATM    5  C   LIG     1       3.114   1.462   1.022  1.00  0.00     0.090 A 
HETATM    6  C   LIG     1       2.284   2.452   0.506  1.00  0.00     0.028 A 
HETATM    7  C   LIG     1       2.535   3.782   0.845  1.00  0.00     0.032 A 
ENDROOT
BRANCH   1   8
HETATM    8  C   LIG     1       3.946   5.472   2.092  1.00  0.00    -0.009 A 
HETATM    9  C   LIG     1       5.276   5.829   2.388  1.00  0.00     0.013 A 
HETATM   10  C   LIG     1       5.618   7.128   2.778  1.00  0.00     0.001 A 
HETATM   11  C   LIG     1       4.632   8.103   2.887  1.00  0.00     0.000 A 
HETATM   12  C   LIG     1       3.309   7.780   2.605  1.00  0.00     0.001 A 
HETATM   13  C   LIG     1       2.970   6.480   2.214  1.00  0.00     0.013 A 
ENDBRANCH   1   8
BRANCH   5  14
HETATM   14  S   LIG     1       2.887  -0.227   0.623  1.00  0.00     0.263 S 
HETATM   15  O   LIG     1       4.167  -0.899   0.663  1.00  0.00    -0.206 OA
HETATM   16  O   LIG     1       1.982  -0.329  -0.503  1.00  0.00    -0.206 OA
HETATM   17 CL   LIG     1       1.840  -0.900   2.243  1.00  0.00     0.024 Cl
ENDBRANCH   5  14
TORSDOF 2
