REMARK  2 active torsions:
REMARK  status: ('A' for Active; 'I' for Inactive)
REMARK    1  A    between atoms: C_1  and  C_7 
REMARK    2  A    between atoms: C_4  and  S_8 
ROOT
HETATM    1  C   LIG     1      -1.391  -0.140  -0.092  1.00  0.00    -0.008 A 
HETATM    2  C   LIG     1      -0.766   1.120  -0.111  1.00  0.00     0.015 A 
HETATM    3  C   LIG     1       0.627   1.237  -0.095  1.00  0.00     0.025 A 
HETATM    4  C   LIG     1       1.412   0.083  -0.069  1.00  0.00     0.074 A 
HETATM    5  C   LIG     1       0.815  -1.179  -0.039  1.00  0.00     0.025 A 
HETATM    6  C   LIG     1      -0.581  -1.286  -0.055  1.00  0.00     0.015 A 
ENDROOT
BRANCH   1   7
HETATM    7  C   LIG     1      -2.858  -0.240  -0.102  1.00  0.00     0.059 A 
HETATM    8  C   LIG     1      -3.667  -1.411  -0.097  1.00  0.00     0.050 A 
HETATM    9  C   LIG     1      -4.969  -0.969  -0.111  1.00  0.00     0.112 A 
HETATM   10  N   LIG     1      -4.894   0.389  -0.122  1.00  0.00    -0.307 N 
HETATM   11  N   LIG     1      -3.636   0.857  -0.119  1.00  0.00    -0.299 N 
HETATM   12  C   LIG     1      -6.008   1.305  -0.137  1.00  0.00     0.177 C 
ATOM     13  HN  LIG     1      -3.336   1.832  -0.128  1.00  0.00     0.187 HD
ENDBRANCH   1   7
BRANCH   4  14
HETATM   14  S   LIG     1       3.175   0.226  -0.002  1.00  0.00     0.262 S 
HETATM   15 CL   LIG     1       3.664   0.236  -1.985  1.00  0.00     0.024 Cl
HETATM   16  O   LIG     1       3.530   1.535   0.505  1.00  0.00    -0.206 OA
HETATM   17  O   LIG     1       3.727  -1.000   0.539  1.00  0.00    -0.206 OA
ENDBRANCH   4  14
TORSDOF 2
