REMARK  4 active torsions:
REMARK  status: ('A' for Active; 'I' for Inactive)
REMARK    1  A    between atoms: C_4  and  S_14 
REMARK    2  A    between atoms: C_6  and  C_9 
REMARK    3  A    between atoms: C_9  and  O_10 
REMARK    4  A    between atoms: O_10  and  C_12 
ROOT
HETATM    1  N   LIG     1      -0.434  -0.789  -0.070  1.00  0.00    -0.353 N 
ATOM      2  HN  LIG     1      -1.418  -0.541   0.034  1.00  0.00     0.166 HD
HETATM    3  C   LIG     1       0.048  -2.069  -0.030  1.00  0.00     0.029 A 
HETATM    4  C   LIG     1       1.421  -1.991  -0.213  1.00  0.00     0.105 A 
HETATM    5  C   LIG     1       1.762  -0.604  -0.401  1.00  0.00    -0.004 A 
HETATM    6  C   LIG     1       0.579   0.122  -0.268  1.00  0.00     0.116 A 
HETATM    7  C   LIG     1       3.123  -0.046  -0.662  1.00  0.00     0.052 C 
HETATM    8  C   LIG     1      -0.869  -3.218   0.192  1.00  0.00     0.070 C 
ENDROOT
BRANCH   6   9
HETATM    9  C   LIG     1       0.341   1.551  -0.304  1.00  0.00     0.310 C 
HETATM   10  O   LIG     1       1.184   2.425  -0.429  1.00  0.00    -0.258 OA
BRANCH   9  11
HETATM   11  O   LIG     1      -1.000   1.774  -0.159  1.00  0.00    -0.317 OA
BRANCH  11  12
HETATM   12  C   LIG     1      -1.403   3.150  -0.148  1.00  0.00     0.175 C 
HETATM   13  C   LIG     1      -1.283   3.714   1.255  1.00  0.00     0.034 C 
ENDBRANCH  11  12
ENDBRANCH   9  11
ENDBRANCH   6   9
BRANCH   4  14
HETATM   14  S   LIG     1       2.536  -3.330  -0.246  1.00  0.00     0.264 S 
HETATM   15  O   LIG     1       3.794  -2.821   0.255  1.00  0.00    -0.206 OA
HETATM   16  O   LIG     1       1.846  -4.452   0.354  1.00  0.00    -0.206 OA
HETATM   17 CL   LIG     1       2.843  -3.826  -2.201  1.00  0.00     0.024 Cl
ENDBRANCH   4  14
TORSDOF 4
