REMARK  1 active torsions:
REMARK  status: ('A' for Active; 'I' for Inactive)
REMARK    1  A    between atoms: S_1  and  C_4 
ROOT
HETATM    1  C   LIG     1       0.286   2.489   3.099  1.00  0.00    -0.042 A 
HETATM    2  C   LIG     1      -0.190   1.614   4.108  1.00  0.00    -0.043 A 
HETATM    3  C   LIG     1       0.555   0.572   1.601  1.00  0.00     0.075 A 
HETATM    4  C   LIG     1       0.679   1.940   1.858  1.00  0.00     0.033 A 
HETATM    5  C   LIG     1       0.433   4.002   3.325  1.00  0.00    -0.020 C 
HETATM    6  C   LIG     1      -0.618   2.116   5.496  1.00  0.00    -0.020 C 
HETATM    7  C   LIG     1      -0.307   0.236   3.813  1.00  0.00     0.010 A 
HETATM    8  C   LIG     1       0.066  -0.286   2.576  1.00  0.00     0.025 A 
HETATM    9  C   LIG     1      -0.341   4.469   4.577  1.00  0.00     0.015 C 
HETATM   10  C   LIG     1      -0.110   3.550   5.765  1.00  0.00     0.015 C 
HETATM   11  C   LIG     1      -0.127   4.819   2.136  1.00  0.00     0.020 C 
HETATM   12  C   LIG     1       1.934   4.335   3.479  1.00  0.00     0.020 C 
HETATM   13  C   LIG     1      -0.049   1.232   6.631  1.00  0.00     0.020 C 
HETATM   14  C   LIG     1      -2.160   2.080   5.579  1.00  0.00     0.020 C 
ENDROOT
BRANCH   3  15
HETATM   15  S   LIG     1       1.070  -0.078   0.038  1.00  0.00     0.262 S 
HETATM   16  O   LIG     1       1.368  -1.487   0.185  1.00  0.00    -0.206 OA
HETATM   17  O   LIG     1       1.983   0.854  -0.590  1.00  0.00    -0.206 OA
HETATM   18 CL   LIG     1      -0.665   0.022  -1.036  1.00  0.00     0.024 Cl
ENDBRANCH   3  15
TORSDOF 1
