REMARK  2 active torsions:
REMARK  status: ('A' for Active; 'I' for Inactive)
REMARK    1  A    between atoms: C_2  and  S_14 
REMARK    2  A    between atoms: C_6  and  C_7 
ROOT
HETATM    1  S   LIG     1       0.077  -2.081   0.090  1.00  0.00    -0.057 SA
HETATM    2  C   LIG     1       1.279  -0.863   0.047  1.00  0.00     0.139 A 
HETATM    3  C   LIG     1       0.684   0.380  -0.059  1.00  0.00     0.036 A 
HETATM    4  N   LIG     1      -0.703   0.354  -0.081  1.00  0.00    -0.352 N 
ATOM      5  HN  LIG     1      -1.296   1.183  -0.126  1.00  0.00     0.166 HD
HETATM    6  C   LIG     1      -1.152  -0.885  -0.036  1.00  0.00     0.086 A 
HETATM    7  C   LIG     1       1.356   1.704  -0.138  1.00  0.00     0.070 C 
ENDROOT
BRANCH   6   8
HETATM    8  C   LIG     1      -2.578  -1.248  -0.028  1.00  0.00    -0.002 A 
HETATM    9  C   LIG     1      -3.506  -0.355   0.531  1.00  0.00     0.014 A 
HETATM   10  C   LIG     1      -4.869  -0.658   0.559  1.00  0.00     0.001 A 
HETATM   11  C   LIG     1      -5.326  -1.857   0.018  1.00  0.00     0.000 A 
HETATM   12  C   LIG     1      -4.423  -2.750  -0.553  1.00  0.00     0.001 A 
HETATM   13  C   LIG     1      -3.058  -2.448  -0.577  1.00  0.00     0.014 A 
ENDBRANCH   6   8
BRANCH   2  14
HETATM   14  S   LIG     1       2.945  -1.418   0.150  1.00  0.00     0.270 S 
HETATM   15 CL   LIG     1       3.177  -2.389   1.934  1.00  0.00     0.024 Cl
HETATM   16  O   LIG     1       3.122  -2.413  -0.884  1.00  0.00    -0.205 OA
HETATM   17  O   LIG     1       3.765  -0.227   0.242  1.00  0.00    -0.205 OA
ENDBRANCH   2  14
TORSDOF 2
