REMARK  2 active torsions:
REMARK  status: ('A' for Active; 'I' for Inactive)
REMARK    1  A    between atoms: S_1  and  C_4 
REMARK    2  A    between atoms: C_5  and  C_7 
ROOT
HETATM    1  C   LIG     1       0.445  -1.254   1.062  1.00  0.00     0.075 A 
HETATM    2  C   LIG     1       0.882  -2.579   0.935  1.00  0.00     0.038 A 
HETATM    3  C   LIG     1       0.502  -3.559   1.871  1.00  0.00    -0.008 A 
HETATM    4  C   LIG     1      -0.363  -0.868   2.132  1.00  0.00     0.025 A 
HETATM    5  C   LIG     1      -0.335  -3.152   2.929  1.00  0.00     0.014 A 
HETATM    6  C   LIG     1      -0.759  -1.824   3.062  1.00  0.00     0.002 A 
ENDROOT
BRANCH   3   7
HETATM    7  C   LIG     1       0.965  -4.956   1.726  1.00  0.00     0.045 A 
HETATM    8  N   LIG     1       1.175  -5.371   0.456  1.00  0.00    -0.345 N 
HETATM    9  C   LIG     1       1.597  -6.637   0.276  1.00  0.00     0.077 A 
ATOM     10  HN  LIG     1       1.019  -4.748  -0.336  1.00  0.00     0.167 HD
HETATM   11  N   LIG     1       1.830  -7.513   1.267  1.00  0.00    -0.356 N 
HETATM   12  C   LIG     1       1.833  -7.105  -1.126  1.00  0.00     0.089 C 
HETATM   13  C   LIG     1       1.621  -7.065   2.516  1.00  0.00     0.091 A 
ATOM     14  HN  LIG     1       2.148  -8.464   1.082  1.00  0.00     0.166 HD
HETATM   15  C   LIG     1       1.188  -5.792   2.805  1.00  0.00     0.047 A 
ENDBRANCH   3   7
BRANCH   1  16
HETATM   16  S   LIG     1       0.965  -0.050  -0.126  1.00  0.00     0.262 S 
HETATM   17  O   LIG     1       2.261  -0.429  -0.648  1.00  0.00    -0.206 OA
HETATM   18  O   LIG     1       0.687   1.274   0.388  1.00  0.00    -0.206 OA
HETATM   19 CL   LIG     1      -0.375  -0.356  -1.637  1.00  0.00     0.024 Cl
ENDBRANCH   1  16
TORSDOF 2
