REMARK  1 active torsions:
REMARK  status: ('A' for Active; 'I' for Inactive)
REMARK    1  A    between atoms: C_9  and  S_11 
ROOT
HETATM    1  C   LIG     1      -2.435   0.665  -0.358  1.00  0.00     0.031 C 
HETATM    2  C   LIG     1      -2.335  -0.686   0.330  1.00  0.00     0.176 C 
HETATM    3  O   LIG     1      -1.150  -1.393  -0.049  1.00  0.00    -0.351 OA
HETATM    4  C   LIG     1      -1.266   1.531   0.084  1.00  0.00     0.043 C 
HETATM    5  C   LIG     1       0.016   0.749   0.045  1.00  0.00    -0.023 A 
HETATM    6  C   LIG     1      -0.000  -0.651  -0.005  1.00  0.00     0.075 A 
HETATM    7  C   LIG     1       1.193  -1.375  -0.048  1.00  0.00     0.039 A 
HETATM    8  C   LIG     1       2.420  -0.711  -0.015  1.00  0.00     0.027 A 
HETATM    9  C   LIG     1       2.440   0.685   0.046  1.00  0.00     0.075 A 
HETATM   10  C   LIG     1       1.248   1.417   0.089  1.00  0.00     0.034 A 
ENDROOT
BRANCH   9  11
HETATM   11  S   LIG     1       3.991   1.536   0.119  1.00  0.00     0.262 S 
HETATM   12 CL   LIG     1       4.356   1.890  -1.859  1.00  0.00     0.024 Cl
HETATM   13  O   LIG     1       3.789   2.834   0.728  1.00  0.00    -0.206 OA
HETATM   14  O   LIG     1       5.019   0.616   0.558  1.00  0.00    -0.206 OA
ENDBRANCH   9  11
TORSDOF 1
