REMARK  1 active torsions:
REMARK  status: ('A' for Active; 'I' for Inactive)
REMARK    1  A    between atoms: C_2  and  S_12 
ROOT
HETATM    1  C   LIG     1       2.385  -0.635  -0.394  1.00  0.00     0.027 A 
HETATM    2  C   LIG     1       2.405   0.697   0.019  1.00  0.00     0.077 A 
HETATM    3  C   LIG     1       1.216   1.385   0.305  1.00  0.00     0.057 A 
HETATM    4  C   LIG     1       1.165  -1.295  -0.482  1.00  0.00     0.040 A 
HETATM    5  C   LIG     1      -0.022  -0.621  -0.171  1.00  0.00     0.095 A 
HETATM    6  C   LIG     1      -0.030   0.749   0.197  1.00  0.00     0.065 A 
HETATM    7  N   LIG     1      -1.235   1.417   0.483  1.00  0.00    -0.381 N 
HETATM    8  C   LIG     1      -2.414   0.684   0.002  1.00  0.00     0.149 C 
HETATM    9  C   LIG     1      -2.284  -0.789   0.368  1.00  0.00     0.195 C 
HETATM   10  O   LIG     1      -1.161  -1.386  -0.288  1.00  0.00    -0.347 OA
HETATM   11  C   LIG     1      -1.291   2.869   0.342  1.00  0.00     0.150 C 
ENDROOT
BRANCH   2  12
HETATM   12  S   LIG     1       3.951   1.550   0.134  1.00  0.00     0.262 S 
HETATM   13  O   LIG     1       4.912   0.905  -0.736  1.00  0.00    -0.206 OA
HETATM   14  O   LIG     1       3.711   2.978   0.113  1.00  0.00    -0.206 OA
HETATM   15 CL   LIG     1       4.525   1.103   2.043  1.00  0.00     0.024 Cl
ENDBRANCH   2  12
TORSDOF 1
