REMARK  2 active torsions:
REMARK  status: ('A' for Active; 'I' for Inactive)
REMARK    1  A    between atoms: C_1  and  C_9 
REMARK    2  A    between atoms: C_11  and  S_15 
ROOT
HETATM    1  C   LIG     1      -0.340  -2.718  -0.017  1.00  0.00     0.011 A 
HETATM    2  C   LIG     1       0.594  -3.590   0.561  1.00  0.00     0.040 A 
HETATM    3  C   LIG     1       0.400  -4.975   0.481  1.00  0.00     0.075 A 
HETATM    4  C   LIG     1      -0.727  -5.506  -0.152  1.00  0.00     0.025 A 
HETATM    5  C   LIG     1      -1.657  -4.644  -0.729  1.00  0.00     0.002 A 
HETATM    6  C   LIG     1      -1.464  -3.262  -0.662  1.00  0.00     0.015 A 
ENDROOT
BRANCH   1   7
HETATM    7  C   LIG     1      -0.145  -1.273   0.051  1.00  0.00     0.137 A 
HETATM    8  N   LIG     1       0.956  -0.706   0.658  1.00  0.00    -0.323 N 
HETATM    9  C   LIG     1       0.747   0.578   0.481  1.00  0.00     0.144 A 
ATOM     10  HN  LIG     1       1.736  -1.168   1.126  1.00  0.00     0.169 HD
HETATM   11  C   LIG     1       1.564   1.735   0.883  1.00  0.00     0.100 C 
HETATM   12  O   LIG     1      -0.409   0.851  -0.187  1.00  0.00    -0.223 OA
HETATM   13  N   LIG     1      -0.998  -0.377  -0.473  1.00  0.00    -0.242 N 
ATOM     14  HN  LIG     1      -1.873  -0.555  -0.966  1.00  0.00     0.196 HD
ENDBRANCH   1   7
BRANCH   3  15
HETATM   15  S   LIG     1       1.569  -6.064   1.244  1.00  0.00     0.262 S 
HETATM   16  O   LIG     1       2.167  -5.392   2.380  1.00  0.00    -0.206 OA
HETATM   17  O   LIG     1       0.997  -7.391   1.330  1.00  0.00    -0.206 OA
HETATM   18 CL   LIG     1       3.024  -6.174  -0.186  1.00  0.00     0.024 Cl
ENDBRANCH   3  15
TORSDOF 2
