REMARK  2 active torsions:
REMARK  status: ('A' for Active; 'I' for Inactive)
REMARK    1  A    between atoms: C_1  and  C_2 
REMARK    2  A    between atoms: C_5  and  S_8 
ROOT
HETATM    1  C   LIG     1      -0.856  -2.327  -0.026  1.00  0.00    -0.009 A 
HETATM    2  C   LIG     1       0.119  -3.291   0.289  1.00  0.00     0.015 A 
HETATM    3  C   LIG     1      -2.128  -2.774  -0.420  1.00  0.00     0.015 A 
HETATM    4  C   LIG     1      -1.429  -5.077  -0.197  1.00  0.00     0.074 A 
HETATM    5  C   LIG     1      -0.161  -4.659   0.211  1.00  0.00     0.025 A 
HETATM    6  C   LIG     1      -2.418  -4.140  -0.502  1.00  0.00     0.025 A 
ENDROOT
BRANCH   1   7
HETATM    7  C   LIG     1      -0.518  -0.905   0.073  1.00  0.00     0.049 A 
HETATM    8  C   LIG     1      -1.369   0.138  -0.243  1.00  0.00     0.081 A 
HETATM    9  S   LIG     1      -0.592   1.645   0.013  1.00  0.00    -0.087 SA
HETATM   10  C   LIG     1       0.820   0.813   0.523  1.00  0.00     0.047 A 
HETATM   11  N   LIG     1       0.739  -0.500   0.509  1.00  0.00    -0.353 N 
HETATM   12  C   LIG     1       2.023   1.583   0.942  1.00  0.00     0.076 C 
ATOM     13  HN  LIG     1       1.492  -1.132   0.780  1.00  0.00     0.166 HD
ENDBRANCH   1   7
BRANCH   4  14
HETATM   14  S   LIG     1      -1.806  -6.805  -0.270  1.00  0.00     0.262 S 
HETATM   15 CL   LIG     1      -1.261  -7.262  -2.185  1.00  0.00     0.024 Cl
HETATM   16  O   LIG     1      -0.892  -7.527   0.591  1.00  0.00    -0.206 OA
HETATM   17  O   LIG     1      -3.242  -6.978  -0.211  1.00  0.00    -0.206 OA
ENDBRANCH   4  14
TORSDOF 2
