REMARK  1 active torsions:
REMARK  status: ('A' for Active; 'I' for Inactive)
REMARK    1  A    between atoms: C_1  and  S_11 
ROOT
HETATM    1  C   LIG     1       2.143   0.696   0.029  1.00  0.00     0.075 A 
HETATM    2  C   LIG     1       2.144  -0.699   0.020  1.00  0.00     0.027 A 
HETATM    3  C   LIG     1       0.939  -1.407   0.002  1.00  0.00     0.032 A 
HETATM    4  C   LIG     1       0.946   1.425   0.046  1.00  0.00     0.038 A 
HETATM    5  C   LIG     1      -0.275   0.724   0.027  1.00  0.00    -0.006 A 
HETATM    6  C   LIG     1      -0.262  -0.676   0.004  1.00  0.00     0.044 A 
HETATM    7  N   LIG     1      -1.581  -1.084  -0.009  1.00  0.00    -0.360 N 
HETATM    8  C   LIG     1      -2.415   0.005   0.006  1.00  0.00     0.091 A 
HETATM    9  C   LIG     1      -1.634   1.137   0.030  1.00  0.00     0.031 A 
HETATM   10  C   LIG     1      -2.064  -2.447  -0.032  1.00  0.00     0.155 C 
ENDROOT
BRANCH   1  11
HETATM   11  S   LIG     1       3.682   1.569   0.072  1.00  0.00     0.262 S 
HETATM   12 CL   LIG     1       4.037   1.869  -1.918  1.00  0.00     0.024 Cl
HETATM   13  O   LIG     1       3.470   2.882   0.643  1.00  0.00    -0.206 OA
HETATM   14  O   LIG     1       4.724   0.674   0.531  1.00  0.00    -0.206 OA
ENDBRANCH   1  11
TORSDOF 1
