REMARK  3 active torsions:
REMARK  status: ('A' for Active; 'I' for Inactive)
REMARK    1  A    between atoms: C_5  and  C_7 
REMARK    2  A    between atoms: C_8  and  S_19 
REMARK    3  A    between atoms: C_10  and  C_13 
ROOT
HETATM    1  C   LIG     1       3.119  -0.303  -0.206  1.00  0.00     0.073 A 
HETATM    2  C   LIG     1       3.684  -1.539  -0.487  1.00  0.00     0.144 A 
HETATM    3  S   LIG     1       5.391  -1.367  -0.589  1.00  0.00    -0.056 SA
HETATM    4  C   LIG     1       5.257   0.333  -0.433  1.00  0.00     0.086 A 
HETATM    5  N   LIG     1       4.027   0.760  -0.238  1.00  0.00    -0.347 N 
ATOM      6  HN  LIG     1       3.769   1.740  -0.125  1.00  0.00     0.166 HD
ENDROOT
BRANCH   1   7
HETATM    7  C   LIG     1       1.701  -0.011   0.005  1.00  0.00    -0.007 A 
HETATM    8  C   LIG     1       1.194   1.221  -0.441  1.00  0.00     0.014 A 
HETATM    9  C   LIG     1      -0.161   1.537  -0.307  1.00  0.00     0.001 A 
HETATM   10  C   LIG     1      -1.033   0.621   0.273  1.00  0.00     0.000 A 
HETATM   11  C   LIG     1      -0.541  -0.587   0.760  1.00  0.00     0.001 A 
HETATM   12  C   LIG     1       0.823  -0.888   0.655  1.00  0.00     0.014 A 
ENDBRANCH   1   7
BRANCH   2  13
HETATM   13  S   LIG     1       3.099  -3.183  -0.725  1.00  0.00     0.270 S 
HETATM   14 CL   LIG     1       1.322  -3.156  -1.711  1.00  0.00     0.024 Cl
HETATM   15  O   LIG     1       4.021  -3.853  -1.629  1.00  0.00    -0.205 OA
HETATM   16  O   LIG     1       2.814  -3.687   0.599  1.00  0.00    -0.205 OA
ENDBRANCH   2  13
BRANCH   4  17
HETATM   17  C   LIG     1       6.441   1.201  -0.576  1.00  0.00    -0.002 A 
HETATM   18  C   LIG     1       6.289   2.500  -1.086  1.00  0.00     0.014 A 
HETATM   19  C   LIG     1       7.393   3.343  -1.253  1.00  0.00     0.001 A 
HETATM   20  C   LIG     1       8.667   2.901  -0.902  1.00  0.00     0.000 A 
HETATM   21  C   LIG     1       8.838   1.620  -0.388  1.00  0.00     0.001 A 
HETATM   22  C   LIG     1       7.734   0.777  -0.225  1.00  0.00     0.014 A 
ENDBRANCH   4  17
TORSDOF 3
