REMARK  1 active torsions:
REMARK  status: ('A' for Active; 'I' for Inactive)
REMARK    1  A    between atoms: C_4  and  S_5 
ROOT
HETATM    1  C   LIG     1       0.901  -1.386   0.110  1.00  0.00     0.030 A 
HETATM    2  C   LIG     1       2.103  -0.678   0.186  1.00  0.00     0.004 A 
HETATM    3  C   LIG     1       2.115   0.713   0.161  1.00  0.00     0.026 A 
HETATM    4  C   LIG     1       0.913   1.434   0.058  1.00  0.00     0.087 A 
HETATM    5  C   LIG     1      -0.297  -0.658   0.014  1.00  0.00     0.045 A 
HETATM    6  C   LIG     1      -0.318   0.743  -0.007  1.00  0.00     0.015 A 
HETATM    7  C   LIG     1      -1.687   1.131  -0.091  1.00  0.00     0.032 A 
HETATM    8  C   LIG     1      -2.452  -0.011  -0.131  1.00  0.00     0.091 A 
HETATM    9  N   LIG     1      -1.606  -1.085  -0.070  1.00  0.00    -0.360 N 
HETATM   10  C   LIG     1      -2.034  -2.467  -0.081  1.00  0.00     0.155 C 
ENDROOT
BRANCH   4  11
HETATM   11  S   LIG     1       0.982   3.201   0.019  1.00  0.00     0.263 S 
HETATM   12 CL   LIG     1       0.305   3.627  -1.864  1.00  0.00     0.024 Cl
HETATM   13  O   LIG     1       0.002   3.740   0.939  1.00  0.00    -0.206 OA
HETATM   14  O   LIG     1       2.367   3.627   0.026  1.00  0.00    -0.206 OA
ENDBRANCH   4  11
TORSDOF 1
