REMARK  1 active torsions:
REMARK  status: ('A' for Active; 'I' for Inactive)
REMARK    1  A    between atoms: C_2  and  S_13 
ROOT
HETATM    1  C   LIG     1       2.434  -0.704   0.041  1.00  0.00     0.027 A 
HETATM    2  C   LIG     1       2.432   0.695   0.039  1.00  0.00     0.077 A 
HETATM    3  C   LIG     1       1.230   1.411   0.034  1.00  0.00     0.057 A 
HETATM    4  C   LIG     1       1.220  -1.391   0.013  1.00  0.00     0.040 A 
HETATM    5  C   LIG     1       0.015  -0.686   0.003  1.00  0.00     0.096 A 
HETATM    6  C   LIG     1       0.023   0.712   0.015  1.00  0.00     0.070 A 
HETATM    7  N   LIG     1      -1.176   1.420  -0.014  1.00  0.00    -0.323 N 
ATOM      8  HN  LIG     1      -1.150   2.439  -0.058  1.00  0.00     0.169 HD
HETATM    9  C   LIG     1      -2.386   0.787   0.015  1.00  0.00     0.246 C 
HETATM   10  C   LIG     1      -2.331  -0.732   0.169  1.00  0.00     0.278 C 
HETATM   11  O   LIG     1      -1.122  -1.440  -0.054  1.00  0.00    -0.340 OA
HETATM   12  O   LIG     1      -3.438   1.420  -0.029  1.00  0.00    -0.271 OA
ENDROOT
BRANCH   2  13
HETATM   13  S   LIG     1       3.969   1.572   0.096  1.00  0.00     0.262 S 
HETATM   14 CL   LIG     1       4.423   1.730  -1.889  1.00  0.00     0.024 Cl
HETATM   15  O   LIG     1       3.721   2.921   0.560  1.00  0.00    -0.206 OA
HETATM   16  O   LIG     1       4.979   0.713   0.676  1.00  0.00    -0.206 OA
ENDBRANCH   2  13
TORSDOF 1
