REMARK  1 active torsions:
REMARK  status: ('A' for Active; 'I' for Inactive)
REMARK    1  A    between atoms: C_4  and  S_8 
ROOT
HETATM    1  N   LIG     1       0.902   0.643  -0.012  1.00  0.00    -0.307 N 
HETATM    2  N   LIG     1       1.011  -0.688  -0.187  1.00  0.00    -0.288 N 
ATOM      3  HN  LIG     1       1.851  -1.230  -0.388  1.00  0.00     0.188 HD
HETATM    4  C   LIG     1      -0.251  -1.134  -0.034  1.00  0.00     0.160 A 
HETATM    5  C   LIG     1      -1.153  -0.076   0.230  1.00  0.00     0.063 A 
HETATM    6  C   LIG     1      -0.374   1.058   0.236  1.00  0.00     0.112 A 
HETATM    7  C   LIG     1       2.079   1.474  -0.107  1.00  0.00     0.177 C 
ENDROOT
BRANCH   4   8
HETATM    8  S   LIG     1      -0.733  -2.805  -0.145  1.00  0.00     0.278 S 
HETATM    9  O   LIG     1      -1.191  -3.160   1.184  1.00  0.00    -0.204 OA
HETATM   10  O   LIG     1      -1.584  -2.882  -1.316  1.00  0.00    -0.204 OA
HETATM   11 CL   LIG     1       0.902  -3.965  -0.530  1.00  0.00     0.025 Cl
ENDBRANCH   4   8
TORSDOF 1
