REMARK  2 active torsions:
REMARK  status: ('A' for Active; 'I' for Inactive)
REMARK    1  A    between atoms: N_1  and  C_9 
REMARK    2  A    between atoms: C_5  and  S_15 
ROOT
HETATM    1  N   LIG     1      -1.041  -0.914   0.418  1.00  0.00    -0.259 N 
HETATM    2  N   LIG     1       0.316  -0.904   0.517  1.00  0.00    -0.297 N 
ATOM      3  HN  LIG     1       0.919  -1.688   0.765  1.00  0.00     0.187 HD
HETATM    4  C   LIG     1       0.697   0.341   0.224  1.00  0.00     0.047 C 
HETATM    5  C   LIG     1      -0.418   1.179   0.047  1.00  0.00     0.122 C 
HETATM    6  C   LIG     1      -1.533   0.380   0.268  1.00  0.00     0.055 C 
HETATM    7  C   LIG     1      -2.961   0.777   0.397  1.00  0.00     0.072 C 
HETATM    8  C   LIG     1       2.147   0.662   0.171  1.00  0.00     0.071 C 
ENDROOT
BRANCH   1   9
HETATM    9  C   LIG     1      -1.727  -2.165   0.497  1.00  0.00     0.056 A 
HETATM   10  C   LIG     1      -3.032  -2.334   0.021  1.00  0.00     0.031 A 
HETATM   11  C   LIG     1      -3.666  -3.578   0.124  1.00  0.00     0.002 A 
HETATM   12  C   LIG     1      -3.000  -4.662   0.691  1.00  0.00     0.000 A 
HETATM   13  C   LIG     1      -1.691  -4.513   1.142  1.00  0.00     0.002 A 
HETATM   14  C   LIG     1      -1.053  -3.275   1.037  1.00  0.00     0.031 A 
ENDBRANCH   1   9
BRANCH   5  15
HETATM   15  S   LIG     1      -0.371   2.873  -0.246  1.00  0.00     0.266 S 
HETATM   16 CL   LIG     1      -0.426   3.805   1.567  1.00  0.00     0.024 Cl
HETATM   17  O   LIG     1       0.928   3.157  -0.816  1.00  0.00    -0.206 OA
HETATM   18  O   LIG     1      -1.613   3.195  -0.915  1.00  0.00    -0.206 OA
ENDBRANCH   5  15
TORSDOF 2
