REMARK  1 active torsions:
REMARK  status: ('A' for Active; 'I' for Inactive)
REMARK    1  A    between atoms: C_1  and  S_12 
ROOT
HETATM    1  C   LIG     1       2.253  -0.344  -0.022  1.00  0.00     0.075 A 
HETATM    2  C   LIG     1       1.986   1.042   0.002  1.00  0.00     0.027 A 
HETATM    3  C   LIG     1       0.667   1.505   0.026  1.00  0.00     0.031 A 
HETATM    4  C   LIG     1       1.218  -1.290  -0.047  1.00  0.00     0.034 A 
HETATM    5  C   LIG     1      -0.079  -0.812  -0.023  1.00  0.00    -0.021 A 
HETATM    6  C   LIG     1      -0.336   0.559   0.014  1.00  0.00     0.041 A 
HETATM    7  N   LIG     1      -1.703   0.776   0.030  1.00  0.00    -0.326 N 
ATOM      8  HN  LIG     1      -2.138   1.698   0.058  1.00  0.00     0.169 HD
HETATM    9  C   LIG     1      -2.407  -0.422   0.003  1.00  0.00     0.226 A 
HETATM   10  C   LIG     1      -1.380  -1.561  -0.036  1.00  0.00     0.144 A 
HETATM   11  O   LIG     1      -3.621  -0.536   0.010  1.00  0.00    -0.273 OA
ENDROOT
BRANCH   1  12
HETATM   12  S   LIG     1       3.937  -0.902  -0.079  1.00  0.00     0.262 S 
HETATM   13 CL   LIG     1       4.358  -1.123   1.907  1.00  0.00     0.024 Cl
HETATM   14  O   LIG     1       3.972  -2.231  -0.650  1.00  0.00    -0.206 OA
HETATM   15  O   LIG     1       4.776   0.180  -0.550  1.00  0.00    -0.206 OA
ENDBRANCH   1  12
TORSDOF 1
