REMARK  1 active torsions:
REMARK  status: ('A' for Active; 'I' for Inactive)
REMARK    1  A    between atoms: C_2  and  S_5 
ROOT
HETATM    1  C   LIG     1      -2.143   0.668   0.008  1.00  0.00     0.027 A 
HETATM    2  C   LIG     1      -2.211  -0.725   0.022  1.00  0.00     0.076 A 
HETATM    3  C   LIG     1      -1.054  -1.517   0.044  1.00  0.00     0.045 A 
HETATM    4  C   LIG     1      -0.897   1.304  -0.010  1.00  0.00     0.032 A 
HETATM    5  C   LIG     1       0.186  -0.857   0.026  1.00  0.00     0.035 A 
HETATM    6  C   LIG     1       0.286   0.536  -0.003  1.00  0.00     0.050 A 
HETATM    7  N   LIG     1       1.576   1.037  -0.021  1.00  0.00    -0.353 N 
ATOM      8  HN  LIG     1       1.818   2.027  -0.046  1.00  0.00     0.166 HD
HETATM    9  C   LIG     1       2.443   0.049  -0.001  1.00  0.00     0.048 A 
HETATM   10  S   LIG     1       1.771  -1.530   0.035  1.00  0.00    -0.075 SA
HETATM   11  C   LIG     1       3.920   0.229  -0.011  1.00  0.00     0.076 C 
ENDROOT
BRANCH   2  12
HETATM   12  S   LIG     1      -3.797  -1.520   0.068  1.00  0.00     0.262 S 
HETATM   13 CL   LIG     1      -4.174  -1.791  -1.921  1.00  0.00     0.024 Cl
HETATM   14  O   LIG     1      -3.642  -2.843   0.633  1.00  0.00    -0.206 OA
HETATM   15  O   LIG     1      -4.785  -0.574   0.540  1.00  0.00    -0.206 OA
ENDBRANCH   2  12
TORSDOF 1
