REMARK  2 active torsions:
REMARK  status: ('A' for Active; 'I' for Inactive)
REMARK    1  A    between atoms: C_5  and  C_9 
REMARK    2  A    between atoms: C_12  and  S_15 
ROOT
HETATM    1  C   LIG     1       2.373   1.368  -0.320  1.00  0.00     0.008 A 
HETATM    2  C   LIG     1       2.405   2.777  -0.369  1.00  0.00     0.017 A 
HETATM    3  C   LIG     1       3.568   3.474  -0.716  1.00  0.00     0.025 A 
HETATM    4  C   LIG     1       4.726   2.764  -1.032  1.00  0.00     0.074 A 
HETATM    5  C   LIG     1       4.736   1.370  -0.982  1.00  0.00     0.025 A 
HETATM    6  C   LIG     1       3.566   0.685  -0.633  1.00  0.00     0.017 A 
ENDROOT
BRANCH   1   7
HETATM    7  C   LIG     1       1.141   0.637   0.051  1.00  0.00     0.115 A 
HETATM    8  N   LIG     1       0.042   1.362   0.346  1.00  0.00    -0.352 N 
HETATM    9  C   LIG     1      -1.063   0.671   0.682  1.00  0.00     0.091 A 
ATOM     10  HN  LIG     1       0.048   2.382   0.316  1.00  0.00     0.166 HD
HETATM   11  C   LIG     1      -1.115  -0.700   0.734  1.00  0.00     0.034 A 
HETATM   12  C   LIG     1       0.053  -1.348   0.416  1.00  0.00     0.091 A 
HETATM   13  N   LIG     1       1.188  -0.710   0.072  1.00  0.00    -0.352 N 
ATOM     14  HN  LIG     1       2.040  -1.220  -0.161  1.00  0.00     0.166 HD
ENDBRANCH   1   7
BRANCH   4  15
HETATM   15  S   LIG     1       6.207   3.640  -1.443  1.00  0.00     0.262 S 
HETATM   16 CL   LIG     1       6.017   3.839  -3.467  1.00  0.00     0.024 Cl
HETATM   17  O   LIG     1       6.132   4.980  -0.900  1.00  0.00    -0.206 OA
HETATM   18  O   LIG     1       7.347   2.772  -1.233  1.00  0.00    -0.206 OA
ENDBRANCH   4  15
TORSDOF 2
