REMARK  2 active torsions:
REMARK  status: ('A' for Active; 'I' for Inactive)
REMARK    1  A    between atoms: C_5  and  C_9 
REMARK    2  A    between atoms: C_13  and  S_15 
ROOT
HETATM    1  C   LIG     1       2.381   1.338  -0.330  1.00  0.00     0.009 A 
HETATM    2  C   LIG     1       2.508   2.742  -0.324  1.00  0.00     0.015 A 
HETATM    3  C   LIG     1       3.712   3.377  -0.648  1.00  0.00     0.002 A 
HETATM    4  C   LIG     1       4.830   2.620  -0.984  1.00  0.00     0.025 A 
HETATM    5  C   LIG     1       4.734   1.228  -0.984  1.00  0.00     0.075 A 
HETATM    6  C   LIG     1       3.524   0.591  -0.676  1.00  0.00     0.040 A 
ENDROOT
BRANCH   1   7
HETATM    7  C   LIG     1       1.105   0.677   0.017  1.00  0.00     0.115 A 
HETATM    8  N   LIG     1       1.074  -0.671   0.013  1.00  0.00    -0.352 N 
HETATM    9  C   LIG     1      -0.097  -1.249   0.340  1.00  0.00     0.091 A 
ATOM     10  HN  LIG     1       1.896  -1.225  -0.226  1.00  0.00     0.166 HD
HETATM   11  C   LIG     1      -1.226  -0.541   0.672  1.00  0.00     0.034 A 
HETATM   12  C   LIG     1      -1.094   0.826   0.649  1.00  0.00     0.091 A 
HETATM   13  N   LIG     1       0.051   1.458   0.329  1.00  0.00    -0.352 N 
ATOM     14  HN  LIG     1       0.118   2.476   0.323  1.00  0.00     0.166 HD
ENDBRANCH   1   7
BRANCH   5  15
HETATM   15  S   LIG     1       6.147   0.255  -1.415  1.00  0.00     0.262 S 
HETATM   16 CL   LIG     1       6.990  -0.070   0.418  1.00  0.00     0.024 Cl
HETATM   17  O   LIG     1       5.711  -1.040  -1.892  1.00  0.00    -0.206 OA
HETATM   18  O   LIG     1       7.088   1.081  -2.143  1.00  0.00    -0.206 OA
ENDBRANCH   5  15
TORSDOF 2
