REMARK  3 active torsions:
REMARK  status: ('A' for Active; 'I' for Inactive)
REMARK    1  A    between atoms: C_3  and  C_7 
REMARK    2  A    between atoms: C_5  and  S_17 
REMARK    3  A    between atoms: C_6  and  N_11 
ROOT
HETATM    1  C   LIG     1      -0.217   1.227   0.040  1.00  0.00     0.026 A 
HETATM    2  C   LIG     1      -0.996   0.067   0.102  1.00  0.00     0.018 A 
HETATM    3  C   LIG     1      -0.395  -1.190   0.113  1.00  0.00     0.049 A 
HETATM    4  C   LIG     1       1.005  -1.253   0.087  1.00  0.00     0.042 A 
HETATM    5  C   LIG     1       1.792  -0.079   0.002  1.00  0.00     0.097 A 
HETATM    6  C   LIG     1       1.191   1.197  -0.039  1.00  0.00     0.033 A 
ENDROOT
BRANCH   6   7
HETATM    7  N   LIG     1       1.922   2.385  -0.209  1.00  0.00    -0.278 NA
HETATM    8  C   LIG     1       1.249   3.480  -0.964  1.00  0.00     0.122 C 
HETATM    9  C   LIG     1       2.234   4.626  -1.239  1.00  0.00     0.182 C 
HETATM   10  O   LIG     1       2.820   5.118  -0.023  1.00  0.00    -0.389 OA
HETATM   11  C   LIG     1       3.501   4.055   0.668  1.00  0.00     0.182 C 
HETATM   12  C   LIG     1       2.518   2.930   1.042  1.00  0.00     0.122 C 
ENDBRANCH   6   7
BRANCH   5  13
HETATM   13  S   LIG     1       3.548  -0.318  -0.197  1.00  0.00     0.263 S 
HETATM   14 CL   LIG     1       3.964   0.573  -1.990  1.00  0.00     0.024 Cl
HETATM   15  O   LIG     1       4.283   0.399   0.823  1.00  0.00    -0.206 OA
HETATM   16  O   LIG     1       3.790  -1.733  -0.438  1.00  0.00    -0.206 OA
ENDBRANCH   5  13
BRANCH   3  17
HETATM   17  C   LIG     1      -1.229  -2.450   0.122  1.00  0.00     0.417 C 
HETATM   18  F   LIG     1      -2.571  -2.210   0.109  1.00  0.00    -0.166 F 
HETATM   19  F   LIG     1      -0.983  -3.241  -0.958  1.00  0.00    -0.166 F 
HETATM   20  F   LIG     1      -0.997  -3.221   1.218  1.00  0.00    -0.166 F 
ENDBRANCH   3  17
TORSDOF 3
