REMARK  2 active torsions:
REMARK  status: ('A' for Active; 'I' for Inactive)
REMARK    1  A    between atoms: C_2  and  S_6 
REMARK    2  A    between atoms: C_3  and  C_10 
ROOT
HETATM    1  O   LIG     1       0.951   0.542  -0.032  1.00  0.00    -0.309 OA
HETATM    2  C   LIG     1       0.977  -0.837   0.032  1.00  0.00     0.196 A 
HETATM    3  C   LIG     1      -0.343  -1.297   0.051  1.00  0.00     0.045 A 
HETATM    4  C   LIG     1      -1.177  -0.144   0.002  1.00  0.00     0.040 A 
HETATM    5  C   LIG     1      -0.342   0.941  -0.046  1.00  0.00     0.144 A 
ENDROOT
BRANCH   3   6
HETATM    6  C   LIG     1      -0.755  -2.730   0.107  1.00  0.00     0.297 C 
HETATM    7  O   LIG     1      -2.188  -2.878   0.101  1.00  0.00    -0.355 OA
HETATM    8  C   LIG     1      -2.504  -3.467   1.361  1.00  0.00     0.197 C 
HETATM    9  C   LIG     1      -1.260  -4.230   1.718  1.00  0.00     0.197 C 
HETATM   10  O   LIG     1      -0.216  -3.366   1.275  1.00  0.00    -0.355 OA
ENDBRANCH   3   6
BRANCH   2  11
HETATM   11  S   LIG     1       2.521  -1.737   0.064  1.00  0.00     0.284 S 
HETATM   12 CL   LIG     1       3.899  -0.615  -0.946  1.00  0.00     0.026 Cl
HETATM   13  O   LIG     1       2.955  -1.767   1.444  1.00  0.00    -0.204 OA
HETATM   14  O   LIG     1       2.311  -2.922  -0.742  1.00  0.00    -0.204 OA
ENDBRANCH   2  11
TORSDOF 2
