REMARK  2 active torsions:
REMARK  status: ('A' for Active; 'I' for Inactive)
REMARK    1  A    between atoms: C_1  and  C_8 
REMARK    2  A    between atoms: C_12  and  S_14 
ROOT
HETATM    1  C   LIG     1      -0.840  -2.517   0.011  1.00  0.00    -0.006 A 
HETATM    2  C   LIG     1      -0.068  -3.562   0.549  1.00  0.00     0.014 A 
HETATM    3  C   LIG     1      -0.490  -4.894   0.473  1.00  0.00     0.002 A 
HETATM    4  C   LIG     1      -1.705  -5.207  -0.129  1.00  0.00     0.025 A 
HETATM    5  C   LIG     1      -2.468  -4.182  -0.689  1.00  0.00     0.075 A 
HETATM    6  C   LIG     1      -2.033  -2.850  -0.642  1.00  0.00     0.038 A 
ENDROOT
BRANCH   1   7
HETATM    7  C   LIG     1      -0.375  -1.127   0.134  1.00  0.00     0.061 A 
HETATM    8  C   LIG     1       0.926  -0.642   0.158  1.00  0.00     0.050 A 
HETATM    9  C   LIG     1       0.819   0.749   0.298  1.00  0.00     0.109 A 
HETATM   10  N   LIG     1      -0.447   1.147   0.375  1.00  0.00    -0.310 N 
HETATM   11  N   LIG     1      -1.157   0.002   0.307  1.00  0.00    -0.296 N 
ATOM     12  HN  LIG     1      -0.800   2.100   0.465  1.00  0.00     0.186 HD
HETATM   13  C   LIG     1      -2.592   0.100   0.451  1.00  0.00     0.178 C 
ENDBRANCH   1   7
BRANCH   5  14
HETATM   14  S   LIG     1      -4.066  -4.550  -1.359  1.00  0.00     0.262 S 
HETATM   15 CL   LIG     1      -3.623  -4.965  -3.307  1.00  0.00     0.024 Cl
HETATM   16  O   LIG     1      -4.544  -5.788  -0.779  1.00  0.00    -0.206 OA
HETATM   17  O   LIG     1      -4.855  -3.337  -1.371  1.00  0.00    -0.206 OA
ENDBRANCH   5  14
TORSDOF 2
