REMARK  2 active torsions:
REMARK  status: ('A' for Active; 'I' for Inactive)
REMARK    1  A    between atoms: C_3  and  C_8 
REMARK    2  A    between atoms: C_12  and  S_14 
ROOT
HETATM    1  C   LIG     1       0.209  -3.419   0.220  1.00  0.00     0.038 A 
HETATM    2  C   LIG     1      -0.774  -2.448  -0.031  1.00  0.00    -0.007 A 
HETATM    3  C   LIG     1      -2.061  -2.878  -0.391  1.00  0.00     0.014 A 
HETATM    4  C   LIG     1      -2.362  -4.240  -0.504  1.00  0.00     0.002 A 
HETATM    5  C   LIG     1      -1.380  -5.196  -0.254  1.00  0.00     0.025 A 
HETATM    6  C   LIG     1      -0.100  -4.779   0.118  1.00  0.00     0.075 A 
ENDROOT
BRANCH   2   7
HETATM    7  C   LIG     1      -0.449  -1.020   0.080  1.00  0.00     0.059 A 
HETATM    8  N   LIG     1       0.783  -0.609   0.427  1.00  0.00    -0.299 N 
HETATM    9  N   LIG     1       0.717   0.731   0.416  1.00  0.00    -0.307 N 
ATOM     10  HN  LIG     1       1.592  -1.189   0.650  1.00  0.00     0.187 HD
HETATM   11  C   LIG     1      -0.513   1.212   0.087  1.00  0.00     0.112 A 
HETATM   12  C   LIG     1       1.885   1.516   0.735  1.00  0.00     0.177 C 
HETATM   13  C   LIG     1      -1.295   0.104  -0.138  1.00  0.00     0.050 A 
ENDBRANCH   2   7
BRANCH   6  14
HETATM   14  S   LIG     1       1.159  -5.987   0.410  1.00  0.00     0.262 S 
HETATM   15 CL   LIG     1       0.926  -6.347   2.408  1.00  0.00     0.024 Cl
HETATM   16  O   LIG     1       0.794  -7.219  -0.260  1.00  0.00    -0.206 OA
HETATM   17  O   LIG     1       2.462  -5.376   0.262  1.00  0.00    -0.206 OA
ENDBRANCH   6  14
TORSDOF 2
