REMARK  3 active torsions:
REMARK  status: ('A' for Active; 'I' for Inactive)
REMARK    1  A    between atoms: C_5  and  O_9 
REMARK    2  A    between atoms: O_9  and  C_10 
REMARK    3  A    between atoms: C_14  and  S_17 
ROOT
HETATM    1  C   LIG     1      -0.251  -5.246  -0.464  1.00  0.00     0.079 A 
HETATM    2  C   LIG     1       0.508  -6.386  -0.169  1.00  0.00     0.037 A 
HETATM    3  C   LIG     1      -0.093  -7.636  -0.017  1.00  0.00     0.004 A 
HETATM    4  C   LIG     1      -1.465  -7.775  -0.179  1.00  0.00     0.025 A 
HETATM    5  C   LIG     1      -2.230  -6.651  -0.506  1.00  0.00     0.077 A 
HETATM    6  C   LIG     1      -1.636  -5.382  -0.636  1.00  0.00     0.061 A 
ENDROOT
BRANCH   1   7
HETATM    7  O   LIG     1       0.280  -3.967  -0.523  1.00  0.00    -0.292 OA
BRANCH   7   8
HETATM    8  C   LIG     1       1.613  -3.788  -0.864  1.00  0.00     0.164 A 
HETATM    9  C   LIG     1       2.233  -4.526  -1.868  1.00  0.00     0.144 A 
HETATM   10  N   LIG     1       3.536  -4.382  -2.212  1.00  0.00    -0.370 N 
HETATM   11  C   LIG     1       4.186  -3.397  -1.563  1.00  0.00     0.112 A 
ATOM     12  HN  LIG     1       3.989  -4.974  -2.908  1.00  0.00     0.164 HD
HETATM   13  C   LIG     1       3.571  -2.588  -0.613  1.00  0.00     0.022 A 
HETATM   14  N   LIG     1       2.272  -2.777  -0.238  1.00  0.00    -0.338 N 
HETATM   15  C   LIG     1       4.338  -1.419  -0.071  1.00  0.00     0.069 C 
ATOM     16  HN  LIG     1       1.823  -2.195   0.469  1.00  0.00     0.168 HD
ENDBRANCH   7   8
ENDBRANCH   1   7
BRANCH   5  17
HETATM   17  S   LIG     1      -3.979  -6.854  -0.705  1.00  0.00     0.262 S 
HETATM   18 CL   LIG     1      -4.270  -6.319  -2.656  1.00  0.00     0.024 Cl
HETATM   19  O   LIG     1      -4.305  -8.259  -0.642  1.00  0.00    -0.206 OA
HETATM   20  O   LIG     1      -4.650  -5.852   0.102  1.00  0.00    -0.206 OA
ENDBRANCH   5  17
TORSDOF 3
