REMARK  3 active torsions:
REMARK  status: ('A' for Active; 'I' for Inactive)
REMARK    1  A    between atoms: C_5  and  O_9 
REMARK    2  A    between atoms: O_9  and  C_11 
REMARK    3  A    between atoms: C_14  and  S_17 
ROOT
HETATM    1  C   LIG     1      -0.208  -5.024  -0.243  1.00  0.00     0.077 A 
HETATM    2  C   LIG     1       0.175  -6.006   0.677  1.00  0.00     0.039 A 
HETATM    3  C   LIG     1      -0.355  -7.293   0.592  1.00  0.00     0.027 A 
HETATM    4  C   LIG     1      -1.298  -7.584  -0.396  1.00  0.00     0.074 A 
HETATM    5  C   LIG     1      -1.749  -6.587  -1.268  1.00  0.00     0.027 A 
HETATM    6  C   LIG     1      -1.197  -5.304  -1.190  1.00  0.00     0.039 A 
ENDROOT
BRANCH   1   7
HETATM    7  O   LIG     1       0.301  -3.744  -0.218  1.00  0.00    -0.292 OA
BRANCH   7   8
HETATM    8  C   LIG     1       1.673  -3.608  -0.045  1.00  0.00     0.164 A 
HETATM    9  C   LIG     1       2.143  -2.424   0.501  1.00  0.00     0.144 A 
HETATM   10  N   LIG     1       3.460  -2.199   0.731  1.00  0.00    -0.370 N 
HETATM   11  C   LIG     1       4.288  -3.211   0.375  1.00  0.00     0.112 A 
ATOM     12  HN  LIG     1       3.803  -1.331   1.142  1.00  0.00     0.164 HD
HETATM   13  C   LIG     1       3.830  -4.393  -0.199  1.00  0.00     0.022 A 
HETATM   14  N   LIG     1       2.510  -4.605  -0.422  1.00  0.00    -0.338 N 
HETATM   15  C   LIG     1       4.777  -5.491  -0.567  1.00  0.00     0.069 C 
ATOM     16  HN  LIG     1       2.166  -5.465  -0.849  1.00  0.00     0.168 HD
ENDBRANCH   7   8
ENDBRANCH   1   7
BRANCH   4  17
HETATM   17  S   LIG     1      -1.960  -9.221  -0.500  1.00  0.00     0.262 S 
HETATM   18 CL   LIG     1      -0.695 -10.092  -1.850  1.00  0.00     0.024 Cl
HETATM   19  O   LIG     1      -1.736  -9.908   0.756  1.00  0.00    -0.206 OA
HETATM   20  O   LIG     1      -3.256  -9.169  -1.140  1.00  0.00    -0.206 OA
ENDBRANCH   4  17
TORSDOF 3
