REMARK  1 active torsions:
REMARK  status: ('A' for Active; 'I' for Inactive)
REMARK    1  A    between atoms: C_2  and  S_8 
ROOT
HETATM    1  N   LIG     1       0.868  -0.683   0.081  1.00  0.00    -0.285 N 
HETATM    2  C   LIG     1      -0.417  -1.156  -0.019  1.00  0.00     0.162 A 
HETATM    3  C   LIG     1      -1.212  -0.021  -0.048  1.00  0.00     0.063 A 
HETATM    4  C   LIG     1      -0.328   1.062   0.050  1.00  0.00     0.110 A 
HETATM    5  N   LIG     1       0.940   0.664   0.139  1.00  0.00    -0.309 N 
ATOM      6  HN  LIG     1       1.774   1.244   0.230  1.00  0.00     0.186 HD
HETATM    7  C   LIG     1       2.103  -1.434   0.123  1.00  0.00     0.179 C 
ENDROOT
BRANCH   2   8
HETATM    8  S   LIG     1      -0.815  -2.867  -0.080  1.00  0.00     0.279 S 
HETATM    9 CL   LIG     1      -0.677  -3.584   1.825  1.00  0.00     0.025 Cl
HETATM   10  O   LIG     1      -2.214  -2.933  -0.440  1.00  0.00    -0.204 OA
HETATM   11  O   LIG     1       0.236  -3.506  -0.839  1.00  0.00    -0.204 OA
ENDBRANCH   2   8
TORSDOF 1
