REMARK  1 active torsions:
REMARK  status: ('A' for Active; 'I' for Inactive)
REMARK    1  A    between atoms: C_4  and  S_13 
ROOT
HETATM    1  N   LIG     1       1.137  -1.367  -0.413  1.00  0.00    -0.349 N 
ATOM      2  HN  LIG     1       1.141  -2.368  -0.607  1.00  0.00     0.167 HD
HETATM    3  C   LIG     1       2.299  -0.685  -0.268  1.00  0.00     0.114 A 
HETATM    4  C   LIG     1       2.353   0.672  -0.021  1.00  0.00     0.092 A 
HETATM    5  C   LIG     1       1.168   1.382   0.117  1.00  0.00     0.066 A 
HETATM    6  C   LIG     1      -0.031  -0.689  -0.295  1.00  0.00     0.137 A 
HETATM    7  C   LIG     1      -0.036   0.699  -0.037  1.00  0.00     0.114 A 
HETATM    8  O   LIG     1      -1.172   1.457   0.125  1.00  0.00    -0.346 OA
HETATM    9  C   LIG     1      -2.359   0.770  -0.298  1.00  0.00     0.195 C 
HETATM   10  C   LIG     1      -2.366  -0.687   0.161  1.00  0.00     0.150 C 
HETATM   11  N   LIG     1      -1.241  -1.384  -0.456  1.00  0.00    -0.367 N 
HETATM   12  C   LIG     1      -1.157  -2.824  -0.267  1.00  0.00     0.151 C 
ENDROOT
BRANCH   4  13
HETATM   13  S   LIG     1       3.907   1.452   0.173  1.00  0.00     0.263 S 
HETATM   14 CL   LIG     1       4.301   2.073  -1.732  1.00  0.00     0.024 Cl
HETATM   15  O   LIG     1       3.738   2.655   0.960  1.00  0.00    -0.206 OA
HETATM   16  O   LIG     1       4.906   0.450   0.480  1.00  0.00    -0.206 OA
ENDBRANCH   4  13
TORSDOF 1
