REMARK  1 active torsions:
REMARK  status: ('A' for Active; 'I' for Inactive)
REMARK    1  A    between atoms: S_2  and  C_11 
ROOT
HETATM    1  C   LIG     1       5.405  -3.136   3.359  1.00  0.00     0.144 A 
HETATM    2  C   LIG     1       5.428  -4.668   3.365  1.00  0.00     0.228 A 
HETATM    3  N   LIG     1       4.580  -5.101   2.342  1.00  0.00    -0.322 N 
HETATM    4  C   LIG     1       4.465  -2.829   2.232  1.00  0.00    -0.021 A 
HETATM    5  C   LIG     1       4.005  -4.020   1.668  1.00  0.00     0.043 A 
HETATM    6  C   LIG     1       3.115  -4.031   0.610  1.00  0.00     0.032 A 
HETATM    7  C   LIG     1       2.681  -2.800   0.108  1.00  0.00     0.027 A 
HETATM    8  C   LIG     1       3.156  -1.597   0.671  1.00  0.00     0.075 A 
HETATM    9  C   LIG     1       4.048  -1.599   1.752  1.00  0.00     0.034 A 
HETATM   10  C   LIG     1       4.325  -6.481   2.026  1.00  0.00     0.159 C 
HETATM   11  O   LIG     1       6.076  -5.364   4.131  1.00  0.00    -0.273 OA
ENDROOT
BRANCH   8  12
HETATM   12  S   LIG     1       2.570  -0.048   0.035  1.00  0.00     0.262 S 
HETATM   13  O   LIG     1       2.673   0.954   1.074  1.00  0.00    -0.206 OA
HETATM   14  O   LIG     1       1.357  -0.276  -0.721  1.00  0.00    -0.206 OA
HETATM   15 CL   LIG     1       4.016   0.400  -1.336  1.00  0.00     0.024 Cl
ENDBRANCH   8  12
TORSDOF 1
