REMARK  4 active torsions:
REMARK  status: ('A' for Active; 'I' for Inactive)
REMARK    1  A    between atoms: C_3  and  S_15 
REMARK    2  A    between atoms: C_6  and  C_7 
REMARK    3  A    between atoms: C_7  and  O_8 
REMARK    4  A    between atoms: O_8  and  C_9 
ROOT
HETATM    1  C   LIG     1      -0.881   0.905  -0.098  1.00  0.00     0.011 A 
HETATM    2  C   LIG     1      -1.605  -0.282   0.020  1.00  0.00     0.025 A 
HETATM    3  C   LIG     1      -0.930  -1.477   0.274  1.00  0.00     0.074 A 
HETATM    4  C   LIG     1       0.464  -1.499   0.385  1.00  0.00     0.025 A 
HETATM    5  C   LIG     1       1.181  -0.305   0.271  1.00  0.00     0.011 A 
HETATM    6  C   LIG     1       0.516   0.912   0.058  1.00  0.00    -0.034 A 
ENDROOT
BRANCH   6   7
HETATM    7  C   LIG     1       1.272   2.219  -0.055  1.00  0.00     0.214 C 
BRANCH   7   8
HETATM    8  O   LIG     1       2.438   2.208   0.774  1.00  0.00    -0.347 OA
BRANCH   8   9
HETATM    9  C   LIG     1       3.203   3.345   0.755  1.00  0.00     0.069 A 
HETATM   10  C   LIG     1       2.925   4.495   0.012  1.00  0.00     0.037 A 
HETATM   11  C   LIG     1       3.796   5.586   0.047  1.00  0.00     0.003 A 
HETATM   12  C   LIG     1       4.947   5.539   0.829  1.00  0.00     0.000 A 
HETATM   13  C   LIG     1       5.223   4.403   1.586  1.00  0.00     0.003 A 
HETATM   14  C   LIG     1       4.353   3.310   1.550  1.00  0.00     0.037 A 
ENDBRANCH   8   9
ENDBRANCH   7   8
ENDBRANCH   6   7
BRANCH   3  15
HETATM   15  S   LIG     1      -1.841  -2.988   0.425  1.00  0.00     0.262 S 
HETATM   16 CL   LIG     1      -1.364  -3.611   2.315  1.00  0.00     0.024 Cl
HETATM   17  O   LIG     1      -3.260  -2.687   0.470  1.00  0.00    -0.206 OA
HETATM   18  O   LIG     1      -1.273  -3.959  -0.477  1.00  0.00    -0.206 OA
ENDBRANCH   3  15
TORSDOF 4
