REMARK  1 active torsions:
REMARK  status: ('A' for Active; 'I' for Inactive)
REMARK    1  A    between atoms: C_2  and  S_7 
ROOT
HETATM    1  S   LIG     1       1.212   0.929  -0.217  1.00  0.00    -0.082 SA
HETATM    2  C   LIG     1      -0.458   1.237  -0.019  1.00  0.00     0.115 A 
HETATM    3  C   LIG     1       0.995  -0.760  -0.047  1.00  0.00    -0.020 A 
HETATM    4  C   LIG     1      -1.168   0.069   0.176  1.00  0.00     0.033 A 
HETATM    5  C   LIG     1      -0.330  -1.084   0.159  1.00  0.00     0.016 A 
HETATM    6  C   LIG     1       2.172  -1.672  -0.125  1.00  0.00     0.056 C 
ENDROOT
BRANCH   2   7
HETATM    7  S   LIG     1      -0.960   2.936  -0.097  1.00  0.00     0.268 S 
HETATM    8 CL   LIG     1      -0.356   3.707  -1.890  1.00  0.00     0.024 Cl
HETATM    9  O   LIG     1      -2.407   2.910  -0.145  1.00  0.00    -0.205 OA
HETATM   10  O   LIG     1      -0.221   3.641   0.929  1.00  0.00    -0.205 OA
ENDBRANCH   2   7
TORSDOF 1
