REMARK  1 active torsions:
REMARK  status: ('A' for Active; 'I' for Inactive)
REMARK    1  A    between atoms: C_1  and  S_11 
ROOT
HETATM    1  C   LIG     1       0.881  -1.489  -0.069  1.00  0.00     0.102 A 
HETATM    2  C   LIG     1       2.094  -0.769  -0.169  1.00  0.00     0.027 A 
HETATM    3  C   LIG     1       2.129   0.617  -0.154  1.00  0.00     0.003 A 
HETATM    4  C   LIG     1       0.948   1.339  -0.033  1.00  0.00     0.014 A 
HETATM    5  C   LIG     1      -0.331  -0.745   0.018  1.00  0.00     0.067 A 
HETATM    6  C   LIG     1      -0.287   0.665   0.053  1.00  0.00    -0.006 A 
HETATM    7  C   LIG     1      -1.612   1.150   0.185  1.00  0.00     0.031 A 
HETATM    8  C   LIG     1      -2.445   0.065   0.206  1.00  0.00     0.091 A 
HETATM    9  N   LIG     1      -1.682  -1.071   0.077  1.00  0.00    -0.359 N 
HETATM   10  C   LIG     1      -2.305  -2.372  -0.046  1.00  0.00     0.156 C 
ENDROOT
BRANCH   1  11
HETATM   11  S   LIG     1       1.044  -3.264  -0.033  1.00  0.00     0.264 S 
HETATM   12 CL   LIG     1       0.583  -3.695   1.912  1.00  0.00     0.024 Cl
HETATM   13  O   LIG     1       0.018  -3.868  -0.854  1.00  0.00    -0.206 OA
HETATM   14  O   LIG     1       2.441  -3.626  -0.169  1.00  0.00    -0.206 OA
ENDBRANCH   1  11
TORSDOF 1
