REMARK  1 active torsions:
REMARK  status: ('A' for Active; 'I' for Inactive)
REMARK    1  A    between atoms: C_6  and  S_9 
ROOT
HETATM    1  C   LIG     1      -0.663   1.223   0.016  1.00  0.00     0.027 A 
HETATM    2  C   LIG     1      -1.320   0.002  -0.030  1.00  0.00     0.106 A 
HETATM    3  N   LIG     1      -0.681  -1.194  -0.046  1.00  0.00    -0.372 N 
ATOM      4  HN  LIG     1      -1.196  -2.074  -0.078  1.00  0.00     0.164 HD
HETATM    5  C   LIG     1       0.673  -1.167  -0.017  1.00  0.00     0.112 A 
HETATM    6  C   LIG     1       1.399   0.011   0.010  1.00  0.00     0.091 A 
HETATM    7  C   LIG     1       0.726   1.233   0.041  1.00  0.00     0.046 A 
HETATM    8 BR   LIG     1      -1.633   2.839   0.044  1.00  0.00    -0.050 Br
ENDROOT
BRANCH   6   9
HETATM    9  S   LIG     1       3.148  -0.060   0.068  1.00  0.00     0.263 S 
HETATM   10 CL   LIG     1       3.630   0.020  -1.914  1.00  0.00     0.024 Cl
HETATM   11  O   LIG     1       3.646   1.167   0.652  1.00  0.00    -0.206 OA
HETATM   12  O   LIG     1       3.555  -1.370   0.528  1.00  0.00    -0.206 OA
ENDBRANCH   6   9
TORSDOF 1
