REMARK  2 active torsions:
REMARK  status: ('A' for Active; 'I' for Inactive)
REMARK    1  A    between atoms: C_3  and  S_14 
REMARK    2  A    between atoms: C_6  and  N_7 
ROOT
HETATM    1  C   LIG     1      -0.788   1.006  -0.038  1.00  0.00     0.033 A 
HETATM    2  C   LIG     1      -1.382  -0.261  -0.087  1.00  0.00     0.027 A 
HETATM    3  C   LIG     1      -0.572  -1.394  -0.129  1.00  0.00     0.074 A 
HETATM    4  C   LIG     1       0.817  -1.266  -0.146  1.00  0.00     0.027 A 
HETATM    5  C   LIG     1       1.405   0.005  -0.099  1.00  0.00     0.033 A 
HETATM    6  C   LIG     1       0.615   1.159  -0.042  1.00  0.00     0.056 A 
ENDROOT
BRANCH   6   7
HETATM    7  N   LIG     1       1.160   2.489   0.005  1.00  0.00    -0.261 N 
HETATM    8  C   LIG     1       2.476   2.953   0.019  1.00  0.00     0.032 A 
HETATM    9  C   LIG     1       2.402   4.332   0.054  1.00  0.00     0.052 A 
HETATM   10  C   LIG     1       3.716   2.142   0.003  1.00  0.00     0.070 C 
HETATM   11  C   LIG     1       1.036   4.641   0.071  1.00  0.00     0.024 A 
HETATM   12  C   LIG     1       0.403   5.980   0.116  1.00  0.00     0.070 C 
HETATM   13  N   LIG     1       0.288   3.539   0.046  1.00  0.00    -0.298 N 
ATOM     14  HN  LIG     1      -0.731   3.490   0.056  1.00  0.00     0.187 HD
ENDBRANCH   6   7
BRANCH   3  15
HETATM   15  S   LIG     1      -1.307  -3.001  -0.227  1.00  0.00     0.262 S 
HETATM   16 CL   LIG     1      -1.523  -3.474   1.749  1.00  0.00     0.024 Cl
HETATM   17  O   LIG     1      -2.647  -2.880  -0.761  1.00  0.00    -0.206 OA
HETATM   18  O   LIG     1      -0.333  -3.933  -0.756  1.00  0.00    -0.206 OA
ENDBRANCH   3  15
TORSDOF 2
