REMARK  4 active torsions:
REMARK  status: ('A' for Active; 'I' for Inactive)
REMARK    1  A    between atoms: C_2  and  S_11 
REMARK    2  A    between atoms: C_4  and  C_6 
REMARK    3  A    between atoms: C_6  and  O_8 
REMARK    4  A    between atoms: O_8  and  C_9 
ROOT
HETATM    1  O   LIG     1       1.081  -1.266  -0.507  1.00  0.00    -0.309 OA
HETATM    2  C   LIG     1      -0.190  -1.677  -0.158  1.00  0.00     0.185 A 
HETATM    3  C   LIG     1      -0.903  -0.546   0.226  1.00  0.00     0.070 A 
HETATM    4  C   LIG     1      -0.030   0.578   0.153  1.00  0.00     0.065 A 
HETATM    5  C   LIG     1       1.165   0.071  -0.307  1.00  0.00     0.161 A 
ENDROOT
BRANCH   4   6
HETATM    6  C   LIG     1      -0.273   1.969   0.486  1.00  0.00     0.295 C 
HETATM    7  O   LIG     1       0.583   2.839   0.413  1.00  0.00    -0.259 OA
BRANCH   6   8
HETATM    8  O   LIG     1      -1.562   2.172   0.887  1.00  0.00    -0.318 OA
BRANCH   8   9
HETATM    9  C   LIG     1      -1.903   3.508   1.283  1.00  0.00     0.174 C 
HETATM   10  C   LIG     1      -2.174   4.382   0.072  1.00  0.00     0.034 C 
ENDBRANCH   8   9
ENDBRANCH   6   8
ENDBRANCH   4   6
BRANCH   2  11
HETATM   11  S   LIG     1      -0.672  -3.398  -0.238  1.00  0.00     0.284 S 
HETATM   12 CL   LIG     1      -1.404  -3.726  -2.115  1.00  0.00     0.026 Cl
HETATM   13  O   LIG     1       0.539  -4.179  -0.124  1.00  0.00    -0.204 OA
HETATM   14  O   LIG     1      -1.797  -3.533   0.665  1.00  0.00    -0.204 OA
ENDBRANCH   2  11
TORSDOF 4
