REMARK  1 active torsions:
REMARK  status: ('A' for Active; 'I' for Inactive)
REMARK    1  A    between atoms: C_2  and  S_12 
ROOT
HETATM    1  C   LIG     1       2.129   0.745  -0.013  1.00  0.00     0.027 A 
HETATM    2  C   LIG     1       2.129  -0.670  -0.020  1.00  0.00     0.077 A 
HETATM    3  C   LIG     1       0.935  -1.404  -0.031  1.00  0.00     0.064 A 
HETATM    4  C   LIG     1       0.922   1.452   0.005  1.00  0.00     0.034 A 
HETATM    5  C   LIG     1      -0.231   0.702   0.006  1.00  0.00     0.071 A 
HETATM    6  C   LIG     1      -0.235  -0.678  -0.012  1.00  0.00     0.109 A 
HETATM    7  O   LIG     1      -1.517  -1.205  -0.012  1.00  0.00    -0.259 OA
HETATM    8  C   LIG     1      -2.313  -0.051   0.008  1.00  0.00     0.370 A 
HETATM    9  N   LIG     1      -1.539   1.086   0.020  1.00  0.00    -0.300 N 
ATOM     10  HN  LIG     1      -1.883   2.046   0.036  1.00  0.00     0.171 HD
HETATM   11  O   LIG     1      -3.535  -0.065   0.016  1.00  0.00    -0.238 OA
ENDROOT
BRANCH   2  12
HETATM   12  S   LIG     1       3.675  -1.538  -0.071  1.00  0.00     0.262 S 
HETATM   13 CL   LIG     1       4.045  -1.826   1.916  1.00  0.00     0.024 Cl
HETATM   14  O   LIG     1       3.457  -2.852  -0.638  1.00  0.00    -0.206 OA
HETATM   15  O   LIG     1       4.703  -0.636  -0.546  1.00  0.00    -0.206 OA
ENDBRANCH   2  12
TORSDOF 1
