REMARK  1 active torsions:
REMARK  status: ('A' for Active; 'I' for Inactive)
REMARK    1  A    between atoms: C_2  and  S_11 
ROOT
HETATM    1  C   LIG     1      -2.136   0.711   0.108  1.00  0.00     0.027 A 
HETATM    2  C   LIG     1      -2.113  -0.701   0.044  1.00  0.00     0.077 A 
HETATM    3  C   LIG     1      -0.907  -1.410  -0.027  1.00  0.00     0.064 A 
HETATM    4  C   LIG     1      -0.941   1.439   0.080  1.00  0.00     0.034 A 
HETATM    5  C   LIG     1       0.231   0.717  -0.003  1.00  0.00     0.073 A 
HETATM    6  C   LIG     1       0.251  -0.663  -0.054  1.00  0.00     0.109 A 
HETATM    7  O   LIG     1       1.536  -1.177  -0.129  1.00  0.00    -0.259 OA
HETATM    8  C   LIG     1       2.330  -0.019  -0.123  1.00  0.00     0.372 A 
HETATM    9  N   LIG     1       1.545   1.114  -0.049  1.00  0.00    -0.295 N 
HETATM   10  O   LIG     1       3.551  -0.052  -0.177  1.00  0.00    -0.238 OA
HETATM   11  C   LIG     1       2.012   2.470  -0.013  1.00  0.00     0.162 C 
ENDROOT
BRANCH   2  12
HETATM   12  S   LIG     1      -3.639  -1.601   0.111  1.00  0.00     0.262 S 
HETATM   13 CL   LIG     1      -4.030  -1.885  -1.874  1.00  0.00     0.024 Cl
HETATM   14  O   LIG     1      -3.385  -2.912   0.667  1.00  0.00    -0.206 OA
HETATM   15  O   LIG     1      -4.680  -0.724   0.604  1.00  0.00    -0.206 OA
ENDBRANCH   2  12
TORSDOF 1
