REMARK  3 active torsions:
REMARK  status: ('A' for Active; 'I' for Inactive)
REMARK    1  A    between atoms: S_1  and  C_6 
REMARK    2  A    between atoms: C_3  and  O_9 
REMARK    3  A    between atoms: O_9  and  C_14 
ROOT
HETATM    1  C   LIG     1      -0.884   4.614  -4.067  1.00  0.00     0.100 A 
HETATM    2  C   LIG     1      -0.322   3.390  -3.665  1.00  0.00     0.098 A 
HETATM    3  C   LIG     1      -0.600   5.824  -3.349  1.00  0.00     0.104 C 
HETATM    4  N   LIG     1      -0.387   6.814  -2.785  1.00  0.00    -0.191 NA
HETATM    5  C   LIG     1      -1.733   4.642  -5.188  1.00  0.00     0.057 A 
HETATM    6 CL   LIG     1      -2.467   6.102  -5.760  1.00  0.00    -0.083 Cl
HETATM    7  C   LIG     1      -0.575   2.231  -4.421  1.00  0.00     0.039 A 
HETATM    8  C   LIG     1      -1.450   2.264  -5.505  1.00  0.00     0.005 A 
HETATM    9  C   LIG     1      -2.023   3.470  -5.894  1.00  0.00     0.025 A 
ENDROOT
BRANCH   2  10
HETATM   10  O   LIG     1       0.524   3.384  -2.567  1.00  0.00    -0.309 OA
BRANCH  10  11
HETATM   11  C   LIG     1       0.606   2.275  -1.745  1.00  0.00     0.076 A 
HETATM   12  C   LIG     1       1.819   2.081  -1.071  1.00  0.00     0.039 A 
HETATM   13  C   LIG     1       1.992   0.980  -0.223  1.00  0.00     0.027 A 
HETATM   14  C   LIG     1       0.946   0.068  -0.055  1.00  0.00     0.074 A 
HETATM   15  C   LIG     1      -0.273   0.262  -0.707  1.00  0.00     0.027 A 
HETATM   16  C   LIG     1      -0.451   1.387  -1.516  1.00  0.00     0.039 A 
BRANCH  14  17
HETATM   17  S   LIG     1       1.169  -1.368   0.961  1.00  0.00     0.262 S 
HETATM   18  O   LIG     1       2.491  -1.335   1.550  1.00  0.00    -0.206 OA
HETATM   19  O   LIG     1       0.652  -2.516   0.248  1.00  0.00    -0.206 OA
HETATM   20 CL   LIG     1      -0.129  -1.014   2.500  1.00  0.00     0.024 Cl
ENDBRANCH  14  17
ENDBRANCH  10  11
ENDBRANCH   2  10
TORSDOF 3
