REMARK  1 active torsions:
REMARK  status: ('A' for Active; 'I' for Inactive)
REMARK    1  A    between atoms: C_1  and  S_2 
ROOT
HETATM    1  C   LIG     1      -0.315  -1.196   0.043  1.00  0.00     0.117 A 
HETATM    2  S   LIG     1       1.336  -0.819   0.299  1.00  0.00    -0.068 SA
HETATM    3  C   LIG     1      -1.075  -0.055  -0.149  1.00  0.00     0.053 A 
HETATM    4  C   LIG     1       1.038   0.848   0.153  1.00  0.00     0.070 A 
HETATM    5  C   LIG     1      -0.284   1.123  -0.084  1.00  0.00     0.037 A 
HETATM    6 BR   LIG     1       2.410   2.118   0.309  1.00  0.00    -0.042 Br
HETATM    7 BR   LIG     1      -1.077   2.822  -0.315  1.00  0.00    -0.049 Br
ENDROOT
BRANCH   1   8
HETATM    8  S   LIG     1      -0.743  -2.916   0.074  1.00  0.00     0.268 S 
HETATM    9  O   LIG     1      -0.342  -3.416   1.371  1.00  0.00    -0.205 OA
HETATM   10  O   LIG     1      -2.106  -2.978  -0.410  1.00  0.00    -0.205 OA
HETATM   11 CL   LIG     1       0.393  -3.890  -1.315  1.00  0.00     0.024 Cl
ENDBRANCH   1   8
TORSDOF 1
