REMARK  1 active torsions:
REMARK  status: ('A' for Active; 'I' for Inactive)
REMARK    1  A    between atoms: C_3  and  S_8 
ROOT
HETATM    1  S   LIG     1       1.205   0.910   0.173  1.00  0.00    -0.064 SA
HETATM    2  C   LIG     1       1.005  -0.779   0.219  1.00  0.00     0.099 A 
HETATM    3  C   LIG     1      -0.302  -1.164   0.053  1.00  0.00     0.105 A 
HETATM    4  C   LIG     1      -1.165  -0.034  -0.129  1.00  0.00     0.058 A 
HETATM    5  C   LIG     1      -0.453   1.137  -0.080  1.00  0.00     0.077 A 
HETATM    6 CL   LIG     1      -1.081   2.725  -0.246  1.00  0.00    -0.076 Cl
HETATM    7 CL   LIG     1       2.403  -1.750   0.459  1.00  0.00    -0.075 Cl
ENDROOT
BRANCH   3   8
HETATM    8  S   LIG     1      -0.850  -2.796   0.045  1.00  0.00     0.264 S 
HETATM    9 CL   LIG     1      -0.299  -3.690   1.793  1.00  0.00     0.024 Cl
HETATM   10  O   LIG     1      -2.295  -2.709   0.075  1.00  0.00    -0.206 OA
HETATM   11  O   LIG     1      -0.117  -3.439  -1.022  1.00  0.00    -0.206 OA
ENDBRANCH   3   8
TORSDOF 1
