REMARK  1 active torsions:
REMARK  status: ('A' for Active; 'I' for Inactive)
REMARK    1  A    between atoms: C_3  and  S_8 
ROOT
HETATM    1  S   LIG     1      -0.428  -1.397   0.210  1.00  0.00    -0.063 SA
HETATM    2  C   LIG     1       1.102  -0.651   0.244  1.00  0.00     0.100 A 
HETATM    3  C   LIG     1       1.052   0.707   0.016  1.00  0.00     0.122 A 
HETATM    4  C   LIG     1      -0.308   1.136  -0.141  1.00  0.00     0.064 A 
HETATM    5  C   LIG     1      -1.190   0.087  -0.066  1.00  0.00     0.095 A 
HETATM    6 CL   LIG     1      -2.905   0.114  -0.208  1.00  0.00    -0.075 Cl
HETATM    7 CL   LIG     1       2.438  -1.690   0.562  1.00  0.00    -0.074 Cl
HETATM    8 BR   LIG     1      -0.857   2.934  -0.399  1.00  0.00    -0.047 Br
ENDROOT
BRANCH   3   9
HETATM    9  S   LIG     1       2.417   1.759  -0.024  1.00  0.00     0.265 S 
HETATM   10 CL   LIG     1       2.409   2.789  -1.789  1.00  0.00     0.024 Cl
HETATM   11  O   LIG     1       2.179   2.721   1.029  1.00  0.00    -0.206 OA
HETATM   12  O   LIG     1       3.603   0.936  -0.083  1.00  0.00    -0.206 OA
ENDBRANCH   3   9
TORSDOF 1
