REMARK  2 active torsions:
REMARK  status: ('A' for Active; 'I' for Inactive)
REMARK    1  A    between atoms: S_1  and  C_3 
REMARK    2  A    between atoms: S_2  and  C_3 
ROOT
HETATM    1  C   LIG     1       0.427   0.805  -1.686  1.00  0.00     0.296 C 
ENDROOT
BRANCH   1   2
HETATM    2  S   LIG     1       0.904   2.462  -1.912  1.00  0.00     0.243 S 
HETATM    3  O   LIG     1       2.348   2.527  -1.985  1.00  0.00    -0.210 OA
HETATM    4  O   LIG     1       0.190   3.251  -0.923  1.00  0.00    -0.210 OA
HETATM    5 CL   LIG     1       0.229   3.181  -3.701  1.00  0.00     0.019 Cl
ENDBRANCH   1   2
BRANCH   1   6
HETATM    6  S   LIG     1       0.969  -0.305  -2.926  1.00  0.00     0.155 S 
HETATM    7  O   LIG     1       0.614  -1.633  -2.454  1.00  0.00    -0.227 OA
HETATM    8  O   LIG     1       0.473   0.150  -4.207  1.00  0.00    -0.227 OA
HETATM    9  C   LIG     1       2.747  -0.240  -2.958  1.00  0.00     0.162 C 
ENDBRANCH   1   6
TORSDOF 2
