REMARK  1 active torsions:
REMARK  status: ('A' for Active; 'I' for Inactive)
REMARK    1  A    between atoms: C_1  and  S_2 
ROOT
HETATM    1  C   LIG     1      -0.139  -1.207  -0.083  1.00  0.00     0.138 A 
HETATM    2  C   LIG     1       1.096  -0.595   0.244  1.00  0.00     0.048 A 
HETATM    3  N   LIG     1       0.992   0.744   0.250  1.00  0.00    -0.301 N 
ATOM      4  HN  LIG     1       1.725   1.427   0.441  1.00  0.00     0.187 HD
HETATM    5  N   LIG     1      -0.301   0.983  -0.054  1.00  0.00    -0.284 N 
HETATM    6  C   LIG     1      -1.004  -0.162  -0.275  1.00  0.00     0.144 A 
HETATM    7 CL   LIG     1      -2.650  -0.103  -0.700  1.00  0.00    -0.061 Cl
HETATM    8  C   LIG     1       2.407  -1.222   0.556  1.00  0.00     0.071 C 
HETATM    9  C   LIG     1      -0.772   2.347  -0.110  1.00  0.00     0.179 C 
ENDROOT
BRANCH   1  10
HETATM   10  S   LIG     1      -0.490  -2.868  -0.215  1.00  0.00     0.267 S 
HETATM   11  O   LIG     1       0.772  -3.568  -0.095  1.00  0.00    -0.206 OA
HETATM   12  O   LIG     1      -1.607  -3.101   0.672  1.00  0.00    -0.206 OA
HETATM   13 CL   LIG     1      -1.153  -3.234  -2.111  1.00  0.00     0.024 Cl
ENDBRANCH   1  10
TORSDOF 1
