REMARK  3 active torsions:
REMARK  status: ('A' for Active; 'I' for Inactive)
REMARK    1  A    between atoms: S_1  and  C_3 
REMARK    2  A    between atoms: C_2  and  C_5 
REMARK    3  A    between atoms: C_6  and  O_14 
ROOT
HETATM    1  C   LIG     1      -1.345  -3.123  -0.573  1.00  0.00     0.075 A 
HETATM    2  C   LIG     1       0.446  -1.562  -0.104  1.00  0.00     0.075 A 
HETATM    3  C   LIG     1      -0.882  -1.803  -0.476  1.00  0.00     0.046 A 
HETATM    4  C   LIG     1      -0.470  -4.182  -0.287  1.00  0.00     0.082 A 
HETATM    5  C   LIG     1       1.310  -2.620   0.195  1.00  0.00     0.027 A 
HETATM    6  C   LIG     1       0.848  -3.932   0.098  1.00  0.00     0.039 A 
ENDROOT
BRANCH   2   7
HETATM    7  S   LIG     1       1.031   0.105   0.044  1.00  0.00     0.262 S 
HETATM    8  O   LIG     1       2.061   0.149   1.060  1.00  0.00    -0.206 OA
HETATM    9  O   LIG     1      -0.102   1.005   0.032  1.00  0.00    -0.206 OA
HETATM   10 CL   LIG     1       1.978   0.366  -1.746  1.00  0.00     0.024 Cl
ENDBRANCH   2   7
BRANCH   1  11
HETATM   11  C   LIG     1      -2.739  -3.420  -0.970  1.00  0.00     0.212 C 
HETATM   12  O   LIG     1      -3.199  -4.544  -1.072  1.00  0.00    -0.644 OA
HETATM   13  O   LIG     1      -3.473  -2.323  -1.215  1.00  0.00    -0.644 OA
ENDBRANCH   1  11
BRANCH   4  14
HETATM   14  O   LIG     1      -0.831  -5.501  -0.358  1.00  0.00    -0.360 OA
ATOM     15  HO  LIG     1      -0.239  -6.218  -0.164  1.00  0.00     0.217 HD
ENDBRANCH   4  14
TORSDOF 3
