REMARK  3 active torsions:
REMARK  status: ('A' for Active; 'I' for Inactive)
REMARK    1  A    between atoms: C_1  and  S_2 
REMARK    2  A    between atoms: C_9  and  C_10 
REMARK    3  A    between atoms: C_10  and  O_12 
ROOT
HETATM    1  C   LIG     1      -0.324  -1.181   0.042  1.00  0.00     0.098 A 
HETATM    2  C   LIG     1      -1.270  -0.105   0.003  1.00  0.00     0.033 A 
HETATM    3  C   LIG     1      -0.659   1.126   0.008  1.00  0.00     0.052 A 
HETATM    4  S   LIG     1       1.038   0.992   0.057  1.00  0.00    -0.094 SA
HETATM    5  C   LIG     1       0.986  -0.730   0.035  1.00  0.00     0.102 A 
ENDROOT
BRANCH   1   6
HETATM    6  S   LIG     1      -0.812  -2.848   0.035  1.00  0.00     0.263 S 
HETATM    7  O   LIG     1      -2.259  -2.812  -0.016  1.00  0.00    -0.206 OA
HETATM    8  O   LIG     1      -0.016  -3.486  -0.989  1.00  0.00    -0.206 OA
HETATM    9 CL   LIG     1      -0.341  -3.673   1.838  1.00  0.00     0.024 Cl
ENDBRANCH   1   6
BRANCH   5  10
HETATM   10  C   LIG     1       2.219  -1.499   0.007  1.00  0.00     0.301 C 
HETATM   11  O   LIG     1       2.339  -2.655   0.381  1.00  0.00    -0.259 OA
BRANCH  10  12
HETATM   12  O   LIG     1       3.217  -0.763  -0.560  1.00  0.00    -0.322 OA
HETATM   13  C   LIG     1       4.371  -1.500  -0.957  1.00  0.00     0.213 C 
ENDBRANCH  10  12
ENDBRANCH   5  10
TORSDOF 3
