REMARK  2 active torsions:
REMARK  status: ('A' for Active; 'I' for Inactive)
REMARK    1  A    between atoms: S_1  and  C_2 
REMARK    2  A    between atoms: N_4  and  C_6 
REMARK       I    between atoms: N_4  and  C_10 
ROOT
HETATM    1  C   LIG     1       0.568  -1.236   0.176  1.00  0.00     0.076 A 
HETATM    2  C   LIG     1       1.521  -2.252   0.276  1.00  0.00     0.050 A 
HETATM    3  C   LIG     1      -0.271  -3.914   0.224  1.00  0.00     0.056 A 
HETATM    4  C   LIG     1       1.097  -3.583   0.291  1.00  0.00     0.062 A 
HETATM    5  C   LIG     1      -0.789  -1.544   0.057  1.00  0.00     0.027 A 
HETATM    6  C   LIG     1      -1.203  -2.879   0.089  1.00  0.00     0.033 A 
HETATM    7 CL   LIG     1       2.303  -4.817   0.434  1.00  0.00    -0.082 Cl
ENDROOT
BRANCH   3   8
HETATM    8  N   LIG     1      -0.645  -5.277   0.286  1.00  0.00    -0.326 N 
HETATM    9  C   LIG     1      -1.909  -5.783   0.519  1.00  0.00     0.218 C 
HETATM   10  O   LIG     1      -2.925  -5.131   0.735  1.00  0.00    -0.274 OA
HETATM   11  C   LIG     1      -1.950  -7.289   0.476  1.00  0.00     0.117 C 
ATOM     12  HN  LIG     1       0.099  -5.960   0.143  1.00  0.00     0.169 HD
ENDBRANCH   3   8
BRANCH   1  13
HETATM   13  S   LIG     1       1.082   0.457   0.154  1.00  0.00     0.262 S 
HETATM   14  O   LIG     1       0.155   1.216  -0.659  1.00  0.00    -0.206 OA
HETATM   15  O   LIG     1       2.516   0.512  -0.027  1.00  0.00    -0.206 OA
HETATM   16 CL   LIG     1       0.737   1.012   2.090  1.00  0.00     0.024 Cl
ENDBRANCH   1  13
TORSDOF 2
