REMARK  2 active torsions:
REMARK  status: ('A' for Active; 'I' for Inactive)
REMARK    1  A    between atoms: C_1  and  N_9 
REMARK    2  A    between atoms: C_6  and  S_7 
ROOT
HETATM    1  C   LIG     1      -1.417   0.179   0.250  1.00  0.00     0.037 A 
HETATM    2  C   LIG     1      -0.643   1.339   0.099  1.00  0.00     0.031 A 
HETATM    3  C   LIG     1      -0.747  -1.058   0.223  1.00  0.00     0.031 A 
HETATM    4  C   LIG     1       0.749   1.277  -0.045  1.00  0.00     0.027 A 
HETATM    5  C   LIG     1       0.644  -1.133   0.078  1.00  0.00     0.027 A 
HETATM    6  C   LIG     1       1.387   0.039  -0.056  1.00  0.00     0.074 A 
ENDROOT
BRANCH   1   7
HETATM    7  N   LIG     1      -2.825   0.236   0.450  1.00  0.00    -0.318 N 
HETATM    8  C   LIG     1      -3.585   1.393   0.689  1.00  0.00     0.224 C 
HETATM    9  C   LIG     1      -4.988   0.960   1.043  1.00  0.00     0.105 C 
HETATM   10  O   LIG     1      -3.235   2.564   0.697  1.00  0.00    -0.273 OA
HETATM   11  C   LIG     1      -5.062  -0.454   0.507  1.00  0.00     0.029 C 
HETATM   12  C   LIG     1      -3.636  -0.949   0.622  1.00  0.00     0.133 C 
ENDBRANCH   1   7
BRANCH   6  13
HETATM   13  S   LIG     1       3.152  -0.042  -0.154  1.00  0.00     0.262 S 
HETATM   14 CL   LIG     1       3.454  -0.082  -2.173  1.00  0.00     0.024 Cl
HETATM   15  O   LIG     1       3.711   1.210   0.313  1.00  0.00    -0.206 OA
HETATM   16  O   LIG     1       3.592  -1.329   0.341  1.00  0.00    -0.206 OA
ENDBRANCH   6  13
TORSDOF 2
