REMARK  3 active torsions:
REMARK  status: ('A' for Active; 'I' for Inactive)
REMARK    1  A    between atoms: S_1  and  C_4 
REMARK    2  A    between atoms: C_2  and  C_5 
REMARK    3  A    between atoms: C_3  and  C_6 
ROOT
HETATM    1  C   LIG     1       0.480  -1.094   1.284  1.00  0.00     0.076 A 
HETATM    2  C   LIG     1      -0.469  -1.702   3.433  1.00  0.00     0.050 A 
HETATM    3  C   LIG     1       0.495  -3.422   1.970  1.00  0.00     0.050 A 
HETATM    4  C   LIG     1      -0.146  -0.725   2.480  1.00  0.00     0.041 A 
HETATM    5  C   LIG     1       0.811  -2.430   1.030  1.00  0.00     0.041 A 
HETATM    6  C   LIG     1      -0.146  -3.046   3.165  1.00  0.00     0.032 A 
ENDROOT
BRANCH   1   7
HETATM    7  S   LIG     1       0.919   0.153   0.097  1.00  0.00     0.262 S 
HETATM    8  O   LIG     1       2.089  -0.293  -0.628  1.00  0.00    -0.206 OA
HETATM    9  O   LIG     1       0.828   1.452   0.727  1.00  0.00    -0.206 OA
HETATM   10 CL   LIG     1      -0.647   0.041  -1.208  1.00  0.00     0.024 Cl
ENDBRANCH   1   7
BRANCH   2  11
HETATM   11  C   LIG     1      -1.147  -1.336   4.736  1.00  0.00     0.417 C 
HETATM   12  F   LIG     1      -1.402  -0.005   4.858  1.00  0.00    -0.166 F 
HETATM   13  F   LIG     1      -2.344  -1.965   4.886  1.00  0.00    -0.166 F 
HETATM   14  F   LIG     1      -0.401  -1.680   5.820  1.00  0.00    -0.166 F 
ENDBRANCH   2  11
BRANCH   3  15
HETATM   15  C   LIG     1       0.835  -4.876   1.723  1.00  0.00     0.417 C 
HETATM   16  F   LIG     1       1.437  -5.094   0.522  1.00  0.00    -0.166 F 
HETATM   17  F   LIG     1       1.679  -5.376   2.666  1.00  0.00    -0.166 F 
HETATM   18  F   LIG     1      -0.267  -5.673   1.742  1.00  0.00    -0.166 F 
ENDBRANCH   3  15
TORSDOF 3
