REMARK  1 active torsions:
REMARK  status: ('A' for Active; 'I' for Inactive)
REMARK    1  A    between atoms: C_2  and  S_7 
ROOT
HETATM    1  S   LIG     1       1.229  -0.840   0.349  1.00  0.00    -0.065 SA
HETATM    2  C   LIG     1      -0.424  -1.184   0.055  1.00  0.00     0.116 A 
HETATM    3  C   LIG     1      -1.148  -0.028  -0.184  1.00  0.00     0.034 A 
HETATM    4  C   LIG     1      -0.334   1.142  -0.122  1.00  0.00     0.033 A 
HETATM    5  C   LIG     1       0.968   0.820   0.160  1.00  0.00     0.075 A 
HETATM    6 CL   LIG     1       2.280   1.914   0.327  1.00  0.00    -0.076 Cl
ENDROOT
BRANCH   2   7
HETATM    7  S   LIG     1      -0.891  -2.893   0.104  1.00  0.00     0.268 S 
HETATM    8 CL   LIG     1      -0.359  -3.659   1.922  1.00  0.00     0.024 Cl
HETATM    9  O   LIG     1      -2.339  -2.895   0.080  1.00  0.00    -0.205 OA
HETATM   10  O   LIG     1      -0.087  -3.571  -0.889  1.00  0.00    -0.205 OA
ENDBRANCH   2   7
TORSDOF 1
