REMARK  1 active torsions:
REMARK  status: ('A' for Active; 'I' for Inactive)
REMARK    1  A    between atoms: S_1  and  C_2 
ROOT
HETATM    1  C   LIG     1       0.407   1.441   0.623  1.00  0.00     0.113 A 
HETATM    2  C   LIG     1       0.845   2.568  -0.058  1.00  0.00     0.139 A 
HETATM    3  F   LIG     1       1.682   2.468  -1.098  1.00  0.00    -0.204 F 
HETATM    4  C   LIG     1      -0.468   1.564   1.707  1.00  0.00     0.028 A 
HETATM    5  C   LIG     1       0.408   3.833   0.327  1.00  0.00     0.044 A 
HETATM    6  C   LIG     1      -0.906   2.832   2.094  1.00  0.00     0.002 A 
HETATM    7  C   LIG     1      -0.469   3.965   1.405  1.00  0.00     0.003 A 
ENDROOT
BRANCH   1   8
HETATM    8  S   LIG     1       0.986  -0.138   0.120  1.00  0.00     0.265 S 
HETATM    9  O   LIG     1       0.235  -1.153   0.832  1.00  0.00    -0.206 OA
HETATM   10  O   LIG     1       2.433  -0.128   0.091  1.00  0.00    -0.206 OA
HETATM   11 CL   LIG     1       0.349  -0.279  -1.818  1.00  0.00     0.024 Cl
ENDBRANCH   1   8
TORSDOF 1
