REMARK  2 active torsions:
REMARK  status: ('A' for Active; 'I' for Inactive)
REMARK    1  A    between atoms: C_2  and  S_7 
REMARK    2  A    between atoms: C_4  and  N_11 
ROOT
HETATM    1  S   LIG     1       1.413  -0.806   0.149  1.00  0.00    -0.062 SA
HETATM    2  C   LIG     1      -0.245  -1.188   0.008  1.00  0.00     0.119 A 
HETATM    3  C   LIG     1      -1.019  -0.044  -0.065  1.00  0.00     0.070 A 
HETATM    4  C   LIG     1      -0.239   1.165   0.007  1.00  0.00     0.133 A 
HETATM    5  C   LIG     1       1.100   0.867   0.115  1.00  0.00     0.109 A 
HETATM    6 CL   LIG     1       2.474   1.903   0.211  1.00  0.00    -0.074 Cl
ENDROOT
BRANCH   2   7
HETATM    7  S   LIG     1      -0.653  -2.916  -0.013  1.00  0.00     0.268 S 
HETATM    8 CL   LIG     1       0.322  -3.782  -1.583  1.00  0.00     0.024 Cl
HETATM    9  O   LIG     1      -0.098  -3.480   1.197  1.00  0.00    -0.205 OA
HETATM   10  O   LIG     1      -2.063  -2.965  -0.337  1.00  0.00    -0.205 OA
ENDBRANCH   2   7
BRANCH   4  11
HETATM   11  N   LIG     1      -0.810   2.491  -0.036  1.00  0.00    -0.113 N 
HETATM   12  O   LIG     1      -2.036   2.550  -0.193  1.00  0.00    -0.532 OA
HETATM   13  O   LIG     1      -0.058   3.462   0.088  1.00  0.00    -0.532 OA
ENDBRANCH   4  11
TORSDOF 2
