REMARK  1 active torsions:
REMARK  status: ('A' for Active; 'I' for Inactive)
REMARK    1  A    between atoms: C_2  and  S_7 
ROOT
HETATM    1  S   LIG     1       1.236  -0.858   0.349  1.00  0.00    -0.070 SA
HETATM    2  C   LIG     1      -0.419  -1.190   0.056  1.00  0.00     0.116 A 
HETATM    3  C   LIG     1      -1.134  -0.029  -0.184  1.00  0.00     0.034 A 
HETATM    4  C   LIG     1      -0.312   1.136  -0.122  1.00  0.00     0.028 A 
HETATM    5  C   LIG     1       0.990   0.807   0.159  1.00  0.00     0.052 A 
HETATM    6 BR   LIG     1       2.364   2.068   0.320  1.00  0.00    -0.043 Br
ENDROOT
BRANCH   2   7
HETATM    7  S   LIG     1      -0.899  -2.896   0.107  1.00  0.00     0.268 S 
HETATM    8 CL   LIG     1      -0.374  -3.662   1.925  1.00  0.00     0.024 Cl
HETATM    9  O   LIG     1      -2.347  -2.887   0.082  1.00  0.00    -0.205 OA
HETATM   10  O   LIG     1      -0.100  -3.582  -0.885  1.00  0.00    -0.205 OA
ENDBRANCH   2   7
TORSDOF 1
