REMARK  4 active torsions:
REMARK  status: ('A' for Active; 'I' for Inactive)
REMARK    1  A    between atoms: C_2  and  S_6 
REMARK    2  A    between atoms: C_5  and  C_10 
REMARK    3  A    between atoms: C_10  and  N_11 
REMARK       I    between atoms: N_11  and  C_13 
REMARK    4  A    between atoms: C_13  and  C_14 
ROOT
HETATM    1  N   LIG     1       2.117   2.622  -1.109  1.00  0.00    -0.352 N 
ATOM      2  HN  LIG     1       2.170   2.381  -2.099  1.00  0.00     0.163 HD
HETATM    3  C   LIG     1       2.146   3.948  -0.736  1.00  0.00     0.251 C 
HETATM    4  O   LIG     1       2.090   4.321   0.430  1.00  0.00    -0.268 OA
ENDROOT
BRANCH   1   5
HETATM    5  C   LIG     1       2.013   1.563  -0.126  1.00  0.00     0.169 C 
BRANCH   5   6
HETATM    6  C   LIG     1       2.689   0.338  -0.669  1.00  0.00     0.002 A 
HETATM    7  S   LIG     1       1.809  -1.114  -0.904  1.00  0.00    -0.080 SA
HETATM    8  C   LIG     1       3.188  -1.950  -1.475  1.00  0.00     0.115 A 
HETATM    9  C   LIG     1       4.304  -1.137  -1.483  1.00  0.00     0.033 A 
HETATM   10  C   LIG     1       4.018   0.179  -1.018  1.00  0.00     0.018 A 
BRANCH   8  11
HETATM   11  S   LIG     1       2.942  -3.648  -1.936  1.00  0.00     0.268 S 
HETATM   12 CL   LIG     1       2.286  -4.667  -0.292  1.00  0.00     0.024 Cl
HETATM   13  O   LIG     1       1.864  -3.668  -2.899  1.00  0.00    -0.205 OA
HETATM   14  O   LIG     1       4.265  -4.167  -2.225  1.00  0.00    -0.205 OA
ENDBRANCH   8  11
ENDBRANCH   5   6
ENDBRANCH   1   5
BRANCH   3  15
HETATM   15  C   LIG     1       2.308   4.948  -1.833  1.00  0.00     0.032 A 
HETATM   16  C   LIG     1       1.831   4.716  -3.131  1.00  0.00     0.018 A 
HETATM   17  C   LIG     1       2.025   5.675  -4.132  1.00  0.00     0.025 A 
HETATM   18  C   LIG     1       2.678   6.870  -3.837  1.00  0.00     0.034 A 
HETATM   19  C   LIG     1       3.137   7.121  -2.545  1.00  0.00     0.025 A 
HETATM   20 CL   LIG     1       2.909   8.045  -5.072  1.00  0.00    -0.084 Cl
HETATM   21  C   LIG     1       2.950   6.162  -1.544  1.00  0.00     0.018 A 
ENDBRANCH   3  15
TORSDOF 4
