REMARK  3 active torsions:
REMARK  status: ('A' for Active; 'I' for Inactive)
REMARK    1  A    between atoms: C_2  and  S_7 
REMARK    2  A    between atoms: C_5  and  C_6 
REMARK    3  A    between atoms: C_12  and  C_17 
ROOT
HETATM    1  C   LIG     1       2.103   1.698   0.009  1.00  0.00     0.067 A 
HETATM    2  C   LIG     1       2.179   3.097  -0.176  1.00  0.00     0.068 A 
HETATM    3  C   LIG     1       3.520   3.408  -0.080  1.00  0.00     0.136 A 
HETATM    4  N   LIG     1       4.157   2.222   0.149  1.00  0.00    -0.292 N 
HETATM    5  N   LIG     1       3.318   1.169   0.206  1.00  0.00    -0.297 N 
ATOM      6  HN  LIG     1       3.555   0.189   0.364  1.00  0.00     0.187 HD
HETATM    7  C   LIG     1       5.575   2.006   0.334  1.00  0.00     0.178 C 
ENDROOT
BRANCH   1   8
HETATM    8  C   LIG     1       0.857   0.865  -0.007  1.00  0.00     0.034 A 
HETATM    9  S   LIG     1      -0.711   1.491  -0.265  1.00  0.00    -0.075 SA
HETATM   10  C   LIG     1      -1.431  -0.054  -0.141  1.00  0.00     0.116 A 
HETATM   11  C   LIG     1      -0.488  -1.033   0.107  1.00  0.00     0.033 A 
HETATM   12  C   LIG     1       0.834  -0.502   0.183  1.00  0.00     0.023 A 
BRANCH  10  13
HETATM   13  S   LIG     1      -3.191  -0.114  -0.340  1.00  0.00     0.268 S 
HETATM   14  O   LIG     1      -3.755   0.719   0.702  1.00  0.00    -0.205 OA
HETATM   15 CL   LIG     1      -3.674   0.767  -2.120  1.00  0.00     0.024 Cl
HETATM   16  O   LIG     1      -3.518  -1.516  -0.490  1.00  0.00    -0.205 OA
ENDBRANCH  10  13
ENDBRANCH   1   8
BRANCH   3  17
HETATM   17  C   LIG     1       4.240   4.687  -0.179  1.00  0.00     0.434 C 
HETATM   18  F   LIG     1       3.403   5.729  -0.404  1.00  0.00    -0.165 F 
HETATM   19  F   LIG     1       4.925   4.964   0.957  1.00  0.00    -0.165 F 
HETATM   20  F   LIG     1       5.143   4.676  -1.190  1.00  0.00    -0.165 F 
ENDBRANCH   3  17
TORSDOF 3
