REMARK  2 active torsions:
REMARK  status: ('A' for Active; 'I' for Inactive)
REMARK    1  A    between atoms: C_2  and  S_6 
REMARK    2  A    between atoms: C_12  and  C_17 
ROOT
HETATM    1  S   LIG     1       1.177  -1.053   0.440  1.00  0.00    -0.075 SA
HETATM    2  C   LIG     1       1.420  -2.683   0.001  1.00  0.00     0.116 A 
HETATM    3  C   LIG     1       2.676  -2.879  -0.536  1.00  0.00     0.033 A 
HETATM    4  C   LIG     1       3.425  -1.667  -0.613  1.00  0.00     0.023 A 
HETATM    5  C   LIG     1       2.737  -0.580  -0.108  1.00  0.00     0.034 A 
HETATM    6  C   LIG     1       3.156   0.796  -0.032  1.00  0.00     0.069 A 
HETATM    7  C   LIG     1       2.384   1.941  -0.122  1.00  0.00     0.068 A 
HETATM    8  C   LIG     1       3.275   3.038   0.004  1.00  0.00     0.134 A 
HETATM    9  N   LIG     1       4.537   2.600   0.167  1.00  0.00    -0.294 N 
ATOM     10  HN  LIG     1       5.382   3.162   0.269  1.00  0.00     0.187 HD
HETATM   11  N   LIG     1       4.438   1.255   0.165  1.00  0.00    -0.295 N 
HETATM   12  C   LIG     1       5.639   0.490   0.412  1.00  0.00     0.178 C 
ENDROOT
BRANCH   8  13
HETATM   13  C   LIG     1       2.914   4.499  -0.035  1.00  0.00     0.434 C 
HETATM   14  F   LIG     1       1.575   4.682  -0.212  1.00  0.00    -0.165 F 
HETATM   15  F   LIG     1       3.238   5.148   1.115  1.00  0.00    -0.165 F 
HETATM   16  F   LIG     1       3.526   5.160  -1.053  1.00  0.00    -0.165 F 
ENDBRANCH   8  13
BRANCH   2  17
HETATM   17  S   LIG     1       0.065  -3.788   0.292  1.00  0.00     0.268 S 
HETATM   18  O   LIG     1      -0.222  -3.733   1.708  1.00  0.00    -0.205 OA
HETATM   19 CL   LIG     1      -1.581  -3.059  -0.675  1.00  0.00     0.024 Cl
HETATM   20  O   LIG     1       0.417  -5.015  -0.395  1.00  0.00    -0.205 OA
ENDBRANCH   2  17
TORSDOF 2
