REMARK  3 active torsions:
REMARK  status: ('A' for Active; 'I' for Inactive)
REMARK    1  A    between atoms: C_2  and  S_6 
REMARK    2  A    between atoms: C_5  and  C_10 
REMARK    3  A    between atoms: C_13  and  S_18 
ROOT
HETATM    1  C   LIG     1       2.095   1.786   0.017  1.00  0.00     0.052 A 
HETATM    2  N   LIG     1       3.244   1.098   0.150  1.00  0.00    -0.336 N 
ATOM      3  HN  LIG     1       3.253   0.080   0.208  1.00  0.00     0.168 HD
HETATM    4  C   LIG     1       4.377   1.816   0.203  1.00  0.00     0.144 A 
HETATM    5  N   LIG     1       4.437   3.156   0.147  1.00  0.00    -0.347 N 
ATOM      6  HN  LIG     1       5.325   3.656   0.193  1.00  0.00     0.167 HD
HETATM    7  C   LIG     1       3.268   3.803   0.028  1.00  0.00     0.092 A 
HETATM    8  C   LIG     1       2.056   3.164  -0.043  1.00  0.00     0.048 A 
ENDROOT
BRANCH   1   9
HETATM    9  C   LIG     1       0.892   0.944  -0.049  1.00  0.00     0.033 A 
HETATM   10  S   LIG     1      -0.481   1.458  -0.944  1.00  0.00    -0.075 SA
HETATM   11  C   LIG     1      -1.368   0.053  -0.562  1.00  0.00     0.116 A 
HETATM   12  C   LIG     1      -0.633  -0.811   0.223  1.00  0.00     0.033 A 
HETATM   13  C   LIG     1       0.670  -0.304   0.510  1.00  0.00     0.023 A 
BRANCH  11  14
HETATM   14  S   LIG     1      -3.009  -0.024  -1.228  1.00  0.00     0.268 S 
HETATM   15 CL   LIG     1      -2.879   0.112  -3.263  1.00  0.00     0.024 Cl
HETATM   16  O   LIG     1      -3.475  -1.366  -0.949  1.00  0.00    -0.205 OA
HETATM   17  O   LIG     1      -3.700   1.160  -0.773  1.00  0.00    -0.205 OA
ENDBRANCH  11  14
ENDBRANCH   1   9
BRANCH   4  18
HETATM   18  S   LIG     1       5.924   0.957   0.369  1.00  0.00    -0.098 SA
HETATM   19  C   LIG     1       5.325  -0.749   0.368  1.00  0.00     0.099 C 
ENDBRANCH   4  18
TORSDOF 3
