REMARK  3 active torsions:
REMARK  status: ('A' for Active; 'I' for Inactive)
REMARK    1  A    between atoms: C_2  and  S_6 
REMARK    2  A    between atoms: C_4  and  S_10 
REMARK    3  A    between atoms: S_10  and  C_11 
ROOT
HETATM    1  S   LIG     1       2.127  -1.067   0.908  1.00  0.00    -0.087 SA
HETATM    2  C   LIG     1       0.476  -1.515   0.990  1.00  0.00     0.116 A 
HETATM    3  C   LIG     1      -0.354  -0.410   0.938  1.00  0.00     0.056 A 
HETATM    4  C   LIG     1       0.383   0.811   0.845  1.00  0.00     0.072 A 
HETATM    5  C   LIG     1       1.744   0.597   0.803  1.00  0.00     0.074 A 
ENDROOT
BRANCH   4   6
HETATM    6  S   LIG     1      -0.338   2.389   0.773  1.00  0.00     0.207 S 
HETATM    7  O   LIG     1       0.226   2.963  -0.431  1.00  0.00    -0.217 OA
HETATM    8  O   LIG     1      -1.758   2.164   0.945  1.00  0.00    -0.217 OA
BRANCH   6   9
HETATM    9  C   LIG     1       0.270   3.264   2.184  1.00  0.00     0.064 A 
HETATM   10  C   LIG     1       1.019   4.432   2.007  1.00  0.00     0.024 A 
HETATM   11  C   LIG     1       1.489   5.122   3.124  1.00  0.00     0.002 A 
HETATM   12  C   LIG     1       1.207   4.650   4.407  1.00  0.00     0.000 A 
HETATM   13  C   LIG     1       0.450   3.489   4.579  1.00  0.00     0.002 A 
HETATM   14  C   LIG     1      -0.023   2.791   3.468  1.00  0.00     0.024 A 
ENDBRANCH   6   9
ENDBRANCH   4   6
BRANCH   2  15
HETATM   15  S   LIG     1       0.147  -3.256   1.124  1.00  0.00     0.268 S 
HETATM   16 CL   LIG     1       0.950  -4.186  -0.507  1.00  0.00     0.024 Cl
HETATM   17  O   LIG     1       0.879  -3.727   2.279  1.00  0.00    -0.205 OA
HETATM   18  O   LIG     1      -1.290  -3.388   0.994  1.00  0.00    -0.205 OA
ENDBRANCH   2  15
TORSDOF 3
