REMARK  3 active torsions:
REMARK  status: ('A' for Active; 'I' for Inactive)
REMARK    1  A    between atoms: C_2  and  S_6 
REMARK    2  A    between atoms: C_5  and  S_10 
REMARK    3  A    between atoms: S_10  and  C_11 
ROOT
HETATM    1  S   LIG     1       0.775  -0.300  -1.716  1.00  0.00    -0.065 SA
HETATM    2  C   LIG     1      -0.663  -1.056  -1.180  1.00  0.00     0.116 A 
HETATM    3  C   LIG     1      -1.073  -0.557   0.043  1.00  0.00     0.034 A 
HETATM    4  C   LIG     1      -0.197   0.456   0.532  1.00  0.00     0.033 A 
HETATM    5  C   LIG     1       0.852   0.701  -0.333  1.00  0.00     0.106 A 
ENDROOT
BRANCH   5   6
HETATM    6  S   LIG     1       2.217   1.844  -0.262  1.00  0.00     0.213 S 
HETATM    7  O   LIG     1       1.953   2.668   0.901  1.00  0.00    -0.217 OA
HETATM    8  O   LIG     1       3.405   1.021  -0.366  1.00  0.00    -0.217 OA
BRANCH   6   9
HETATM    9  C   LIG     1       2.087   2.872  -1.697  1.00  0.00     0.064 A 
HETATM   10  C   LIG     1       3.126   2.892  -2.631  1.00  0.00     0.024 A 
HETATM   11  C   LIG     1       3.012   3.699  -3.763  1.00  0.00     0.002 A 
HETATM   12  C   LIG     1       1.869   4.477  -3.955  1.00  0.00     0.000 A 
HETATM   13  C   LIG     1       0.835   4.455  -3.017  1.00  0.00     0.002 A 
HETATM   14  C   LIG     1       0.940   3.652  -1.882  1.00  0.00     0.024 A 
ENDBRANCH   6   9
ENDBRANCH   5   6
BRANCH   2  15
HETATM   15  S   LIG     1      -1.333  -2.296  -2.260  1.00  0.00     0.268 S 
HETATM   16 CL   LIG     1       0.070  -3.763  -2.481  1.00  0.00     0.024 Cl
HETATM   17  O   LIG     1      -2.433  -2.894  -1.535  1.00  0.00    -0.205 OA
HETATM   18  O   LIG     1      -1.492  -1.668  -3.556  1.00  0.00    -0.205 OA
ENDBRANCH   2  15
TORSDOF 3
