REMARK  4 active torsions:
REMARK  status: ('A' for Active; 'I' for Inactive)
REMARK    1  A    between atoms: C_2  and  S_6 
REMARK    2  A    between atoms: C_5  and  C_10 
REMARK    3  A    between atoms: C_10  and  N_11 
REMARK       I    between atoms: N_11  and  C_13 
REMARK    4  A    between atoms: C_13  and  C_14 
ROOT
HETATM    1  C   LIG     1       1.565   2.107   0.242  1.00  0.00     0.169 C 
ENDROOT
BRANCH   1   2
HETATM    2  C   LIG     1       1.099   0.750  -0.191  1.00  0.00     0.002 A 
HETATM    3  S   LIG     1      -0.301   0.598  -1.169  1.00  0.00    -0.080 SA
HETATM    4  C   LIG     1      -0.131  -1.099  -1.285  1.00  0.00     0.115 A 
HETATM    5  C   LIG     1       0.953  -1.550  -0.556  1.00  0.00     0.033 A 
HETATM    6  C   LIG     1       1.665  -0.483   0.071  1.00  0.00     0.018 A 
BRANCH   4   7
HETATM    7  S   LIG     1      -1.330  -1.937  -2.291  1.00  0.00     0.268 S 
HETATM    8 CL   LIG     1      -3.184  -1.582  -1.512  1.00  0.00     0.024 Cl
HETATM    9  O   LIG     1      -1.295  -1.300  -3.592  1.00  0.00    -0.205 OA
HETATM   10  O   LIG     1      -1.080  -3.349  -2.102  1.00  0.00    -0.205 OA
ENDBRANCH   4   7
ENDBRANCH   1   2
BRANCH   1  11
HETATM   11  N   LIG     1       2.461   2.617  -0.768  1.00  0.00    -0.352 N 
HETATM   12  C   LIG     1       3.014   3.874  -0.666  1.00  0.00     0.251 C 
HETATM   13  O   LIG     1       2.803   4.631   0.273  1.00  0.00    -0.268 OA
ATOM     14  HN  LIG     1       2.689   2.035  -1.574  1.00  0.00     0.163 HD
BRANCH  12  15
HETATM   15  C   LIG     1       3.934   4.266  -1.772  1.00  0.00     0.032 A 
HETATM   16  C   LIG     1       4.984   5.153  -1.508  1.00  0.00     0.017 A 
HETATM   17  C   LIG     1       5.858   5.527  -2.533  1.00  0.00     0.001 A 
HETATM   18  C   LIG     1       5.677   5.026  -3.824  1.00  0.00     0.000 A 
HETATM   19  C   LIG     1       4.623   4.155  -4.094  1.00  0.00     0.001 A 
HETATM   20  C   LIG     1       3.750   3.777  -3.073  1.00  0.00     0.017 A 
ENDBRANCH  12  15
ENDBRANCH   1  11
TORSDOF 4
