REMARK  4 active torsions:
REMARK  status: ('A' for Active; 'I' for Inactive)
REMARK    1  A    between atoms: C_2  and  S_6 
REMARK    2  A    between atoms: C_3  and  O_8 
REMARK    3  A    between atoms: C_4  and  C_10 
REMARK    4  A    between atoms: C_10  and  O_12 
ROOT
HETATM    1  S   LIG     1      -1.306   1.843  -0.640  1.00  0.00    -0.085 SA
HETATM    2  C   LIG     1       0.238   1.453  -0.021  1.00  0.00     0.149 A 
HETATM    3  C   LIG     1       0.392   0.090   0.178  1.00  0.00     0.114 A 
HETATM    4  C   LIG     1      -0.812  -0.655  -0.128  1.00  0.00     0.081 A 
HETATM    5  C   LIG     1      -1.796   0.219  -0.591  1.00  0.00     0.071 A 
ENDROOT
BRANCH   2   6
HETATM    6  S   LIG     1       1.291   2.862   0.208  1.00  0.00     0.271 S 
HETATM    7  O   LIG     1       0.610   3.732   1.146  1.00  0.00    -0.205 OA
HETATM    8 CL   LIG     1       3.028   2.319   1.134  1.00  0.00     0.024 Cl
HETATM    9  O   LIG     1       1.675   3.290  -1.122  1.00  0.00    -0.205 OA
ENDBRANCH   2   6
BRANCH   3  10
HETATM   10  O   LIG     1       1.577  -0.327   0.690  1.00  0.00    -0.353 OA
HETATM   11  C   LIG     1       2.081  -1.571   0.228  1.00  0.00     0.210 C 
ENDBRANCH   3  10
BRANCH   4  12
HETATM   12  C   LIG     1      -1.132  -2.073   0.035  1.00  0.00     0.296 C 
HETATM   13  O   LIG     1      -0.626  -2.800   0.872  1.00  0.00    -0.259 OA
BRANCH  12  14
HETATM   14  O   LIG     1      -2.090  -2.487  -0.858  1.00  0.00    -0.322 OA
HETATM   15  C   LIG     1      -2.470  -3.859  -0.749  1.00  0.00     0.213 C 
ENDBRANCH  12  14
ENDBRANCH   4  12
TORSDOF 4
