REMARK  2 active torsions:
REMARK  status: ('A' for Active; 'I' for Inactive)
REMARK    1  A    between atoms: S_1  and  C_5 
REMARK    2  A    between atoms: N_2  and  C_3 
ROOT
HETATM    1  C   LIG     1       0.719   4.009   0.593  1.00  0.00     0.110 A 
HETATM    2  C   LIG     1       1.219   2.754   0.222  1.00  0.00     0.061 A 
HETATM    3  C   LIG     1       0.537   1.610   0.644  1.00  0.00     0.077 A 
HETATM    4  C   LIG     1      -0.442   4.147   1.379  1.00  0.00    -0.029 A 
HETATM    5  C   LIG     1      -0.631   1.716   1.405  1.00  0.00     0.025 A 
HETATM    6  C   LIG     1      -1.113   2.978   1.771  1.00  0.00     0.011 A 
HETATM    7  C   LIG     1      -0.992   5.484   1.793  1.00  0.00     0.050 C 
ENDROOT
BRANCH   3   8
HETATM    8  S   LIG     1       1.124   0.012   0.151  1.00  0.00     0.262 S 
HETATM    9  O   LIG     1       1.817   0.148  -1.113  1.00  0.00    -0.206 OA
HETATM   10  O   LIG     1       0.081  -0.964   0.378  1.00  0.00    -0.206 OA
HETATM   11 CL   LIG     1       2.558  -0.349   1.559  1.00  0.00     0.024 Cl
ENDBRANCH   3   8
BRANCH   1  12
HETATM   12  N   LIG     1       1.455   5.181   0.141  1.00  0.00    -0.115 N 
HETATM   13  O   LIG     1       2.652   5.242   0.453  1.00  0.00    -0.532 OA
HETATM   14  O   LIG     1       0.840   6.015  -0.535  1.00  0.00    -0.532 OA
ENDBRANCH   1  12
TORSDOF 2
