REMARK  1 active torsions:
REMARK  status: ('A' for Active; 'I' for Inactive)
REMARK    1  A    between atoms: C_1  and  S_13 
ROOT
HETATM    1  C   LIG     1      -0.913  -1.496  -0.004  1.00  0.00     0.127 A 
HETATM    2  C   LIG     1      -0.897   1.474  -0.043  1.00  0.00     0.036 A 
HETATM    3  C   LIG     1      -2.091  -0.716   0.004  1.00  0.00     0.059 A 
HETATM    4  C   LIG     1      -2.075   0.710  -0.025  1.00  0.00     0.028 A 
HETATM    5 CL   LIG     1      -3.673  -1.417   0.118  1.00  0.00    -0.083 Cl
HETATM    6  C   LIG     1       0.279  -0.750   0.020  1.00  0.00     0.109 A 
HETATM    7  C   LIG     1       0.281   0.712  -0.006  1.00  0.00     0.087 A 
HETATM    8  N   LIG     1       1.546   1.139   0.016  1.00  0.00    -0.239 N 
ATOM      9  HN  LIG     1       1.868   2.106  -0.006  1.00  0.00     0.197 HD
HETATM   10  O   LIG     1       2.328   0.003   0.074  1.00  0.00    -0.156 OA
HETATM   11  N   LIG     1       1.558  -1.142   0.083  1.00  0.00    -0.238 N 
ATOM     12  HN  LIG     1       1.898  -2.103   0.129  1.00  0.00     0.197 HD
ENDROOT
BRANCH   1  13
HETATM   13  S   LIG     1      -0.962  -3.239   0.012  1.00  0.00     0.266 S 
HETATM   14  O   LIG     1      -0.903  -3.672   1.391  1.00  0.00    -0.206 OA
HETATM   15  O   LIG     1      -1.981  -3.692  -0.911  1.00  0.00    -0.206 OA
HETATM   16 CL   LIG     1       0.764  -3.903  -0.862  1.00  0.00     0.024 Cl
ENDBRANCH   1  13
TORSDOF 1
