REMARK  3 active torsions:
REMARK  status: ('A' for Active; 'I' for Inactive)
REMARK    1  A    between atoms: C_2  and  S_6 
REMARK    2  A    between atoms: C_5  and  C_10 
REMARK    3  A    between atoms: C_12  and  C_16 
ROOT
HETATM    1  C   LIG     1       2.178   1.630  -0.052  1.00  0.00     0.074 A 
HETATM    2  C   LIG     1       3.577   1.439  -0.008  1.00  0.00     0.077 A 
HETATM    3  C   LIG     1       4.100   2.710  -0.063  1.00  0.00     0.184 A 
HETATM    4  O   LIG     1       3.080   3.606  -0.134  1.00  0.00    -0.233 OA
HETATM    5  N   LIG     1       1.872   2.932  -0.128  1.00  0.00    -0.260 N 
ATOM      6  HN  LIG     1       0.939   3.342  -0.172  1.00  0.00     0.195 HD
ENDROOT
BRANCH   1   7
HETATM    7  C   LIG     1       1.127   0.562  -0.020  1.00  0.00     0.035 A 
HETATM    8  S   LIG     1       1.464  -1.110   0.078  1.00  0.00    -0.075 SA
HETATM    9  C   LIG     1      -0.196  -1.521   0.072  1.00  0.00     0.116 A 
HETATM   10  C   LIG     1      -0.995  -0.397  -0.013  1.00  0.00     0.033 A 
HETATM   11  C   LIG     1      -0.231   0.806  -0.066  1.00  0.00     0.023 A 
BRANCH   9  12
HETATM   12  S   LIG     1      -0.573  -3.251   0.174  1.00  0.00     0.268 S 
HETATM   13 CL   LIG     1       0.298  -4.188  -1.418  1.00  0.00     0.024 Cl
HETATM   14  O   LIG     1       0.086  -3.750   1.362  1.00  0.00    -0.205 OA
HETATM   15  O   LIG     1      -2.002  -3.350  -0.037  1.00  0.00    -0.205 OA
ENDBRANCH   9  12
ENDBRANCH   1   7
BRANCH   3  16
HETATM   16  C   LIG     1       5.464   3.264  -0.061  1.00  0.00     0.441 C 
HETATM   17  F   LIG     1       6.401   2.281   0.010  1.00  0.00    -0.164 F 
HETATM   18  F   LIG     1       5.732   3.974  -1.185  1.00  0.00    -0.164 F 
HETATM   19  F   LIG     1       5.685   4.086   0.995  1.00  0.00    -0.164 F 
ENDBRANCH   3  16
TORSDOF 3
