REMARK  1 active torsions:
REMARK  status: ('A' for Active; 'I' for Inactive)
REMARK    1  A    between atoms: C_3  and  S_9 
ROOT
HETATM    1  N   LIG     1      -0.343  -1.055  -0.181  1.00  0.00    -0.348 N 
HETATM    2  C   LIG     1      -1.180   0.021  -0.270  1.00  0.00     0.135 A 
HETATM    3  C   LIG     1      -0.410   1.105   0.101  1.00  0.00     0.161 A 
HETATM    4  N   LIG     1       0.876   0.699   0.411  1.00  0.00    -0.335 N 
ATOM      5  HN  LIG     1       1.651   1.288   0.716  1.00  0.00     0.168 HD
HETATM    6  C   LIG     1       0.892  -0.607   0.230  1.00  0.00     0.079 A 
HETATM    7  C   LIG     1       2.065  -1.496   0.430  1.00  0.00     0.089 C 
HETATM    8  C   LIG     1      -0.702  -2.424  -0.469  1.00  0.00     0.156 C 
ENDROOT
BRANCH   3   9
HETATM    9  S   LIG     1      -0.950   2.755   0.174  1.00  0.00     0.279 S 
HETATM   10 CL   LIG     1       0.457   3.878   1.133  1.00  0.00     0.025 Cl
HETATM   11  O   LIG     1      -0.985   3.209  -1.202  1.00  0.00    -0.204 OA
HETATM   12  O   LIG     1      -2.121   2.737   1.028  1.00  0.00    -0.204 OA
ENDBRANCH   3   9
TORSDOF 1
