REMARK  2 active torsions:
REMARK  status: ('A' for Active; 'I' for Inactive)
REMARK    1  A    between atoms: S_1  and  C_4 
REMARK    2  A    between atoms: C_4  and  C_6 
ROOT
HETATM    1  C   LIG     1       0.899   0.324   2.915  1.00  0.00    -0.043 A 
HETATM    2  C   LIG     1       2.101  -0.501   5.328  1.00  0.00    -0.062 A 
HETATM    3  C   LIG     1       1.716   1.202   3.640  1.00  0.00     0.009 A 
HETATM    4  C   LIG     1       0.687  -0.969   3.412  1.00  0.00     0.009 A 
HETATM    5  C   LIG     1       2.308   0.793   4.838  1.00  0.00     0.007 A 
HETATM    6  C   LIG     1       1.280  -1.375   4.610  1.00  0.00     0.007 A 
HETATM    7  C   LIG     1       2.738  -0.925   6.618  1.00  0.00     0.048 C 
ENDROOT
BRANCH   1   8
HETATM    8  C   LIG     1       0.271   0.757   1.618  1.00  0.00     0.196 C 
BRANCH   8   9
HETATM    9  S   LIG     1       1.373   0.380   0.262  1.00  0.00     0.234 S 
HETATM   10  O   LIG     1       1.502  -1.057   0.110  1.00  0.00    -0.211 OA
HETATM   11  O   LIG     1       2.523   1.261   0.300  1.00  0.00    -0.211 OA
HETATM   12 CL   LIG     1       0.360   0.963  -1.427  1.00  0.00     0.019 Cl
ENDBRANCH   8   9
ENDBRANCH   1   8
TORSDOF 2
