REMARK  1 active torsions:
REMARK  status: ('A' for Active; 'I' for Inactive)
REMARK    1  A    between atoms: S_1  and  C_2 
ROOT
HETATM    1  C   LIG     1       0.490  -1.025  -1.194  1.00  0.00     0.075 A 
HETATM    2  O   LIG     1      -0.031  -3.870  -4.169  1.00  0.00    -0.340 OA
HETATM    3  C   LIG     1       0.162  -2.986  -3.143  1.00  0.00     0.076 A 
HETATM    4  C   LIG     1       0.547  -3.359  -1.851  1.00  0.00    -0.023 A 
HETATM    5  C   LIG     1       0.729  -2.367  -0.876  1.00  0.00     0.034 A 
HETATM    6  C   LIG     1       0.427  -5.219  -3.968  1.00  0.00     0.061 C 
HETATM    7  C   LIG     1       0.099  -0.656  -2.483  1.00  0.00     0.027 A 
HETATM    8  C   LIG     1      -0.070  -1.644  -3.453  1.00  0.00     0.039 A 
HETATM    9  C   LIG     1       0.803  -4.797  -1.510  1.00  0.00     0.044 C 
HETATM   10  C   LIG     1       0.150  -5.708  -2.539  1.00  0.00     0.042 C 
HETATM   11  C   LIG     1       1.913  -5.304  -4.349  1.00  0.00     0.046 C 
HETATM   12  C   LIG     1      -0.377  -6.085  -4.950  1.00  0.00     0.046 C 
ENDROOT
BRANCH   1  13
HETATM   13  S   LIG     1       0.737   0.224   0.036  1.00  0.00     0.262 S 
HETATM   14  O   LIG     1       0.979   1.493  -0.618  1.00  0.00    -0.206 OA
HETATM   15  O   LIG     1       1.599  -0.300   1.076  1.00  0.00    -0.206 OA
HETATM   16 CL   LIG     1      -1.126   0.358   0.862  1.00  0.00     0.024 Cl
ENDBRANCH   1  13
TORSDOF 1
