REMARK  3 active torsions:
REMARK  status: ('A' for Active; 'I' for Inactive)
REMARK    1  A    between atoms: S_1  and  N_3 
REMARK    2  A    between atoms: S_1  and  C_4 
REMARK    3  A    between atoms: S_2  and  C_5 
ROOT
HETATM    1  C   LIG     1       0.310   1.958   0.160  1.00  0.00     0.074 A 
HETATM    2  C   LIG     1      -0.331   4.637  -0.194  1.00  0.00     0.074 A 
HETATM    3  C   LIG     1       1.297   2.932   0.345  1.00  0.00     0.026 A 
HETATM    4  C   LIG     1      -0.997   2.315  -0.195  1.00  0.00     0.026 A 
HETATM    5  C   LIG     1       0.974   4.279   0.164  1.00  0.00     0.026 A 
HETATM    6  C   LIG     1      -1.319   3.661  -0.378  1.00  0.00     0.026 A 
ENDROOT
BRANCH   1   7
HETATM    7  S   LIG     1       0.725   0.230   0.285  1.00  0.00     0.243 S 
HETATM    8  O   LIG     1       0.284  -0.388  -0.948  1.00  0.00    -0.206 OA
HETATM    9  O   LIG     1       2.096   0.124   0.732  1.00  0.00    -0.206 OA
BRANCH   7  10
HETATM   10  N   LIG     1      -0.285  -0.299   1.545  1.00  0.00    -0.202 NA
HETATM   11  C   LIG     1       0.052   0.167   2.926  1.00  0.00     0.134 C 
HETATM   12  C   LIG     1       1.106  -0.733   3.586  1.00  0.00     0.183 C 
HETATM   13  O   LIG     1       0.681  -2.102   3.600  1.00  0.00    -0.389 OA
HETATM   14  C   LIG     1       0.471  -2.577   2.261  1.00  0.00     0.183 C 
HETATM   15  C   LIG     1      -0.612  -1.759   1.553  1.00  0.00     0.134 C 
ENDBRANCH   7  10
ENDBRANCH   1   7
BRANCH   2  16
HETATM   16  S   LIG     1      -0.730   6.343  -0.472  1.00  0.00     0.262 S 
HETATM   17  O   LIG     1       0.442   7.153  -0.217  1.00  0.00    -0.206 OA
HETATM   18  O   LIG     1      -1.511   6.444  -1.687  1.00  0.00    -0.206 OA
HETATM   19 CL   LIG     1      -2.012   6.729   1.072  1.00  0.00     0.024 Cl
ENDBRANCH   2  16
TORSDOF 3
