REMARK  1 active torsions:
REMARK  status: ('A' for Active; 'I' for Inactive)
REMARK    1  A    between atoms: S_1  and  C_2 
ROOT
HETATM    1  C   LIG     1       0.557  -1.606  -0.682  1.00  0.00     0.096 A 
HETATM    2  C   LIG     1      -0.196  -1.758  -1.857  1.00  0.00     0.067 A 
HETATM    3  N   LIG     1      -1.157   0.239  -3.208  1.00  0.00    -0.191 NA
HETATM    4  C   LIG     1      -0.717  -0.643  -2.597  1.00  0.00     0.101 C 
HETATM    5  C   LIG     1       1.012  -2.736   0.014  1.00  0.00     0.033 A 
HETATM    6  C   LIG     1      -0.470  -3.048  -2.331  1.00  0.00     0.025 A 
HETATM    7  C   LIG     1       0.721  -4.024  -0.458  1.00  0.00    -0.060 A 
HETATM    8  C   LIG     1      -0.010  -4.171  -1.641  1.00  0.00     0.008 A 
HETATM    9  C   LIG     1       1.226  -5.240   0.266  1.00  0.00     0.048 C 
ENDROOT
BRANCH   1  10
HETATM   10  S   LIG     1       0.907   0.039  -0.119  1.00  0.00     0.263 S 
HETATM   11  O   LIG     1      -0.307   0.569   0.461  1.00  0.00    -0.206 OA
HETATM   12  O   LIG     1       1.663   0.707  -1.156  1.00  0.00    -0.206 OA
HETATM   13 CL   LIG     1       2.220  -0.134   1.442  1.00  0.00     0.024 Cl
ENDBRANCH   1  10
TORSDOF 1
