REMARK  3 active torsions:
REMARK  status: ('A' for Active; 'I' for Inactive)
REMARK    1  A    between atoms: C_2  and  S_18 
REMARK    2  A    between atoms: C_6  and  C_7 
REMARK    3  A    between atoms: C_10  and  C_13 
ROOT
HETATM    1  S   LIG     1      -0.298  -1.207   0.811  1.00  0.00    -0.057 SA
HETATM    2  C   LIG     1       1.146  -0.355   0.485  1.00  0.00     0.139 A 
HETATM    3  C   LIG     1       0.859   0.806  -0.209  1.00  0.00     0.036 A 
HETATM    4  N   LIG     1      -0.496   1.015  -0.452  1.00  0.00    -0.352 N 
ATOM      5  HN  LIG     1      -0.881   1.837  -0.918  1.00  0.00     0.166 HD
HETATM    6  C   LIG     1      -1.214   0.006   0.002  1.00  0.00     0.086 A 
HETATM    7  C   LIG     1       1.832   1.823  -0.690  1.00  0.00     0.070 C 
ENDROOT
BRANCH   6   8
HETATM    8  C   LIG     1      -2.681  -0.105  -0.103  1.00  0.00    -0.002 A 
HETATM    9  C   LIG     1      -3.334  -1.347  -0.170  1.00  0.00     0.015 A 
HETATM   10  C   LIG     1      -4.728  -1.429  -0.262  1.00  0.00     0.017 A 
HETATM   11  C   LIG     1      -5.510  -0.269  -0.296  1.00  0.00     0.048 A 
HETATM   12  C   LIG     1      -4.866   0.976  -0.239  1.00  0.00     0.017 A 
HETATM   13  C   LIG     1      -3.469   1.056  -0.150  1.00  0.00     0.015 A 
BRANCH  11  14
HETATM   14  C   LIG     1      -7.014  -0.348  -0.400  1.00  0.00     0.417 C 
HETATM   15  F   LIG     1      -7.488  -1.625  -0.454  1.00  0.00    -0.166 F 
HETATM   16  F   LIG     1      -7.642   0.236   0.658  1.00  0.00    -0.166 F 
HETATM   17  F   LIG     1      -7.494   0.273  -1.512  1.00  0.00    -0.166 F 
ENDBRANCH  11  14
ENDBRANCH   6   8
BRANCH   2  18
HETATM   18  S   LIG     1       2.630  -1.092   1.075  1.00  0.00     0.270 S 
HETATM   19 CL   LIG     1       2.487  -1.260   3.107  1.00  0.00     0.024 Cl
HETATM   20  O   LIG     1       2.661  -2.444   0.553  1.00  0.00    -0.205 OA
HETATM   21  O   LIG     1       3.687  -0.135   0.835  1.00  0.00    -0.205 OA
ENDBRANCH   2  18
TORSDOF 3
