REMARK  1 active torsions:
REMARK  status: ('A' for Active; 'I' for Inactive)
REMARK    1  A    between atoms: S_2  and  C_4 
REMARK       I    between atoms: N_13  and  C_14 
ROOT
HETATM    1  C   LIG     1       2.896  -1.235  -1.215  1.00  0.00     0.075 A 
HETATM    2  C   LIG     1       2.650  -2.601  -0.993  1.00  0.00     0.027 A 
HETATM    3  C   LIG     1       2.984  -3.543  -1.972  1.00  0.00     0.032 A 
HETATM    4  C   LIG     1       3.497  -0.792  -2.398  1.00  0.00     0.034 A 
HETATM    5  C   LIG     1       3.568  -3.101  -3.149  1.00  0.00     0.043 A 
HETATM    6  C   LIG     1       3.822  -1.743  -3.355  1.00  0.00    -0.028 A 
HETATM    7  C   LIG     1       4.463  -1.503  -4.684  1.00  0.00     0.061 A 
HETATM    8  C   LIG     1       4.556  -2.921  -5.260  1.00  0.00     0.137 A 
HETATM    9  N   LIG     1       3.988  -3.847  -4.265  1.00  0.00    -0.318 N 
HETATM   10  C   LIG     1       3.882  -5.220  -4.408  1.00  0.00     0.220 C 
HETATM   11  O   LIG     1       3.398  -5.983  -3.573  1.00  0.00    -0.273 OA
HETATM   12  C   LIG     1       4.413  -5.777  -5.707  1.00  0.00     0.117 C 
ENDROOT
BRANCH   1  13
HETATM   13  S   LIG     1       2.482  -0.064   0.048  1.00  0.00     0.262 S 
HETATM   14  O   LIG     1       2.571  -0.710   1.340  1.00  0.00    -0.206 OA
HETATM   15 CL   LIG     1       0.492   0.234  -0.306  1.00  0.00     0.024 Cl
HETATM   16  O   LIG     1       3.129   1.198  -0.245  1.00  0.00    -0.206 OA
ENDBRANCH   1  13
TORSDOF 1
