REMARK  2 active torsions:
REMARK  status: ('A' for Active; 'I' for Inactive)
REMARK    1  A    between atoms: S_1  and  C_5 
REMARK    2  A    between atoms: C_5  and  C_9 
ROOT
HETATM    1  C   LIG     1       2.984   4.293  -0.721  1.00  0.00     0.056 A 
HETATM    2  C   LIG     1       2.143   5.406  -0.823  1.00  0.00     0.055 A 
HETATM    3  C   LIG     1       2.454   3.003  -0.852  1.00  0.00     0.033 A 
HETATM    4  C   LIG     1       1.083   2.811  -1.089  1.00  0.00    -0.041 A 
HETATM    5  C   LIG     1       0.778   5.222  -1.056  1.00  0.00     0.026 A 
HETATM    6 CL   LIG     1       4.682   4.438  -0.437  1.00  0.00    -0.083 Cl
HETATM    7  C   LIG     1       0.251   3.935  -1.188  1.00  0.00     0.010 A 
HETATM    8 CL   LIG     1       2.723   7.026  -0.670  1.00  0.00    -0.083 Cl
ENDROOT
BRANCH   4   9
HETATM    9  C   LIG     1       0.512   1.422  -1.220  1.00  0.00     0.196 C 
BRANCH   9  10
HETATM   10  S   LIG     1       0.023   0.821   0.391  1.00  0.00     0.234 S 
HETATM   11  O   LIG     1      -1.062   1.633   0.906  1.00  0.00    -0.211 OA
HETATM   12  O   LIG     1       1.205   0.524   1.174  1.00  0.00    -0.211 OA
HETATM   13 CL   LIG     1      -0.836  -1.010   0.052  1.00  0.00     0.019 Cl
ENDBRANCH   9  10
ENDBRANCH   4   9
TORSDOF 2
