REMARK  3 active torsions:
REMARK  status: ('A' for Active; 'I' for Inactive)
REMARK    1  A    between atoms: S_1  and  C_2 
REMARK    2  A    between atoms: C_3  and  O_11 
REMARK    3  A    between atoms: C_9  and  O_12 
ROOT
HETATM    1  C   LIG     1       0.357   0.189   1.557  1.00  0.00     0.108 A 
HETATM    2  C   LIG     1       0.407   1.479   2.093  1.00  0.00     0.093 A 
HETATM    3  C   LIG     1      -0.203  -0.864   2.296  1.00  0.00     0.030 A 
HETATM    4  C   LIG     1      -0.133   1.698   3.369  1.00  0.00     0.075 A 
HETATM    5  C   LIG     1      -0.702   0.652   4.108  1.00  0.00     0.070 A 
HETATM    6  C   LIG     1      -0.734  -0.630   3.566  1.00  0.00     0.038 A 
ENDROOT
BRANCH   1   7
HETATM    7  S   LIG     1       1.092  -0.189  -0.011  1.00  0.00     0.264 S 
HETATM    8  O   LIG     1       0.859  -1.589  -0.299  1.00  0.00    -0.206 OA
HETATM    9  O   LIG     1       2.422   0.387  -0.079  1.00  0.00    -0.206 OA
HETATM   10 CL   LIG     1      -0.061   0.816  -1.366  1.00  0.00     0.024 Cl
ENDBRANCH   1   7
BRANCH   2  11
HETATM   11  O   LIG     1       0.924   2.480   1.320  1.00  0.00    -0.354 OA
HETATM   12  C   LIG     1       1.531   3.567   2.017  1.00  0.00     0.210 C 
ENDBRANCH   2  11
BRANCH   5  13
HETATM   13  O   LIG     1      -1.199   1.016   5.330  1.00  0.00    -0.356 OA
HETATM   14  C   LIG     1      -1.795  -0.012   6.114  1.00  0.00     0.210 C 
ENDBRANCH   5  13
TORSDOF 3
