REMARK  3 active torsions:
REMARK  status: ('A' for Active; 'I' for Inactive)
REMARK    1  A    between atoms: C_2  and  S_11 
REMARK    2  A    between atoms: C_5  and  C_6 
REMARK    3  A    between atoms: C_6  and  O_7 
ROOT
HETATM    1  S   LIG     1       1.729   0.320   0.171  1.00  0.00    -0.071 SA
HETATM    2  C   LIG     1       1.298  -1.336   0.122  1.00  0.00     0.122 A 
HETATM    3  C   LIG     1      -0.076  -1.511   0.014  1.00  0.00    -0.031 A 
HETATM    4  C   LIG     1      -0.751  -0.247  -0.039  1.00  0.00     0.034 A 
HETATM    5  C   LIG     1       0.106   0.836   0.032  1.00  0.00     0.082 A 
HETATM    6  C   LIG     1      -0.777  -2.829  -0.043  1.00  0.00     0.050 C 
ENDROOT
BRANCH   2   7
HETATM    7  S   LIG     1       2.668  -2.474   0.217  1.00  0.00     0.269 S 
HETATM    8 CL   LIG     1       3.918  -2.094  -1.356  1.00  0.00     0.024 Cl
HETATM    9  O   LIG     1       3.402  -2.147   1.421  1.00  0.00    -0.205 OA
HETATM   10  O   LIG     1       2.117  -3.790  -0.032  1.00  0.00    -0.205 OA
ENDBRANCH   2   7
BRANCH   5  11
HETATM   11  C   LIG     1      -0.200   2.255  -0.003  1.00  0.00     0.299 C 
HETATM   12  O   LIG     1       0.602   3.177   0.070  1.00  0.00    -0.259 OA
BRANCH  11  13
HETATM   13  O   LIG     1      -1.549   2.421  -0.151  1.00  0.00    -0.322 OA
HETATM   14  C   LIG     1      -1.969   3.781  -0.250  1.00  0.00     0.213 C 
ENDBRANCH  11  13
ENDBRANCH   5  11
TORSDOF 3
