REMARK  3 active torsions:
REMARK  status: ('A' for Active; 'I' for Inactive)
REMARK    1  A    between atoms: S_1  and  C_6 
REMARK    2  A    between atoms: C_4  and  C_5 
REMARK    3  A    between atoms: C_6  and  C_10 
ROOT
HETATM    1  C   LIG     1       2.103   0.521   5.287  1.00  0.00    -0.051 A 
HETATM    2  C   LIG     1       1.539  -0.512   4.516  1.00  0.00     0.008 A 
HETATM    3  C   LIG     1       2.052   1.817   4.749  1.00  0.00     0.008 A 
HETATM    4  C   LIG     1       0.904   1.039   2.752  1.00  0.00    -0.043 A 
HETATM    5  C   LIG     1       1.467   2.073   3.503  1.00  0.00     0.009 A 
HETATM    6  C   LIG     1       0.948  -0.260   3.270  1.00  0.00     0.009 A 
ENDROOT
BRANCH   4   7
HETATM    7  C   LIG     1       0.276   1.318   1.413  1.00  0.00     0.196 C 
BRANCH   7   8
HETATM    8  S   LIG     1       1.513   1.192   0.127  1.00  0.00     0.234 S 
HETATM    9  O   LIG     1       2.017  -0.166   0.053  1.00  0.00    -0.211 OA
HETATM   10  O   LIG     1       2.391   2.343   0.176  1.00  0.00    -0.211 OA
HETATM   11 CL   LIG     1       0.487   1.428  -1.636  1.00  0.00     0.019 Cl
ENDBRANCH   7   8
ENDBRANCH   4   7
BRANCH   1  12
HETATM   12  C   LIG     1       2.750   0.216   6.652  1.00  0.00    -0.024 C 
HETATM   13  C   LIG     1       3.308   1.471   7.363  1.00  0.00     0.019 C 
HETATM   14  C   LIG     1       1.710  -0.418   7.600  1.00  0.00     0.019 C 
HETATM   15  C   LIG     1       3.928  -0.765   6.471  1.00  0.00     0.019 C 
ENDBRANCH   1  12
TORSDOF 3
