REMARK  3 active torsions:
REMARK  status: ('A' for Active; 'I' for Inactive)
REMARK    1  A    between atoms: S_1  and  N_3 
REMARK    2  A    between atoms: S_1  and  C_4 
REMARK    3  A    between atoms: S_2  and  C_5 
ROOT
HETATM    1  C   LIG     1       0.483   0.139   2.460  1.00  0.00     0.079 A 
HETATM    2  C   LIG     1       0.680   1.133   5.048  1.00  0.00     0.074 A 
HETATM    3  C   LIG     1       1.526  -0.287   3.293  1.00  0.00     0.027 A 
HETATM    4  C   LIG     1      -0.450   1.080   2.910  1.00  0.00     0.027 A 
HETATM    5  C   LIG     1       1.614   0.195   4.597  1.00  0.00     0.026 A 
HETATM    6  C   LIG     1      -0.360   1.570   4.216  1.00  0.00     0.026 A 
ENDROOT
BRANCH   1   7
HETATM    7  S   LIG     1       0.411  -0.459   0.777  1.00  0.00     0.260 S 
HETATM    8  O   LIG     1      -0.283   0.539  -0.007  1.00  0.00    -0.200 OA
HETATM    9  O   LIG     1       1.749  -0.895   0.428  1.00  0.00    -0.200 OA
BRANCH   7  10
HETATM   10  N   LIG     1      -0.566  -1.827   0.887  1.00  0.00    -0.307 N 
HETATM   11  C   LIG     1      -2.020  -1.671   1.080  1.00  0.00     0.135 C 
HETATM   12  C   LIG     1      -2.357  -2.591   2.241  1.00  0.00     0.022 C 
HETATM   13  C   LIG     1      -1.339  -3.709   2.117  1.00  0.00     0.022 C 
HETATM   14  C   LIG     1      -0.079  -3.001   1.639  1.00  0.00     0.135 C 
ENDBRANCH   7  10
ENDBRANCH   1   7
BRANCH   2  15
HETATM   15  S   LIG     1       0.816   1.766   6.698  1.00  0.00     0.262 S 
HETATM   16  O   LIG     1      -0.499   2.148   7.161  1.00  0.00    -0.206 OA
HETATM   17  O   LIG     1       1.701   0.907   7.463  1.00  0.00    -0.206 OA
HETATM   18 CL   LIG     1       1.842   3.502   6.380  1.00  0.00     0.024 Cl
ENDBRANCH   2  15
TORSDOF 3
