REMARK  1 active torsions:
REMARK  status: ('A' for Active; 'I' for Inactive)
REMARK    1  A    between atoms: C_3  and  S_8 
ROOT
HETATM    1  S   LIG     1       1.255   0.908   0.135  1.00  0.00    -0.099 SA
HETATM    2  C   LIG     1       1.057  -0.795   0.087  1.00  0.00     0.002 A 
HETATM    3  C   LIG     1      -0.280  -1.138  -0.019  1.00  0.00     0.088 A 
HETATM    4  C   LIG     1      -1.134   0.008  -0.051  1.00  0.00     0.039 A 
HETATM    5  C   LIG     1      -0.427   1.189   0.024  1.00  0.00    -0.019 A 
HETATM    6  C   LIG     1      -0.949   2.585   0.015  1.00  0.00     0.056 C 
HETATM    7  C   LIG     1       2.267  -1.671   0.138  1.00  0.00     0.058 C 
ENDROOT
BRANCH   3   8
HETATM    8  S   LIG     1      -0.881  -2.766  -0.082  1.00  0.00     0.263 S 
HETATM    9 CL   LIG     1      -0.695  -3.566   1.786  1.00  0.00     0.024 Cl
HETATM   10  O   LIG     1      -2.301  -2.655  -0.339  1.00  0.00    -0.206 OA
HETATM   11  O   LIG     1       0.030  -3.491  -0.941  1.00  0.00    -0.206 OA
ENDBRANCH   3   8
TORSDOF 1
