REMARK  3 active torsions:
REMARK  status: ('A' for Active; 'I' for Inactive)
REMARK    1  A    between atoms: S_1  and  C_8 
REMARK    2  A    between atoms: N_2  and  C_3 
REMARK    3  A    between atoms: C_8  and  C_12 
ROOT
HETATM    1  C   LIG     1       1.801  -2.469   4.520  1.00  0.00     0.102 A 
HETATM    2  C   LIG     1       0.809  -2.871   3.619  1.00  0.00     0.036 A 
HETATM    3  C   LIG     1       2.301  -1.162   4.487  1.00  0.00     0.036 A 
HETATM    4  C   LIG     1       0.808  -0.645   2.633  1.00  0.00    -0.043 A 
HETATM    5  C   LIG     1       1.803  -0.256   3.545  1.00  0.00     0.010 A 
HETATM    6  C   LIG     1       0.313  -1.958   2.682  1.00  0.00     0.010 A 
ENDROOT
BRANCH   4   7
HETATM    7  C   LIG     1       0.280   0.337   1.616  1.00  0.00     0.196 C 
BRANCH   7   8
HETATM    8  S   LIG     1      -1.142   1.195   2.277  1.00  0.00     0.234 S 
HETATM    9  O   LIG     1      -0.747   1.987   3.426  1.00  0.00    -0.211 OA
HETATM   10  O   LIG     1      -2.278   0.298   2.309  1.00  0.00    -0.211 OA
HETATM   11 CL   LIG     1      -1.639   2.591   0.856  1.00  0.00     0.019 Cl
ENDBRANCH   7   8
ENDBRANCH   4   7
BRANCH   1  12
HETATM   12  N   LIG     1       2.320  -3.424   5.508  1.00  0.00    -0.116 N 
HETATM   13  O   LIG     1       1.849  -4.570   5.504  1.00  0.00    -0.532 OA
HETATM   14  O   LIG     1       3.204  -3.030   6.283  1.00  0.00    -0.532 OA
ENDBRANCH   1  12
TORSDOF 3
