REMARK  5 active torsions:
REMARK  status: ('A' for Active; 'I' for Inactive)
REMARK    1  A    between atoms: C_2  and  C_8 
REMARK    2  A    between atoms: C_5  and  C_13 
REMARK    3  A    between atoms: C_8  and  O_10 
REMARK    4  A    between atoms: O_10  and  C_11 
REMARK    5  A    between atoms: C_16  and  S_18 
ROOT
HETATM    1  O   LIG     1      -0.082  -0.906   0.433  1.00  0.00    -0.211 OA
HETATM    2  C   LIG     1       1.108  -0.327   0.094  1.00  0.00     0.247 A 
HETATM    3  N   LIG     1       1.009   0.972  -0.107  1.00  0.00    -0.314 N 
ATOM      4  HN  LIG     1       1.735   1.633  -0.385  1.00  0.00     0.170 HD
HETATM    5  C   LIG     1      -0.317   1.211   0.152  1.00  0.00     0.145 A 
HETATM    6  N   LIG     1      -1.026   0.120   0.474  1.00  0.00    -0.241 N 
ATOM      7  HN  LIG     1      -2.019   0.055   0.696  1.00  0.00     0.196 HD
ENDROOT
BRANCH   5   8
HETATM    8  C   LIG     1      -0.913   2.580   0.102  1.00  0.00     0.052 A 
HETATM    9  C   LIG     1      -2.224   2.875   0.411  1.00  0.00     0.025 A 
HETATM   10  C   LIG     1      -2.502   4.268   0.280  1.00  0.00     0.034 A 
HETATM   11  C   LIG     1      -1.393   4.984  -0.139  1.00  0.00     0.116 A 
HETATM   12  S   LIG     1      -0.031   3.972  -0.335  1.00  0.00    -0.073 SA
BRANCH  11  13
HETATM   13  S   LIG     1      -1.136   6.703  -0.492  1.00  0.00     0.268 S 
HETATM   14 CL   LIG     1       0.302   7.404   0.778  1.00  0.00     0.024 Cl
HETATM   15  O   LIG     1      -0.594   6.783  -1.831  1.00  0.00    -0.205 OA
HETATM   16  O   LIG     1      -2.365   7.362  -0.100  1.00  0.00    -0.205 OA
ENDBRANCH  11  13
ENDBRANCH   5   8
BRANCH   2  17
HETATM   17  C   LIG     1       2.307  -1.125   0.017  1.00  0.00     0.337 C 
HETATM   18  O   LIG     1       3.425  -0.719  -0.271  1.00  0.00    -0.255 OA
BRANCH  17  19
HETATM   19  O   LIG     1       2.031  -2.422   0.366  1.00  0.00    -0.315 OA
BRANCH  19  20
HETATM   20  C   LIG     1       3.167  -3.296   0.426  1.00  0.00     0.175 C 
HETATM   21  C   LIG     1       3.896  -3.115   1.745  1.00  0.00     0.034 C 
ENDBRANCH  19  20
ENDBRANCH  17  19
ENDBRANCH   2  17
TORSDOF 5
