REMARK  3 active torsions:
REMARK  status: ('A' for Active; 'I' for Inactive)
REMARK    1  A    between atoms: S_1  and  C_6 
REMARK    2  A    between atoms: C_2  and  C_3 
REMARK    3  A    between atoms: C_6  and  C_9 
ROOT
HETATM    1  C   LIG     1       1.748  -0.084   4.352  1.00  0.00     0.048 A 
HETATM    2  C   LIG     1       1.153   0.134   3.098  1.00  0.00     0.024 A 
HETATM    3  C   LIG     1       1.072   1.424   2.549  1.00  0.00    -0.042 A 
HETATM    4  C   LIG     1       2.259   1.014   5.059  1.00  0.00     0.016 A 
HETATM    5  C   LIG     1       2.182   2.299   4.523  1.00  0.00     0.001 A 
HETATM    6  C   LIG     1       1.594   2.503   3.275  1.00  0.00     0.008 A 
ENDROOT
BRANCH   3   7
HETATM    7  C   LIG     1       0.445   1.642   1.196  1.00  0.00     0.196 C 
BRANCH   7   8
HETATM    8  S   LIG     1       1.696   1.513  -0.076  1.00  0.00     0.234 S 
HETATM    9  O   LIG     1       2.241   0.169  -0.098  1.00  0.00    -0.211 OA
HETATM   10  O   LIG     1       2.541   2.690  -0.052  1.00  0.00    -0.211 OA
HETATM   11 CL   LIG     1       0.677   1.664  -1.851  1.00  0.00     0.019 Cl
ENDBRANCH   7   8
ENDBRANCH   3   7
BRANCH   1  12
HETATM   12  C   LIG     1       1.851  -1.470   4.942  1.00  0.00     0.417 C 
HETATM   13  F   LIG     1       1.317  -2.441   4.150  1.00  0.00    -0.166 F 
HETATM   14  F   LIG     1       3.139  -1.844   5.177  1.00  0.00    -0.166 F 
HETATM   15  F   LIG     1       1.209  -1.573   6.139  1.00  0.00    -0.166 F 
ENDBRANCH   1  12
TORSDOF 3
