REMARK  4 active torsions:
REMARK  status: ('A' for Active; 'I' for Inactive)
REMARK    1  A    between atoms: S_1  and  C_2 
REMARK    2  A    between atoms: C_4  and  C_5 
REMARK    3  A    between atoms: C_5  and  O_13 
REMARK    4  A    between atoms: C_8  and  O_14 
ROOT
HETATM    1  C   LIG     1       0.922   1.233   1.102  1.00  0.00     0.109 A 
HETATM    2  C   LIG     1       0.020   0.604   1.968  1.00  0.00     0.045 A 
HETATM    3  C   LIG     1      -0.488   1.290   3.076  1.00  0.00     0.041 A 
HETATM    4  C   LIG     1       1.340   2.546   1.336  1.00  0.00     0.090 A 
HETATM    5  C   LIG     1      -0.078   2.606   3.313  1.00  0.00     0.020 A 
HETATM    6  C   LIG     1       0.828   3.230   2.446  1.00  0.00     0.039 A 
ENDROOT
BRANCH   1   7
HETATM    7  S   LIG     1       1.507   0.316  -0.294  1.00  0.00     0.264 S 
HETATM    8  O   LIG     1       1.140   1.008  -1.509  1.00  0.00    -0.206 OA
HETATM    9  O   LIG     1       1.190  -1.086  -0.083  1.00  0.00    -0.206 OA
HETATM   10 CL   LIG     1       3.545   0.400  -0.131  1.00  0.00     0.024 Cl
ENDBRANCH   1   7
BRANCH   4  11
HETATM   11  O   LIG     1       2.186   3.118   0.431  1.00  0.00    -0.354 OA
HETATM   12  C   LIG     1       3.085   4.096   0.944  1.00  0.00     0.210 C 
ENDBRANCH   4  11
BRANCH   3  13
HETATM   13  C   LIG     1      -1.485   0.666   3.990  1.00  0.00     0.292 C 
HETATM   14  O   LIG     1      -1.965   1.223   4.960  1.00  0.00    -0.259 OA
BRANCH  13  15
HETATM   15  O   LIG     1      -1.784  -0.574   3.536  1.00  0.00    -0.323 OA
HETATM   16  C   LIG     1      -2.813  -1.270   4.236  1.00  0.00     0.213 C 
ENDBRANCH  13  15
ENDBRANCH   3  13
TORSDOF 4
