REMARK  2 active torsions:
REMARK  status: ('A' for Active; 'I' for Inactive)
REMARK    1  A    between atoms: S_1  and  C_4 
REMARK    2  A    between atoms: C_4  and  C_6 
ROOT
HETATM    1  C   LIG     1       0.968   2.912   0.570  1.00  0.00    -0.043 A 
HETATM    2  C   LIG     1       1.692   5.045   2.236  1.00  0.00     0.034 A 
HETATM    3 CL   LIG     1       2.140   6.355   3.257  1.00  0.00    -0.084 Cl
HETATM    4  C   LIG     1       0.853   5.270   1.148  1.00  0.00     0.024 A 
HETATM    5  C   LIG     1       2.174   3.766   2.501  1.00  0.00     0.024 A 
HETATM    6  C   LIG     1       0.492   4.207   0.315  1.00  0.00     0.010 A 
HETATM    7  C   LIG     1       1.813   2.702   1.671  1.00  0.00     0.010 A 
ENDROOT
BRANCH   1   8
HETATM    8  C   LIG     1       0.591   1.765  -0.331  1.00  0.00     0.196 C 
BRANCH   8   9
HETATM    9  S   LIG     1       1.781   1.629  -1.659  1.00  0.00     0.234 S 
HETATM   10  O   LIG     1       3.081   1.280  -1.123  1.00  0.00    -0.211 OA
HETATM   11  O   LIG     1       1.596   2.723  -2.592  1.00  0.00    -0.211 OA
HETATM   12 CL   LIG     1       1.217  -0.035  -2.719  1.00  0.00     0.019 Cl
ENDBRANCH   8   9
ENDBRANCH   1   8
TORSDOF 2
