REMARK  2 active torsions:
REMARK  status: ('A' for Active; 'I' for Inactive)
REMARK    1  A    between atoms: S_2  and  C_11 
REMARK    2  A    between atoms: C_8  and  C_11 
ROOT
HETATM    1  C   LIG     1       2.826   3.956   2.728  1.00  0.00     0.019 A 
HETATM    2  C   LIG     1       1.700   3.955   3.548  1.00  0.00     0.011 A 
HETATM    3  C   LIG     1       1.008   2.772   3.795  1.00  0.00     0.019 A 
HETATM    4  C   LIG     1       1.447   1.578   3.219  1.00  0.00     0.009 A 
HETATM    5  C   LIG     1       2.582   1.560   2.395  1.00  0.00    -0.043 A 
HETATM    6  C   LIG     1       3.265   2.762   2.152  1.00  0.00     0.009 A 
HETATM    7 BR   LIG     1       1.104   5.572   4.326  1.00  0.00    -0.051 Br
ENDROOT
BRANCH   5   8
HETATM    8  C   LIG     1       3.052   0.275   1.766  1.00  0.00     0.196 C 
BRANCH   8   9
HETATM    9  S   LIG     1       2.265   0.066   0.175  1.00  0.00     0.234 S 
HETATM   10  O   LIG     1       2.753   1.069  -0.751  1.00  0.00    -0.211 OA
HETATM   11  O   LIG     1       0.852  -0.199   0.357  1.00  0.00    -0.211 OA
HETATM   12 CL   LIG     1       3.010  -1.698  -0.567  1.00  0.00     0.019 Cl
ENDBRANCH   8   9
ENDBRANCH   5   8
TORSDOF 2
