REMARK  2 active torsions:
REMARK  status: ('A' for Active; 'I' for Inactive)
REMARK    1  A    between atoms: S_1  and  C_2 
REMARK    2  A    between atoms: C_3  and  C_11 
ROOT
HETATM    1  C   LIG     1       0.221  -1.624  -0.252  1.00  0.00     0.075 A 
HETATM    2  C   LIG     1      -1.279  -3.092  -1.485  1.00  0.00     0.018 A 
HETATM    3  C   LIG     1      -0.837  -1.799  -1.156  1.00  0.00     0.040 A 
HETATM    4  C   LIG     1       0.866  -2.726   0.308  1.00  0.00     0.025 A 
HETATM    5  C   LIG     1      -0.633  -4.193  -0.897  1.00  0.00     0.016 A 
HETATM    6  C   LIG     1       0.432  -4.011  -0.010  1.00  0.00     0.002 A 
ENDROOT
BRANCH   2   7
HETATM    7  C   LIG     1      -2.386  -3.306  -2.409  1.00  0.00     0.174 A 
HETATM    8  N   LIG     1      -2.952  -4.421  -2.826  1.00  0.00    -0.277 N 
HETATM    9  N   LIG     1      -3.969  -4.049  -3.686  1.00  0.00    -0.281 N 
ATOM     10  HN  LIG     1      -2.691  -5.372  -2.565  1.00  0.00     0.189 HD
HETATM   11  C   LIG     1      -3.949  -2.735  -3.731  1.00  0.00     0.136 A 
ATOM     12  HN  LIG     1      -4.607  -4.669  -4.185  1.00  0.00     0.189 HD
HETATM   13  O   LIG     1      -2.971  -2.189  -2.948  1.00  0.00    -0.278 OA
HETATM   14  C   LIG     1      -4.803  -1.797  -4.479  1.00  0.00     0.099 C 
ENDBRANCH   2   7
BRANCH   1  15
HETATM   15  S   LIG     1       0.799   0.011   0.120  1.00  0.00     0.262 S 
HETATM   16  O   LIG     1       0.536   0.871  -1.010  1.00  0.00    -0.206 OA
HETATM   17  O   LIG     1       2.101  -0.083   0.751  1.00  0.00    -0.206 OA
HETATM   18 CL   LIG     1      -0.490   0.600   1.593  1.00  0.00     0.024 Cl
ENDBRANCH   1  15
TORSDOF 2
