REMARK  2 active torsions:
REMARK  status: ('A' for Active; 'I' for Inactive)
REMARK    1  A    between atoms: C_4  and  C_6 
REMARK    2  A    between atoms: C_8  and  S_11 
ROOT
HETATM    1  C   LIG     1      -0.029   2.354   0.611  1.00  0.00     0.026 A 
HETATM    2  C   LIG     1      -0.019   3.597  -0.111  1.00  0.00     0.021 A 
HETATM    3  C   LIG     1       0.036   2.578   1.983  1.00  0.00     0.126 A 
HETATM    4  C   LIG     1       0.037   4.694   0.717  1.00  0.00     0.052 A 
HETATM    5  S   LIG     1       0.054   4.247   2.362  1.00  0.00    -0.088 SA
ENDROOT
BRANCH   1   6
HETATM    6  C   LIG     1      -0.107   0.987  -0.011  1.00  0.00     0.296 C 
HETATM    7  O   LIG     1      -1.295   0.308   0.429  1.00  0.00    -0.355 OA
HETATM    8  C   LIG     1      -2.087   0.146  -0.746  1.00  0.00     0.197 C 
HETATM    9  C   LIG     1      -1.073   0.097  -1.854  1.00  0.00     0.197 C 
HETATM   10  O   LIG     1      -0.100   1.054  -1.449  1.00  0.00    -0.355 OA
ENDBRANCH   1   6
BRANCH   3  11
HETATM   11  S   LIG     1       0.062   1.457   3.370  1.00  0.00     0.269 S 
HETATM   12 CL   LIG     1      -1.877   1.082   3.887  1.00  0.00     0.024 Cl
HETATM   13  O   LIG     1       0.603   0.211   2.865  1.00  0.00    -0.205 OA
HETATM   14  O   LIG     1       0.654   2.151   4.494  1.00  0.00    -0.205 OA
ENDBRANCH   3  11
TORSDOF 2
