REMARK  2 active torsions:
REMARK  status: ('A' for Active; 'I' for Inactive)
REMARK    1  A    between atoms: S_1  and  C_2 
REMARK    2  A    between atoms: C_2  and  C_3 
ROOT
HETATM    1  C   LIG     1       3.349   0.637   1.407  1.00  0.00    -0.042 A 
HETATM    2  C   LIG     1       3.217   2.006   1.689  1.00  0.00     0.030 A 
HETATM    3  C   LIG     1       3.990  -0.189   2.342  1.00  0.00     0.008 A 
HETATM    4  C   LIG     1       3.709   2.537   2.889  1.00  0.00     0.045 A 
HETATM    5  C   LIG     1       4.480   0.338   3.537  1.00  0.00     0.002 A 
HETATM    6  C   LIG     1       4.338   1.698   3.813  1.00  0.00     0.022 A 
HETATM    7  C   LIG     1       3.564   3.935   3.171  1.00  0.00     0.099 C 
HETATM    8  N   LIG     1       3.438   5.066   3.403  1.00  0.00    -0.191 NA
ENDROOT
BRANCH   1   9
HETATM    9  C   LIG     1       2.823   0.064   0.115  1.00  0.00     0.196 C 
BRANCH   9  10
HETATM   10  S   LIG     1       4.105   0.119  -1.129  1.00  0.00     0.234 S 
HETATM   11 CL   LIG     1       3.257  -0.680  -2.817  1.00  0.00     0.019 Cl
HETATM   12  O   LIG     1       4.377   1.497  -1.485  1.00  0.00    -0.211 OA
HETATM   13  O   LIG     1       5.160  -0.814  -0.785  1.00  0.00    -0.211 OA
ENDBRANCH   9  10
ENDBRANCH   1   9
TORSDOF 2
