REMARK  2 active torsions:
REMARK  status: ('A' for Active; 'I' for Inactive)
REMARK    1  A    between atoms: C_5  and  C_8 
REMARK    2  A    between atoms: C_8  and  S_9 
ROOT
HETATM    1  C   LIG     1      -1.507   0.899   0.150  1.00  0.00     0.004 A 
HETATM    2  C   LIG     1      -1.945  -0.420   0.253  1.00  0.00     0.042 A 
HETATM    3  C   LIG     1      -1.017  -1.452   0.202  1.00  0.00     0.117 A 
HETATM    4  C   LIG     1       0.342  -1.192   0.048  1.00  0.00     0.050 A 
HETATM    5  C   LIG     1       0.795   0.131  -0.064  1.00  0.00    -0.040 A 
HETATM    6  C   LIG     1      -0.145   1.173  -0.008  1.00  0.00     0.008 A 
HETATM    7  F   LIG     1      -1.437  -2.721   0.298  1.00  0.00    -0.206 F 
ENDROOT
BRANCH   5   8
HETATM    8  C   LIG     1       2.260   0.430  -0.244  1.00  0.00     0.196 C 
BRANCH   8   9
HETATM    9  S   LIG     1       3.021   0.726   1.346  1.00  0.00     0.234 S 
HETATM   10 CL   LIG     1       4.998   1.095   0.934  1.00  0.00     0.019 Cl
HETATM   11  O   LIG     1       2.537   1.977   1.896  1.00  0.00    -0.211 OA
HETATM   12  O   LIG     1       3.044  -0.501   2.116  1.00  0.00    -0.211 OA
ENDBRANCH   8   9
ENDBRANCH   5   8
TORSDOF 2
