REMARK  2 active torsions:
REMARK  status: ('A' for Active; 'I' for Inactive)
REMARK    1  A    between atoms: C_5  and  C_7 
REMARK    2  A    between atoms: C_7  and  S_8 
ROOT
HETATM    1  C   LIG     1      -1.356   0.952   0.363  1.00  0.00     0.024 A 
HETATM    2  C   LIG     1      -1.673  -0.371   0.060  1.00  0.00     0.002 A 
HETATM    3  C   LIG     1      -0.655  -1.282  -0.206  1.00  0.00     0.001 A 
HETATM    4  C   LIG     1       0.679  -0.872  -0.172  1.00  0.00     0.010 A 
HETATM    5  C   LIG     1       1.018   0.458   0.139  1.00  0.00    -0.021 A 
HETATM    6  C   LIG     1      -0.022   1.366   0.405  1.00  0.00     0.041 A 
HETATM    7 CL   LIG     1       0.287   3.013   0.821  1.00  0.00    -0.084 Cl
ENDROOT
BRANCH   5   8
HETATM    8  C   LIG     1       2.471   0.857   0.164  1.00  0.00     0.197 C 
BRANCH   8   9
HETATM    9  S   LIG     1       2.977   1.388  -1.468  1.00  0.00     0.234 S 
HETATM   10 CL   LIG     1       4.909   2.043  -1.244  1.00  0.00     0.019 Cl
HETATM   11  O   LIG     1       3.096   0.229  -2.332  1.00  0.00    -0.211 OA
HETATM   12  O   LIG     1       2.249   2.572  -1.872  1.00  0.00    -0.211 OA
ENDBRANCH   8   9
ENDBRANCH   5   8
TORSDOF 2
