REMARK  2 active torsions:
REMARK  status: ('A' for Active; 'I' for Inactive)
REMARK    1  A    between atoms: C_5  and  C_7 
REMARK    2  A    between atoms: C_7  and  S_8 
ROOT
HETATM    1  C   LIG     1      -0.910   1.169   0.121  1.00  0.00     0.043 A 
HETATM    2  C   LIG     1      -1.518  -0.078   0.050  1.00  0.00     0.116 A 
HETATM    3  C   LIG     1      -0.762  -1.233  -0.098  1.00  0.00     0.043 A 
HETATM    4  C   LIG     1       0.629  -1.143  -0.170  1.00  0.00     0.011 A 
HETATM    5  C   LIG     1       1.265   0.107  -0.091  1.00  0.00    -0.043 A 
HETATM    6  C   LIG     1       0.480   1.264   0.050  1.00  0.00     0.011 A 
HETATM    7  F   LIG     1      -2.853  -0.167   0.122  1.00  0.00    -0.206 F 
ENDROOT
BRANCH   5   8
HETATM    8  C   LIG     1       2.766   0.207  -0.166  1.00  0.00     0.196 C 
BRANCH   8   9
HETATM    9  S   LIG     1       3.270   0.420  -1.867  1.00  0.00     0.234 S 
HETATM   10 CL   LIG     1       5.318   0.539  -1.811  1.00  0.00     0.019 Cl
HETATM   11  O   LIG     1       3.008  -0.795  -2.612  1.00  0.00    -0.211 OA
HETATM   12  O   LIG     1       2.855   1.725  -2.342  1.00  0.00    -0.211 OA
ENDBRANCH   8   9
ENDBRANCH   5   8
TORSDOF 2
