REMARK  3 active torsions:
REMARK  status: ('A' for Active; 'I' for Inactive)
REMARK    1  A    between atoms: S_2  and  C_14 
REMARK    2  A    between atoms: C_5  and  O_10 
REMARK    3  A    between atoms: C_8  and  C_11 
ROOT
HETATM    1  C   LIG     1       3.836   0.741   3.457  1.00  0.00    -0.026 A 
HETATM    2  C   LIG     1       3.471   1.701   2.490  1.00  0.00     0.014 A 
HETATM    3  C   LIG     1       2.740   1.358   1.349  1.00  0.00     0.025 A 
HETATM    4  C   LIG     1       2.366   0.031   1.149  1.00  0.00     0.074 A 
HETATM    5  C   LIG     1       2.732  -0.951   2.068  1.00  0.00     0.025 A 
HETATM    6  C   LIG     1       3.451  -0.592   3.215  1.00  0.00     0.014 A 
ENDROOT
BRANCH   1   7
HETATM    7  C   LIG     1       4.588   1.129   4.675  1.00  0.00    -0.026 A 
HETATM    8  C   LIG     1       4.408   2.392   5.267  1.00  0.00     0.015 A 
HETATM    9  C   LIG     1       5.122   2.785   6.406  1.00  0.00     0.037 A 
HETATM   10  C   LIG     1       6.029   1.915   7.000  1.00  0.00     0.068 A 
HETATM   11  C   LIG     1       6.214   0.652   6.441  1.00  0.00     0.037 A 
HETATM   12  C   LIG     1       5.510   0.266   5.292  1.00  0.00     0.015 A 
BRANCH  10  13
HETATM   13  O   LIG     1       6.781   2.180   8.111  1.00  0.00    -0.356 OA
HETATM   14  C   LIG     1       6.633   3.477   8.679  1.00  0.00     0.210 C 
ENDBRANCH  10  13
ENDBRANCH   1   7
BRANCH   4  15
HETATM   15  S   LIG     1       1.462  -0.420  -0.304  1.00  0.00     0.262 S 
HETATM   16  O   LIG     1       1.833  -1.766  -0.688  1.00  0.00    -0.206 OA
HETATM   17  O   LIG     1       1.466   0.692  -1.233  1.00  0.00    -0.206 OA
HETATM   18 CL   LIG     1      -0.445  -0.535   0.419  1.00  0.00     0.024 Cl
ENDBRANCH   4  15
TORSDOF 3
