REMARK  2 active torsions:
REMARK  status: ('A' for Active; 'I' for Inactive)
REMARK    1  A    between atoms: C_2  and  S_11 
REMARK    2  A    between atoms: C_5  and  C_6 
ROOT
HETATM    1  O   LIG     1       0.982  -0.612   0.000  1.00  0.00    -0.297 OA
HETATM    2  C   LIG     1      -0.329  -1.042   0.057  1.00  0.00     0.185 A 
HETATM    3  C   LIG     1      -1.142   0.085   0.110  1.00  0.00     0.053 A 
HETATM    4  C   LIG     1      -0.305   1.223   0.087  1.00  0.00     0.041 A 
HETATM    5  C   LIG     1       0.989   0.753   0.017  1.00  0.00     0.109 A 
ENDROOT
BRANCH   5   6
HETATM    6  C   LIG     1       2.321   1.415  -0.044  1.00  0.00     0.318 C 
HETATM    7  O   LIG     1       2.786   1.605   1.300  1.00  0.00    -0.353 OA
HETATM    8  C   LIG     1       2.670   3.008   1.527  1.00  0.00     0.197 C 
HETATM    9  C   LIG     1       2.840   3.604   0.156  1.00  0.00     0.197 C 
HETATM   10  O   LIG     1       2.162   2.683  -0.695  1.00  0.00    -0.353 OA
ENDBRANCH   5   6
BRANCH   2  11
HETATM   11  S   LIG     1      -0.744  -2.777   0.049  1.00  0.00     0.284 S 
HETATM   12 CL   LIG     1       0.787  -3.789   0.942  1.00  0.00     0.026 Cl
HETATM   13  O   LIG     1      -1.891  -2.915   0.922  1.00  0.00    -0.204 OA
HETATM   14  O   LIG     1      -0.754  -3.181  -1.342  1.00  0.00    -0.204 OA
ENDBRANCH   2  11
TORSDOF 2
