REMARK  2 active torsions:
REMARK  status: ('A' for Active; 'I' for Inactive)
REMARK    1  A    between atoms: S_1  and  C_2 
REMARK    2  A    between atoms: C_2  and  C_5 
ROOT
HETATM    1  C   LIG     1       1.178   2.762   0.081  1.00  0.00    -0.037 A 
HETATM    2  C   LIG     1       1.930   3.445  -0.898  1.00  0.00    -0.055 A 
HETATM    3  C   LIG     1       0.527   3.510   1.084  1.00  0.00     0.009 A 
HETATM    4  C   LIG     1       2.628   2.741  -2.030  1.00  0.00     0.049 C 
HETATM    5  C   LIG     1       1.990   4.849  -0.858  1.00  0.00     0.007 A 
HETATM    6  C   LIG     1       0.610   4.901   1.114  1.00  0.00     0.001 A 
HETATM    7  C   LIG     1       1.340   5.571   0.142  1.00  0.00     0.001 A 
ENDROOT
BRANCH   1   8
HETATM    8  C   LIG     1       1.031   1.260   0.104  1.00  0.00     0.196 C 
BRANCH   8   9
HETATM    9  S   LIG     1       2.302   0.529   1.134  1.00  0.00     0.234 S 
HETATM   10  O   LIG     1       2.197   1.029   2.492  1.00  0.00    -0.211 OA
HETATM   11  O   LIG     1       3.564   0.486   0.425  1.00  0.00    -0.211 OA
HETATM   12 CL   LIG     1       1.768  -1.447   1.309  1.00  0.00     0.019 Cl
ENDBRANCH   8   9
ENDBRANCH   1   8
TORSDOF 2
