REMARK  1 active torsions:
REMARK  status: ('A' for Active; 'I' for Inactive)
REMARK    1  A    between atoms: C_2  and  S_11 
ROOT
HETATM    1  S   LIG     1      -1.754  -1.487   0.181  1.00  0.00    -0.077 SA
HETATM    2  C   LIG     1      -2.541   0.011  -0.016  1.00  0.00     0.117 A 
HETATM    3  C   LIG     1      -1.639   1.048  -0.131  1.00  0.00     0.045 A 
HETATM    4  C   LIG     1      -0.191  -0.766   0.120  1.00  0.00     0.016 A 
HETATM    5  C   LIG     1      -0.274   0.616  -0.055  1.00  0.00    -0.017 A 
HETATM    6  C   LIG     1       0.931   1.356  -0.126  1.00  0.00     0.019 A 
HETATM    7  C   LIG     1       2.176   0.715  -0.034  1.00  0.00    -0.061 A 
HETATM    8  C   LIG     1       2.222  -0.664   0.155  1.00  0.00     0.008 A 
HETATM    9  C   LIG     1       1.049  -1.421   0.228  1.00  0.00     0.020 A 
HETATM   10  C   LIG     1       3.441   1.522  -0.079  1.00  0.00     0.048 C 
ENDROOT
BRANCH   2  11
HETATM   11  S   LIG     1      -4.312  -0.027  -0.037  1.00  0.00     0.268 S 
HETATM   12 CL   LIG     1      -4.962  -0.897   1.693  1.00  0.00     0.024 Cl
HETATM   13  O   LIG     1      -4.728   1.358   0.035  1.00  0.00    -0.205 OA
HETATM   14  O   LIG     1      -4.698  -0.908  -1.118  1.00  0.00    -0.205 OA
ENDBRANCH   2  11
TORSDOF 1
