REMARK  2 active torsions:
REMARK  status: ('A' for Active; 'I' for Inactive)
REMARK    1  A    between atoms: S_2  and  C_14 
REMARK    2  A    between atoms: C_8  and  C_11 
ROOT
HETATM    1  C   LIG     1       3.292   2.973  -3.183  1.00  0.00    -0.026 A 
HETATM    2  C   LIG     1       3.413   1.586  -3.402  1.00  0.00     0.014 A 
HETATM    3  C   LIG     1       3.209   0.660  -2.373  1.00  0.00     0.025 A 
HETATM    4  C   LIG     1       2.885   1.112  -1.095  1.00  0.00     0.074 A 
HETATM    5  C   LIG     1       2.785   2.478  -0.835  1.00  0.00     0.025 A 
HETATM    6  C   LIG     1       2.977   3.394  -1.876  1.00  0.00     0.014 A 
ENDROOT
BRANCH   1   7
HETATM    7  C   LIG     1       3.478   3.947  -4.286  1.00  0.00    -0.026 A 
HETATM    8  C   LIG     1       4.072   5.206  -4.067  1.00  0.00     0.014 A 
HETATM    9  C   LIG     1       4.222   6.135  -5.103  1.00  0.00     0.024 A 
HETATM   10  C   LIG     1       3.792   5.817  -6.387  1.00  0.00     0.034 A 
HETATM   11  C   LIG     1       3.214   4.579  -6.641  1.00  0.00     0.024 A 
HETATM   12 CL   LIG     1       3.972   6.957  -7.661  1.00  0.00    -0.084 Cl
HETATM   13  C   LIG     1       3.056   3.657  -5.598  1.00  0.00     0.014 A 
ENDBRANCH   1   7
BRANCH   4  14
HETATM   14  S   LIG     1       2.657  -0.051   0.220  1.00  0.00     0.262 S 
HETATM   15  O   LIG     1       3.048   0.571   1.469  1.00  0.00    -0.206 OA
HETATM   16  O   LIG     1       3.147  -1.346  -0.199  1.00  0.00    -0.206 OA
HETATM   17 CL   LIG     1       0.621  -0.215   0.279  1.00  0.00     0.024 Cl
ENDBRANCH   4  14
TORSDOF 2
