REMARK  2 active torsions:
REMARK  status: ('A' for Active; 'I' for Inactive)
REMARK    1  A    between atoms: S_1  and  C_4 
REMARK    2  A    between atoms: C_2  and  C_3 
ROOT
HETATM    1  C   LIG     1      -0.713  -0.266   3.695  1.00  0.00     0.071 A 
HETATM    2  C   LIG     1       0.485  -0.584   1.592  1.00  0.00     0.075 A 
HETATM    3  C   LIG     1      -0.253   0.234   2.458  1.00  0.00     0.042 A 
HETATM    4  C   LIG     1      -0.424  -1.596   4.029  1.00  0.00     0.049 A 
HETATM    5  C   LIG     1       0.755  -1.911   1.929  1.00  0.00     0.026 A 
HETATM    6  C   LIG     1       0.303  -2.411   3.151  1.00  0.00     0.026 A 
HETATM    7 CL   LIG     1      -0.943  -2.300   5.517  1.00  0.00    -0.083 Cl
ENDROOT
BRANCH   1   8
HETATM    8  C   LIG     1      -1.499   0.624   4.623  1.00  0.00     0.419 C 
HETATM    9  F   LIG     1      -1.669   1.884   4.127  1.00  0.00    -0.166 F 
HETATM   10  F   LIG     1      -2.753   0.161   4.871  1.00  0.00    -0.166 F 
HETATM   11  F   LIG     1      -0.899   0.793   5.832  1.00  0.00    -0.166 F 
ENDBRANCH   1   8
BRANCH   2  12
HETATM   12  S   LIG     1       1.025   0.055   0.027  1.00  0.00     0.262 S 
HETATM   13  O   LIG     1       0.133   1.123  -0.368  1.00  0.00    -0.206 OA
HETATM   14  O   LIG     1       1.364  -1.052  -0.841  1.00  0.00    -0.206 OA
HETATM   15 CL   LIG     1       2.792   0.941   0.539  1.00  0.00     0.024 Cl
ENDBRANCH   2  12
TORSDOF 2
