REMARK  2 active torsions:
REMARK  status: ('A' for Active; 'I' for Inactive)
REMARK    1  A    between atoms: S_1  and  C_2 
REMARK    2  A    between atoms: C_2  and  C_3 
ROOT
HETATM    1  C   LIG     1       3.440  -0.801   1.660  1.00  0.00    -0.026 A 
HETATM    2  C   LIG     1       3.860   0.476   2.080  1.00  0.00     0.009 A 
HETATM    3  C   LIG     1       3.632  -1.883   2.535  1.00  0.00     0.018 A 
HETATM    4  C   LIG     1       4.446   0.666   3.333  1.00  0.00     0.001 A 
HETATM    5  C   LIG     1       4.222  -1.689   3.789  1.00  0.00     0.019 A 
HETATM    6  C   LIG     1       4.628  -0.416   4.187  1.00  0.00     0.001 A 
HETATM    7 BR   LIG     1       3.092  -3.654   2.110  1.00  0.00    -0.051 Br
ENDROOT
BRANCH   1   8
HETATM    8  C   LIG     1       2.816  -0.942   0.294  1.00  0.00     0.197 C 
BRANCH   8   9
HETATM    9  S   LIG     1       4.087  -1.251  -0.926  1.00  0.00     0.234 S 
HETATM   10 CL   LIG     1       3.082  -1.442  -2.707  1.00  0.00     0.019 Cl
HETATM   11  O   LIG     1       4.888  -0.055  -1.104  1.00  0.00    -0.211 OA
HETATM   12  O   LIG     1       4.688  -2.552  -0.723  1.00  0.00    -0.211 OA
ENDBRANCH   8   9
ENDBRANCH   1   8
TORSDOF 2
