REMARK  3 active torsions:
REMARK  status: ('A' for Active; 'I' for Inactive)
REMARK    1  A    between atoms: S_1  and  C_5 
REMARK    2  A    between atoms: C_5  and  C_9 
REMARK    3  A    between atoms: C_6  and  C_12 
ROOT
HETATM    1  C   LIG     1       0.553   4.488  -1.596  1.00  0.00     0.017 A 
HETATM    2  C   LIG     1       1.629   4.704  -2.469  1.00  0.00     0.047 A 
HETATM    3  C   LIG     1       0.148   3.190  -1.272  1.00  0.00     0.009 A 
HETATM    4  C   LIG     1       0.815   2.080  -1.809  1.00  0.00    -0.043 A 
HETATM    5  C   LIG     1       2.293   3.593  -3.007  1.00  0.00     0.017 A 
HETATM    6  C   LIG     1       1.890   2.295  -2.682  1.00  0.00     0.009 A 
ENDROOT
BRANCH   4   7
HETATM    7  C   LIG     1       0.390   0.680  -1.450  1.00  0.00     0.196 C 
BRANCH   7   8
HETATM    8  S   LIG     1      -0.865   0.108  -2.586  1.00  0.00     0.234 S 
HETATM    9  O   LIG     1      -0.310  -0.007  -3.921  1.00  0.00    -0.211 OA
HETATM   10  O   LIG     1      -2.113   0.792  -2.322  1.00  0.00    -0.211 OA
HETATM   11 CL   LIG     1      -1.235  -1.836  -2.036  1.00  0.00     0.019 Cl
ENDBRANCH   7   8
ENDBRANCH   4   7
BRANCH   2  12
HETATM   12  C   LIG     1       2.075   6.099  -2.837  1.00  0.00     0.417 C 
HETATM   13  F   LIG     1       1.340   7.082  -2.246  1.00  0.00    -0.166 F 
HETATM   14  F   LIG     1       3.369   6.340  -2.485  1.00  0.00    -0.166 F 
HETATM   15  F   LIG     1       2.003   6.334  -4.176  1.00  0.00    -0.166 F 
ENDBRANCH   2  12
TORSDOF 3
