REMARK  2 active torsions:
REMARK  status: ('A' for Active; 'I' for Inactive)
REMARK    1  A    between atoms: S_1  and  C_2 
REMARK    2  A    between atoms: C_2  and  C_5 
ROOT
HETATM    1  C   LIG     1       0.949   2.378  -1.880  1.00  0.00    -0.004 A 
HETATM    2  C   LIG     1       1.009   1.784  -3.143  1.00  0.00     0.123 A 
HETATM    3  C   LIG     1       1.096   3.769  -1.787  1.00  0.00     0.011 A 
HETATM    4  F   LIG     1       0.881   0.454  -3.254  1.00  0.00    -0.206 F 
HETATM    5  C   LIG     1       1.221   2.538  -4.292  1.00  0.00     0.043 A 
HETATM    6  C   LIG     1       1.310   4.533  -2.938  1.00  0.00     0.001 A 
HETATM    7  C   LIG     1       1.375   3.919  -4.190  1.00  0.00     0.003 A 
ENDROOT
BRANCH   1   8
HETATM    8  C   LIG     1       0.729   1.527  -0.662  1.00  0.00     0.199 C 
BRANCH   8   9
HETATM    9  S   LIG     1      -1.020   1.402  -0.321  1.00  0.00     0.234 S 
HETATM   10  O   LIG     1      -1.692   0.670  -1.374  1.00  0.00    -0.211 OA
HETATM   11  O   LIG     1      -1.509   2.679   0.162  1.00  0.00    -0.211 OA
HETATM   12 CL   LIG     1      -1.159   0.168   1.314  1.00  0.00     0.019 Cl
ENDBRANCH   8   9
ENDBRANCH   1   8
TORSDOF 2
