REMARK  2 active torsions:
REMARK  status: ('A' for Active; 'I' for Inactive)
REMARK    1  A    between atoms: S_1  and  C_5 
REMARK    2  A    between atoms: C_5  and  C_9 
ROOT
HETATM    1  C   LIG     1       0.666   5.104   0.743  1.00  0.00     0.001 A 
HETATM    2  C   LIG     1       1.675   5.074   1.704  1.00  0.00     0.007 A 
HETATM    3  C   LIG     1       0.309   3.938   0.067  1.00  0.00     0.008 A 
HETATM    4  C   LIG     1       0.959   2.729   0.347  1.00  0.00    -0.043 A 
HETATM    5  C   LIG     1       2.339   3.878   1.998  1.00  0.00    -0.061 A 
HETATM    6  C   LIG     1       1.981   2.712   1.309  1.00  0.00     0.014 A 
HETATM    7  C   LIG     1       3.444   3.865   3.013  1.00  0.00     0.048 C 
ENDROOT
BRANCH   4   8
HETATM    8  C   LIG     1       0.571   1.466  -0.375  1.00  0.00     0.196 C 
BRANCH   8   9
HETATM    9  S   LIG     1       1.547   1.294  -1.861  1.00  0.00     0.234 S 
HETATM   10  O   LIG     1       2.935   1.057  -1.519  1.00  0.00    -0.211 OA
HETATM   11  O   LIG     1       1.147   2.293  -2.833  1.00  0.00    -0.211 OA
HETATM   12 CL   LIG     1       0.936  -0.479  -2.697  1.00  0.00     0.019 Cl
ENDBRANCH   8   9
ENDBRANCH   4   8
TORSDOF 2
