REMARK  2 active torsions:
REMARK  status: ('A' for Active; 'I' for Inactive)
REMARK    1  A    between atoms: C_4  and  C_9 
REMARK    2  A    between atoms: C_9  and  S_10 
ROOT
HETATM    1  N   LIG     1       0.761  -0.066   0.340  1.00  0.00    -0.191 NA
HETATM    2  C   LIG     1       1.913  -0.032   0.200  1.00  0.00     0.099 C 
HETATM    3  C   LIG     1       3.334   0.011   0.018  1.00  0.00     0.044 A 
HETATM    4  C   LIG     1       6.122   0.094  -0.348  1.00  0.00    -0.043 A 
HETATM    5  C   LIG     1       4.007   1.236   0.020  1.00  0.00     0.023 A 
HETATM    6  C   LIG     1       4.055  -1.173  -0.162  1.00  0.00     0.023 A 
HETATM    7  C   LIG     1       5.440  -1.132  -0.342  1.00  0.00     0.009 A 
HETATM    8  C   LIG     1       5.392   1.277  -0.160  1.00  0.00     0.009 A 
ENDROOT
BRANCH   4   9
HETATM    9  C   LIG     1       7.616   0.137  -0.540  1.00  0.00     0.196 C 
BRANCH   9  10
HETATM   10  S   LIG     1       8.428   0.040   1.049  1.00  0.00     0.234 S 
HETATM   11 CL   LIG     1      10.437   0.063   0.630  1.00  0.00     0.019 Cl
HETATM   12  O   LIG     1       8.205   1.267   1.787  1.00  0.00    -0.211 OA
HETATM   13  O   LIG     1       8.205  -1.267   1.634  1.00  0.00    -0.211 OA
ENDBRANCH   9  10
ENDBRANCH   4   9
TORSDOF 2
