REMARK  2 active torsions:
REMARK  status: ('A' for Active; 'I' for Inactive)
REMARK    1  A    between atoms: S_1  and  C_2 
REMARK    2  A    between atoms: C_2  and  C_3 
ROOT
HETATM    1  C   LIG     1       3.337   1.547   0.236  1.00  0.00    -0.042 A 
HETATM    2  C   LIG     1       2.494   2.653   0.048  1.00  0.00     0.027 A 
HETATM    3  C   LIG     1       4.666   1.765   0.630  1.00  0.00     0.008 A 
HETATM    4  C   LIG     1       2.975   3.946   0.259  1.00  0.00     0.011 A 
HETATM    5  C   LIG     1       5.140   3.062   0.838  1.00  0.00     0.002 A 
HETATM    6  C   LIG     1       4.294   4.155   0.654  1.00  0.00     0.019 A 
HETATM    7 BR   LIG     1       1.828   5.426   0.003  1.00  0.00    -0.051 Br
ENDROOT
BRANCH   1   8
HETATM    8  C   LIG     1       2.828   0.149   0.002  1.00  0.00     0.196 C 
BRANCH   8   9
HETATM    9  S   LIG     1       3.109  -0.313  -1.702  1.00  0.00     0.234 S 
HETATM   10 CL   LIG     1       2.353  -2.213  -1.877  1.00  0.00     0.019 Cl
HETATM   11  O   LIG     1       2.266   0.483  -2.571  1.00  0.00    -0.211 OA
HETATM   12  O   LIG     1       4.530  -0.476  -1.938  1.00  0.00    -0.211 OA
ENDBRANCH   8   9
ENDBRANCH   1   8
TORSDOF 2
