REMARK  1 active torsions:
REMARK  status: ('A' for Active; 'I' for Inactive)
REMARK    1  A    between atoms: C_4  and  S_10 
ROOT
HETATM    1  C   LIG     1      -0.746   1.169  -0.202  1.00  0.00     0.036 A 
HETATM    2  C   LIG     1      -1.396  -0.076  -0.140  1.00  0.00    -0.039 A 
HETATM    3  C   LIG     1      -0.619  -1.238   0.016  1.00  0.00     0.043 A 
HETATM    4  C   LIG     1       0.648   1.239  -0.104  1.00  0.00     0.113 A 
HETATM    5  C   LIG     1       0.773  -1.158   0.108  1.00  0.00     0.068 A 
HETATM    6  C   LIG     1       1.398   0.082   0.045  1.00  0.00     0.140 A 
HETATM    7 CL   LIG     1      -1.343  -2.803   0.100  1.00  0.00    -0.084 Cl
HETATM    8  F   LIG     1       2.732   0.132   0.141  1.00  0.00    -0.204 F 
HETATM    9  C   LIG     1      -2.895  -0.134  -0.246  1.00  0.00     0.050 C 
ENDROOT
BRANCH   4  10
HETATM   10  S   LIG     1       1.474   2.788  -0.194  1.00  0.00     0.265 S 
HETATM   11 CL   LIG     1       2.465   2.898   1.590  1.00  0.00     0.024 Cl
HETATM   12  O   LIG     1       2.475   2.728  -1.237  1.00  0.00    -0.206 OA
HETATM   13  O   LIG     1       0.479   3.841  -0.134  1.00  0.00    -0.206 OA
ENDBRANCH   4  10
TORSDOF 1
