REMARK  2 active torsions:
REMARK  status: ('A' for Active; 'I' for Inactive)
REMARK    1  A    between atoms: S_2  and  C_14 
REMARK    2  A    between atoms: C_8  and  C_11 
ROOT
HETATM    1  C   LIG     1       3.716   2.990   3.050  1.00  0.00    -0.026 A 
HETATM    2  C   LIG     1       3.744   1.657   3.507  1.00  0.00     0.014 A 
HETATM    3  C   LIG     1       3.248   0.603   2.733  1.00  0.00     0.025 A 
HETATM    4  C   LIG     1       2.705   0.870   1.477  1.00  0.00     0.074 A 
HETATM    5  C   LIG     1       2.637   2.179   1.002  1.00  0.00     0.025 A 
HETATM    6  C   LIG     1       3.149   3.223   1.780  1.00  0.00     0.014 A 
ENDROOT
BRANCH   1   7
HETATM    7  C   LIG     1       4.257   4.101   3.871  1.00  0.00    -0.026 A 
HETATM    8  C   LIG     1       3.674   5.381   3.856  1.00  0.00     0.013 A 
HETATM    9  C   LIG     1       4.190   6.432   4.625  1.00  0.00     0.007 A 
HETATM   10  C   LIG     1       5.297   6.230   5.452  1.00  0.00    -0.062 A 
HETATM   11  C   LIG     1       5.895   4.969   5.476  1.00  0.00     0.007 A 
HETATM   12  C   LIG     1       5.861   7.364   6.254  1.00  0.00     0.048 C 
HETATM   13  C   LIG     1       5.382   3.924   4.696  1.00  0.00     0.013 A 
ENDBRANCH   1   7
BRANCH   4  14
HETATM   14  S   LIG     1       2.054  -0.451   0.496  1.00  0.00     0.262 S 
HETATM   15  O   LIG     1       0.975   0.061  -0.324  1.00  0.00    -0.206 OA
HETATM   16  O   LIG     1       1.922  -1.636   1.316  1.00  0.00    -0.206 OA
HETATM   17 CL   LIG     1       3.609  -0.821  -0.777  1.00  0.00     0.024 Cl
ENDBRANCH   4  14
TORSDOF 2
