REMARK  4 active torsions:
REMARK  status: ('A' for Active; 'I' for Inactive)
REMARK    1  A    between atoms: S_1  and  C_2 
REMARK    2  A    between atoms: C_2  and  C_3 
REMARK    3  A    between atoms: C_8  and  C_9 
REMARK    4  A    between atoms: C_9  and  O_10 
ROOT
HETATM    1  C   LIG     1       3.104  -1.309   0.512  1.00  0.00    -0.043 A 
HETATM    2  C   LIG     1       4.206  -1.279   1.382  1.00  0.00     0.009 A 
HETATM    3  C   LIG     1       2.569  -2.548   0.140  1.00  0.00     0.009 A 
HETATM    4  C   LIG     1       4.750  -2.466   1.884  1.00  0.00     0.018 A 
HETATM    5  C   LIG     1       3.119  -3.733   0.630  1.00  0.00     0.018 A 
HETATM    6  C   LIG     1       4.210  -3.702   1.513  1.00  0.00     0.039 A 
ENDROOT
BRANCH   1   7
HETATM    7  C   LIG     1       2.495  -0.034  -0.012  1.00  0.00     0.196 C 
BRANCH   7   8
HETATM    8  S   LIG     1       1.231   0.542   1.115  1.00  0.00     0.234 S 
HETATM    9 CL   LIG     1       0.526   2.286   0.293  1.00  0.00     0.019 Cl
HETATM   10  O   LIG     1       0.093  -0.351   1.075  1.00  0.00    -0.211 OA
HETATM   11  O   LIG     1       1.841   0.965   2.363  1.00  0.00    -0.211 OA
ENDBRANCH   7   8
ENDBRANCH   1   7
BRANCH   6  12
HETATM   12  C   LIG     1       4.807  -4.954   2.065  1.00  0.00     0.292 C 
HETATM   13  O   LIG     1       5.764  -4.988   2.823  1.00  0.00    -0.259 OA
BRANCH  12  14
HETATM   14  O   LIG     1       4.113  -6.016   1.590  1.00  0.00    -0.323 OA
HETATM   15  C   LIG     1       4.567  -7.293   2.036  1.00  0.00     0.213 C 
ENDBRANCH  12  14
ENDBRANCH   6  12
TORSDOF 4
