REMARK  2 active torsions:
REMARK  status: ('A' for Active; 'I' for Inactive)
REMARK    1  A    between atoms: C_2  and  S_11 
REMARK    2  A    between atoms: C_5  and  C_6 
ROOT
HETATM    1  S   LIG     1       1.323  -1.230  -0.200  1.00  0.00    -0.077 SA
HETATM    2  C   LIG     1      -0.364  -1.391   0.033  1.00  0.00     0.116 A 
HETATM    3  C   LIG     1      -0.961  -0.169   0.272  1.00  0.00     0.033 A 
HETATM    4  C   LIG     1      -0.020   0.900   0.263  1.00  0.00     0.021 A 
HETATM    5  C   LIG     1       1.271   0.472   0.007  1.00  0.00     0.038 A 
ENDROOT
BRANCH   5   6
HETATM    6  C   LIG     1       2.532   1.278  -0.097  1.00  0.00     0.301 C 
HETATM    7  O   LIG     1       3.102   1.381   1.214  1.00  0.00    -0.354 OA
HETATM    8  C   LIG     1       2.886   2.737   1.600  1.00  0.00     0.197 C 
HETATM    9  C   LIG     1       2.855   3.480   0.292  1.00  0.00     0.197 C 
HETATM   10  O   LIG     1       2.191   2.580  -0.592  1.00  0.00    -0.354 OA
ENDBRANCH   5   6
BRANCH   2  11
HETATM   11  S   LIG     1      -1.016  -3.037  -0.076  1.00  0.00     0.268 S 
HETATM   12 CL   LIG     1      -0.605  -3.759  -1.943  1.00  0.00     0.024 Cl
HETATM   13  O   LIG     1      -0.264  -3.850   0.858  1.00  0.00    -0.205 OA
HETATM   14  O   LIG     1      -2.455  -2.896  -0.013  1.00  0.00    -0.205 OA
ENDBRANCH   2  11
TORSDOF 2
