REMARK  2 active torsions:
REMARK  status: ('A' for Active; 'I' for Inactive)
REMARK    1  A    between atoms: S_2  and  C_14 
REMARK    2  A    between atoms: C_8  and  C_11 
ROOT
HETATM    1  C   LIG     1       3.293   3.779  -2.221  1.00  0.00    -0.026 A 
HETATM    2  C   LIG     1       3.624   2.544  -2.812  1.00  0.00     0.014 A 
HETATM    3  C   LIG     1       3.419   1.332  -2.143  1.00  0.00     0.025 A 
HETATM    4  C   LIG     1       2.875   1.338  -0.858  1.00  0.00     0.074 A 
HETATM    5  C   LIG     1       2.554   2.543  -0.235  1.00  0.00     0.025 A 
HETATM    6  C   LIG     1       2.755   3.748  -0.918  1.00  0.00     0.014 A 
ENDROOT
BRANCH   1   7
HETATM    7  C   LIG     1       3.504   5.060  -2.938  1.00  0.00    -0.026 A 
HETATM    8  C   LIG     1       3.904   6.227  -2.257  1.00  0.00     0.015 A 
HETATM    9  C   LIG     1       4.096   7.437  -2.931  1.00  0.00     0.043 A 
HETATM   10  C   LIG     1       3.902   7.494  -4.303  1.00  0.00     0.116 A 
HETATM   11  C   LIG     1       3.515   6.367  -5.011  1.00  0.00     0.043 A 
HETATM   12  F   LIG     1       4.090   8.651  -4.951  1.00  0.00    -0.206 F 
HETATM   13  C   LIG     1       3.312   5.161  -4.331  1.00  0.00     0.015 A 
ENDBRANCH   1   7
BRANCH   4  14
HETATM   14  S   LIG     1       2.632  -0.194  -0.008  1.00  0.00     0.262 S 
HETATM   15  O   LIG     1       2.095   0.068   1.310  1.00  0.00    -0.206 OA
HETATM   16  O   LIG     1       3.789  -1.037  -0.234  1.00  0.00    -0.206 OA
HETATM   17 CL   LIG     1       1.099  -1.028  -1.072  1.00  0.00     0.024 Cl
ENDBRANCH   4  14
TORSDOF 2
