REMARK  1 active torsions:
REMARK  status: ('A' for Active; 'I' for Inactive)
REMARK    1  A    between atoms: C_4  and  S_6 
ROOT
HETATM    1  C   LIG     1       1.990   1.066   0.158  1.00  0.00     0.046 A 
HETATM    2  C   LIG     1       2.264  -0.309   0.191  1.00  0.00     0.013 A 
HETATM    3  C   LIG     1       1.240  -1.253   0.083  1.00  0.00     0.029 A 
HETATM    4  C   LIG     1       0.667   1.506   0.013  1.00  0.00     0.109 A 
HETATM    5 BR   LIG     1       4.053  -0.895   0.375  1.00  0.00    -0.051 Br
HETATM    6  C   LIG     1      -0.060  -0.792  -0.044  1.00  0.00    -0.020 A 
HETATM    7  C   LIG     1      -0.341   0.568  -0.078  1.00  0.00     0.098 A 
HETATM    8  O   LIG     1      -1.676   0.830  -0.234  1.00  0.00    -0.349 OA
HETATM    9  C   LIG     1      -2.319  -0.442   0.019  1.00  0.00     0.180 C 
HETATM   10  C   LIG     1      -1.311  -1.561  -0.233  1.00  0.00     0.068 C 
ENDROOT
BRANCH   4  11
HETATM   11  S   LIG     1       0.306   3.225  -0.023  1.00  0.00     0.264 S 
HETATM   12 CL   LIG     1      -0.649   3.479  -1.814  1.00  0.00     0.024 Cl
HETATM   13  O   LIG     1      -0.651   3.533   1.018  1.00  0.00    -0.206 OA
HETATM   14  O   LIG     1       1.552   3.952  -0.164  1.00  0.00    -0.206 OA
ENDBRANCH   4  11
TORSDOF 1
