REMARK  1 active torsions:
REMARK  status: ('A' for Active; 'I' for Inactive)
REMARK    1  A    between atoms: S_1  and  C_2 
ROOT
HETATM    1  C   LIG     1       0.374  -0.220   1.509  1.00  0.00     0.081 A 
HETATM    2  C   LIG     1      -0.127   0.883   2.227  1.00  0.00    -0.039 A 
HETATM    3  C   LIG     1       0.385  -1.502   2.087  1.00  0.00     0.032 A 
HETATM    4  C   LIG     1      -0.614   0.660   3.525  1.00  0.00     0.009 A 
HETATM    5  C   LIG     1      -0.098  -1.706   3.384  1.00  0.00    -0.060 A 
HETATM    6  C   LIG     1      -0.610  -0.617   4.092  1.00  0.00     0.007 A 
HETATM    7  C   LIG     1      -0.137   2.291   1.699  1.00  0.00     0.050 C 
HETATM    8  C   LIG     1      -0.120  -3.082   3.983  1.00  0.00     0.048 C 
ENDROOT
BRANCH   1   9
HETATM    9  S   LIG     1       1.042  -0.062  -0.134  1.00  0.00     0.262 S 
HETATM   10  O   LIG     1       1.656  -1.316  -0.524  1.00  0.00    -0.206 OA
HETATM   11  O   LIG     1       1.731   1.204  -0.267  1.00  0.00    -0.206 OA
HETATM   12 CL   LIG     1      -0.654   0.078  -1.268  1.00  0.00     0.024 Cl
ENDBRANCH   1   9
TORSDOF 1
