REMARK  3 active torsions:
REMARK  status: ('A' for Active; 'I' for Inactive)
REMARK    1  A    between atoms: C_5  and  O_6 
REMARK    2  A    between atoms: O_6  and  C_7 
REMARK    3  A    between atoms: C_10  and  S_14 
ROOT
HETATM    1  C   LIG     1       4.747  -3.119  -0.562  1.00  0.00     0.076 A 
HETATM    2  C   LIG     1       5.932  -3.409   0.123  1.00  0.00     0.039 A 
HETATM    3  C   LIG     1       6.759  -4.481  -0.223  1.00  0.00     0.027 A 
HETATM    4  C   LIG     1       6.364  -5.335  -1.246  1.00  0.00     0.074 A 
HETATM    5  C   LIG     1       5.173  -5.101  -1.933  1.00  0.00     0.027 A 
HETATM    6  C   LIG     1       4.359  -4.008  -1.584  1.00  0.00     0.039 A 
ENDROOT
BRANCH   1   7
HETATM    7  O   LIG     1       3.915  -2.030  -0.305  1.00  0.00    -0.311 OA
BRANCH   7   8
HETATM    8  C   LIG     1       4.219  -1.125   0.702  1.00  0.00     0.076 C 
HETATM    9  C   LIG     1       3.181  -0.659   1.517  1.00  0.00     0.037 C 
HETATM   10  C   LIG     1       3.468   0.112   2.655  1.00  0.00     0.003 C 
HETATM   11  C   LIG     1       4.790   0.383   3.005  1.00  0.00     0.000 C 
HETATM   12  C   LIG     1       5.809   0.023   2.132  1.00  0.00     0.003 C 
HETATM   13  C   LIG     1       5.503  -0.629   0.935  1.00  0.00     0.037 C 
ENDBRANCH   7   8
ENDBRANCH   1   7
BRANCH   4  14
HETATM   14  S   LIG     1       7.379  -6.748  -1.581  1.00  0.00     0.262 S 
HETATM   15 CL   LIG     1       6.070  -8.288  -1.283  1.00  0.00     0.024 Cl
HETATM   16  O   LIG     1       7.674  -6.751  -3.017  1.00  0.00    -0.206 OA
HETATM   17  O   LIG     1       8.396  -6.886  -0.577  1.00  0.00    -0.206 OA
ENDBRANCH   4  14
TORSDOF 3
