REMARK  1 active torsions:
REMARK  status: ('A' for Active; 'I' for Inactive)
REMARK    1  A    between atoms: C_2  and  S_6 
ROOT
HETATM    1  S   LIG     1       1.172   0.900  -0.339  1.00  0.00    -0.088 SA
HETATM    2  C   LIG     1       1.011  -0.773   0.006  1.00  0.00     0.132 A 
HETATM    3  C   LIG     1      -0.311  -1.099   0.206  1.00  0.00     0.041 A 
HETATM    4  C   LIG     1      -1.194   0.007   0.096  1.00  0.00     0.028 A 
HETATM    5  C   LIG     1      -0.512   1.167  -0.198  1.00  0.00     0.052 A 
HETATM    6 BR   LIG     1      -0.980  -2.824   0.589  1.00  0.00    -0.049 Br
ENDROOT
BRANCH   2   7
HETATM    7  S   LIG     1       2.497  -1.734   0.018  1.00  0.00     0.269 S 
HETATM    8 CL   LIG     1       2.596  -2.675   1.831  1.00  0.00     0.024 Cl
HETATM    9  O   LIG     1       2.300  -2.778  -0.965  1.00  0.00    -0.205 OA
HETATM   10  O   LIG     1       3.629  -0.833  -0.008  1.00  0.00    -0.205 OA
ENDBRANCH   2   7
TORSDOF 1
