REMARK  1 active torsions:
REMARK  status: ('A' for Active; 'I' for Inactive)
REMARK    1  A    between atoms: C_5  and  S_6 
ROOT
HETATM    1  O   LIG     1       0.837  -0.614   0.262  1.00  0.00    -0.303 OA
HETATM    2  C   LIG     1      -0.440  -1.033   0.056  1.00  0.00     0.051 A 
HETATM    3  C   LIG     1      -1.235   0.027  -0.310  1.00  0.00     0.036 A 
HETATM    4  C   LIG     1      -0.390   1.161  -0.329  1.00  0.00     0.053 A 
HETATM    5  C   LIG     1       0.889   0.746   0.027  1.00  0.00     0.185 A 
HETATM    6  C   LIG     1      -0.694  -2.474   0.255  1.00  0.00     0.076 C 
ENDROOT
BRANCH   5   7
HETATM    7  S   LIG     1       2.409   1.666   0.193  1.00  0.00     0.284 S 
HETATM    8 CL   LIG     1       3.520   0.777   1.656  1.00  0.00     0.026 Cl
HETATM    9  O   LIG     1       3.130   1.480  -1.048  1.00  0.00    -0.204 OA
HETATM   10  O   LIG     1       2.030   2.968   0.702  1.00  0.00    -0.204 OA
ENDBRANCH   5   7
TORSDOF 1
