REMARK  1 active torsions:
REMARK  status: ('A' for Active; 'I' for Inactive)
REMARK    1  A    between atoms: C_2  and  S_12 
ROOT
HETATM    1  S   LIG     1       1.727   1.461   0.092  1.00  0.00    -0.076 SA
HETATM    2  C   LIG     1       2.526  -0.041   0.003  1.00  0.00     0.122 A 
HETATM    3  C   LIG     1       1.636  -1.105  -0.064  1.00  0.00    -0.021 A 
HETATM    4  C   LIG     1       0.173   0.735   0.088  1.00  0.00     0.017 A 
HETATM    5  C   LIG     1       0.258  -0.657   0.003  1.00  0.00    -0.009 A 
HETATM    6  C   LIG     1      -0.958  -1.389  -0.008  1.00  0.00     0.037 A 
HETATM    7  C   LIG     1      -2.187  -0.727   0.063  1.00  0.00     0.035 A 
HETATM    8  C   LIG     1      -2.243   0.655   0.144  1.00  0.00     0.025 A 
HETATM    9  C   LIG     1      -1.066   1.405   0.158  1.00  0.00     0.021 A 
HETATM   10  C   LIG     1       2.061  -2.537  -0.181  1.00  0.00     0.051 C 
HETATM   11 CL   LIG     1      -3.645  -1.641   0.048  1.00  0.00    -0.084 Cl
ENDROOT
BRANCH   2  12
HETATM   12  S   LIG     1       4.306   0.053  -0.018  1.00  0.00     0.269 S 
HETATM   13 CL   LIG     1       4.928   1.286   1.489  1.00  0.00     0.024 Cl
HETATM   14  O   LIG     1       4.780  -1.267   0.342  1.00  0.00    -0.205 OA
HETATM   15  O   LIG     1       4.663   0.702  -1.261  1.00  0.00    -0.205 OA
ENDBRANCH   2  12
TORSDOF 1
