REMARK  1 active torsions:
REMARK  status: ('A' for Active; 'I' for Inactive)
REMARK    1  A    between atoms: S_1  and  C_2 
ROOT
HETATM    1  C   LIG     1       0.356  -0.494   1.544  1.00  0.00     0.080 A 
HETATM    2  C   LIG     1      -0.382   0.421   2.324  1.00  0.00    -0.038 A 
HETATM    3  C   LIG     1       0.660  -1.772   2.045  1.00  0.00     0.026 A 
HETATM    4  C   LIG     1      -0.799   0.017   3.607  1.00  0.00     0.027 A 
HETATM    5  C   LIG     1      -0.499  -1.258   4.090  1.00  0.00     0.011 A 
HETATM    6  C   LIG     1       0.228  -2.154   3.315  1.00  0.00     0.020 A 
HETATM    7 BR   LIG     1      -1.081  -1.768   5.815  1.00  0.00    -0.051 Br
HETATM    8  C   LIG     1      -0.713   1.820   1.882  1.00  0.00     0.050 C 
ENDROOT
BRANCH   1   9
HETATM    9  S   LIG     1       0.973  -0.084  -0.078  1.00  0.00     0.262 S 
HETATM   10  O   LIG     1       1.855  -1.141  -0.530  1.00  0.00    -0.206 OA
HETATM   11  O   LIG     1       1.358   1.310  -0.118  1.00  0.00    -0.206 OA
HETATM   12 CL   LIG     1      -0.710  -0.260  -1.225  1.00  0.00     0.024 Cl
ENDBRANCH   1   9
TORSDOF 1
