REMARK  1 active torsions:
REMARK  status: ('A' for Active; 'I' for Inactive)
REMARK    1  A    between atoms: S_1  and  C_2 
ROOT
HETATM    1  C   LIG     1       0.462   1.579   0.416  1.00  0.00     0.096 A 
HETATM    2  C   LIG     1       1.246   2.719   0.202  1.00  0.00     0.056 A 
HETATM    3 CL   LIG     1       2.816   2.681  -0.517  1.00  0.00    -0.083 Cl
HETATM    4  C   LIG     1      -0.801   1.708   1.014  1.00  0.00     0.026 A 
HETATM    5  C   LIG     1       0.763   3.976   0.584  1.00  0.00     0.025 A 
HETATM    6  C   LIG     1      -1.273   2.968   1.392  1.00  0.00     0.002 A 
HETATM    7  C   LIG     1      -0.493   4.101   1.176  1.00  0.00     0.002 A 
ENDROOT
BRANCH   1   8
HETATM    8  S   LIG     1       1.098   0.006  -0.079  1.00  0.00     0.263 S 
HETATM    9  O   LIG     1       2.195  -0.339   0.799  1.00  0.00    -0.206 OA
HETATM   10  O   LIG     1       1.189  -0.017  -1.524  1.00  0.00    -0.206 OA
HETATM   11 CL   LIG     1      -0.351  -1.379   0.353  1.00  0.00     0.024 Cl
ENDBRANCH   1   8
TORSDOF 1
