REMARK  3 active torsions:
REMARK  status: ('A' for Active; 'I' for Inactive)
REMARK    1  A    between atoms: S_1  and  C_3 
REMARK    2  A    between atoms: C_2  and  C_4 
REMARK    3  A    between atoms: C_4  and  O_9 
ROOT
HETATM    1  C   LIG     1       1.064  -2.712  -0.005  1.00  0.00     0.062 A 
HETATM    2  C   LIG     1       0.786  -1.493  -0.640  1.00  0.00     0.091 A 
HETATM    3  C   LIG     1       0.445  -3.880  -0.503  1.00  0.00     0.019 A 
HETATM    4  C   LIG     1      -0.038  -1.470  -1.785  1.00  0.00     0.026 A 
HETATM    5  C   LIG     1      -0.393  -3.843  -1.618  1.00  0.00     0.001 A 
HETATM    6  C   LIG     1      -0.626  -2.639  -2.265  1.00  0.00     0.002 A 
ENDROOT
BRANCH   1   7
HETATM    7  C   LIG     1       1.895  -2.855   1.222  1.00  0.00     0.294 C 
HETATM    8  O   LIG     1       2.000  -1.998   2.085  1.00  0.00    -0.259 OA
BRANCH   7   9
HETATM    9  O   LIG     1       2.402  -4.110   1.278  1.00  0.00    -0.322 OA
HETATM   10  C   LIG     1       2.979  -4.514   2.523  1.00  0.00     0.213 C 
ENDBRANCH   7   9
ENDBRANCH   1   7
BRANCH   2  11
HETATM   11  S   LIG     1       1.454   0.061  -0.108  1.00  0.00     0.263 S 
HETATM   12  O   LIG     1       1.007   1.082  -1.036  1.00  0.00    -0.206 OA
HETATM   13  O   LIG     1       2.858  -0.095   0.207  1.00  0.00    -0.206 OA
HETATM   14 CL   LIG     1       0.421   0.471   1.607  1.00  0.00     0.024 Cl
ENDBRANCH   2  11
TORSDOF 3
