REMARK  1 active torsions:
REMARK  status: ('A' for Active; 'I' for Inactive)
REMARK    1  A    between atoms: S_1  and  C_2 
ROOT
HETATM    1  C   LIG     1       0.531   1.584  -0.724  1.00  0.00     0.097 A 
HETATM    2  C   LIG     1       0.687   2.837  -0.122  1.00  0.00     0.058 A 
HETATM    3  C   LIG     1       0.095   1.504  -2.057  1.00  0.00     0.035 A 
HETATM    4  C   LIG     1       0.411   3.998  -0.851  1.00  0.00     0.050 A 
HETATM    5  C   LIG     1      -0.020   3.916  -2.176  1.00  0.00     0.041 A 
HETATM    6  C   LIG     1      -0.185   2.669  -2.794  1.00  0.00    -0.039 A 
HETATM    7 CL   LIG     1       1.207   3.056   1.510  1.00  0.00    -0.083 Cl
HETATM    8 CL   LIG     1      -0.342   5.391  -3.014  1.00  0.00    -0.084 Cl
HETATM    9  C   LIG     1      -0.651   2.549  -4.221  1.00  0.00     0.050 C 
ENDROOT
BRANCH   1  10
HETATM   10  S   LIG     1       0.893   0.134   0.226  1.00  0.00     0.263 S 
HETATM   11  O   LIG     1      -0.127  -0.005   1.243  1.00  0.00    -0.206 OA
HETATM   12  O   LIG     1       2.313   0.115   0.503  1.00  0.00    -0.206 OA
HETATM   13 CL   LIG     1       0.601  -1.473  -1.013  1.00  0.00     0.024 Cl
ENDBRANCH   1  10
TORSDOF 1
