REMARK  2 active torsions:
REMARK  status: ('A' for Active; 'I' for Inactive)
REMARK    1  A    between atoms: S_1  and  C_3 
REMARK    2  A    between atoms: N_2  and  C_4 
ROOT
HETATM    1  C   LIG     1       0.397  -0.457  -1.603  1.00  0.00     0.074 A 
HETATM    2  C   LIG     1      -0.154  -1.134  -4.246  1.00  0.00     0.102 A 
HETATM    3  C   LIG     1       0.320  -1.806  -1.968  1.00  0.00     0.027 A 
HETATM    4  C   LIG     1       0.219   0.556  -2.554  1.00  0.00     0.027 A 
HETATM    5  C   LIG     1      -0.063   0.217  -3.880  1.00  0.00     0.037 A 
HETATM    6  C   LIG     1       0.039  -2.147  -3.295  1.00  0.00     0.037 A 
ENDROOT
BRANCH   1   7
HETATM    7  S   LIG     1       0.785  -0.019   0.073  1.00  0.00     0.262 S 
HETATM    8  O   LIG     1       1.476   1.253   0.071  1.00  0.00    -0.206 OA
HETATM    9  O   LIG     1       1.287  -1.189   0.761  1.00  0.00    -0.206 OA
HETATM   10 CL   LIG     1      -1.073   0.337   0.841  1.00  0.00     0.024 Cl
ENDBRANCH   1   7
BRANCH   2  11
HETATM   11  N   LIG     1      -0.450  -1.492  -5.641  1.00  0.00    -0.116 N 
HETATM   12  O   LIG     1      -0.610  -0.568  -6.450  1.00  0.00    -0.532 OA
HETATM   13  O   LIG     1      -0.524  -2.697  -5.922  1.00  0.00    -0.532 OA
ENDBRANCH   2  11
TORSDOF 2
