REMARK  1 active torsions:
REMARK  status: ('A' for Active; 'I' for Inactive)
REMARK    1  A    between atoms: S_1  and  C_2 
ROOT
HETATM    1  C   LIG     1       0.430   1.486   0.713  1.00  0.00     0.151 A 
HETATM    2  C   LIG     1       0.224   1.469   2.084  1.00  0.00     0.142 A 
HETATM    3  C   LIG     1       0.413   2.698   0.036  1.00  0.00     0.142 A 
HETATM    4  F   LIG     1       0.199   0.325   2.778  1.00  0.00    -0.204 F 
HETATM    5  F   LIG     1       0.585   2.751  -1.291  1.00  0.00    -0.204 F 
HETATM    6  C   LIG     1       0.019   3.877   2.103  1.00  0.00     0.006 A 
HETATM    7  C   LIG     1       0.023   2.659   2.783  1.00  0.00     0.044 A 
HETATM    8  C   LIG     1       0.213   3.894   0.723  1.00  0.00     0.044 A 
ENDROOT
BRANCH   1   9
HETATM    9  S   LIG     1       0.672   0.009  -0.178  1.00  0.00     0.268 S 
HETATM   10  O   LIG     1      -0.366  -0.102  -1.182  1.00  0.00    -0.206 OA
HETATM   11  O   LIG     1       0.995  -1.079   0.721  1.00  0.00    -0.206 OA
HETATM   12 CL   LIG     1       2.422   0.344  -1.190  1.00  0.00     0.024 Cl
ENDBRANCH   1   9
TORSDOF 1
