REMARK  2 active torsions:
REMARK  status: ('A' for Active; 'I' for Inactive)
REMARK    1  A    between atoms: S_1  and  C_2 
REMARK    2  A    between atoms: C_3  and  C_5 
ROOT
HETATM    1  C   LIG     1       0.451  -0.472  -1.504  1.00  0.00     0.096 A 
HETATM    2  C   LIG     1      -0.040   0.217  -2.613  1.00  0.00     0.057 A 
HETATM    3  C   LIG     1       0.100  -1.828  -3.946  1.00  0.00     0.049 A 
HETATM    4  C   LIG     1       0.762  -1.837  -1.610  1.00  0.00     0.027 A 
HETATM    5  C   LIG     1      -0.211  -0.463  -3.828  1.00  0.00     0.041 A 
HETATM    6  C   LIG     1       0.590  -2.507  -2.823  1.00  0.00     0.018 A 
HETATM    7 CL   LIG     1      -0.453   1.892  -2.608  1.00  0.00    -0.083 Cl
ENDROOT
BRANCH   1   8
HETATM    8  S   LIG     1       0.666   0.311   0.067  1.00  0.00     0.263 S 
HETATM    9  O   LIG     1       1.238  -0.653   0.987  1.00  0.00    -0.206 OA
HETATM   10  O   LIG     1      -0.521   1.068   0.398  1.00  0.00    -0.206 OA
HETATM   11 CL   LIG     1       2.169   1.649  -0.284  1.00  0.00     0.024 Cl
ENDBRANCH   1   8
BRANCH   3  12
HETATM   12  C   LIG     1      -0.088  -2.566  -5.252  1.00  0.00     0.417 C 
HETATM   13  F   LIG     1      -0.575  -1.782  -6.252  1.00  0.00    -0.166 F 
HETATM   14  F   LIG     1       1.077  -3.092  -5.719  1.00  0.00    -0.166 F 
HETATM   15  F   LIG     1      -0.953  -3.609  -5.135  1.00  0.00    -0.166 F 
ENDBRANCH   3  12
TORSDOF 2
