REMARK  5 active torsions:
REMARK  status: ('A' for Active; 'I' for Inactive)
REMARK    1  A    between atoms: C_2  and  C_20 
REMARK    2  A    between atoms: C_3  and  S_11 
REMARK    3  A    between atoms: C_4  and  C_6 
REMARK    4  A    between atoms: C_5  and  C_7 
REMARK    5  A    between atoms: C_20  and  O_22 
ROOT
HETATM    1  S   LIG     1      -0.250  -1.190   0.276  1.00  0.00    -0.077 SA
HETATM    2  C   LIG     1       1.267  -0.437   0.328  1.00  0.00     0.104 C 
HETATM    3  C   LIG     1       1.169   0.905  -0.012  1.00  0.00     0.110 C 
HETATM    4  C   LIG     1      -0.229   1.378  -0.080  1.00  0.00     0.020 C 
HETATM    5  C   LIG     1      -1.099   0.283   0.043  1.00  0.00     0.102 C 
ENDROOT
BRANCH   4   6
HETATM    6  C   LIG     1      -0.725   2.779  -0.237  1.00  0.00    -0.023 A 
HETATM    7  C   LIG     1      -1.895   3.089  -0.954  1.00  0.00     0.012 A 
HETATM    8  C   LIG     1      -2.382   4.398  -1.066  1.00  0.00     0.001 A 
HETATM    9  C   LIG     1      -1.667   5.457  -0.525  1.00  0.00     0.000 A 
HETATM   10  C   LIG     1      -0.487   5.188   0.165  1.00  0.00     0.001 A 
HETATM   11  C   LIG     1      -0.049   3.868   0.338  1.00  0.00     0.012 A 
ENDBRANCH   4   6
BRANCH   3  12
HETATM   12  S   LIG     1       2.591   1.872  -0.313  1.00  0.00     0.264 S 
HETATM   13 CL   LIG     1       4.050   0.746  -1.200  1.00  0.00     0.024 Cl
HETATM   14  O   LIG     1       2.204   2.821  -1.340  1.00  0.00    -0.206 OA
HETATM   15  O   LIG     1       3.070   2.258   0.995  1.00  0.00    -0.206 OA
ENDBRANCH   3  12
BRANCH   5  16
HETATM   16  C   LIG     1      -2.600   0.151   0.024  1.00  0.00     0.424 C 
HETATM   17  F   LIG     1      -3.037  -1.099   0.340  1.00  0.00    -0.166 F 
HETATM   18  F   LIG     1      -3.203   0.991   0.903  1.00  0.00    -0.166 F 
HETATM   19  F   LIG     1      -3.123   0.405  -1.206  1.00  0.00    -0.166 F 
ENDBRANCH   5  16
BRANCH   2  20
HETATM   20  C   LIG     1       2.384  -1.290   0.690  1.00  0.00     0.301 C 
HETATM   21  O   LIG     1       2.497  -2.476   0.408  1.00  0.00    -0.259 OA
BRANCH  20  22
HETATM   22  O   LIG     1       3.258  -0.607   1.477  1.00  0.00    -0.322 OA
HETATM   23  C   LIG     1       4.294  -1.423   2.033  1.00  0.00     0.213 C 
ENDBRANCH  20  22
ENDBRANCH   2  20
TORSDOF 5
