REMARK  1 active torsions:
REMARK  status: ('A' for Active; 'I' for Inactive)
REMARK    1  A    between atoms: S_1  and  C_2 
ROOT
HETATM    1  C   LIG     1       0.314  -1.547  -0.251  1.00  0.00     0.096 A 
HETATM    2  C   LIG     1      -0.803  -1.877  -1.029  1.00  0.00     0.058 A 
HETATM    3  N   LIG     1      -0.900  -6.728  -1.187  1.00  0.00    -0.191 NA
HETATM    4  C   LIG     1       1.110  -2.569   0.288  1.00  0.00     0.028 A 
HETATM    5  C   LIG     1      -0.642  -5.615  -0.987  1.00  0.00     0.099 C 
HETATM    6  C   LIG     1      -1.114  -3.222  -1.270  1.00  0.00     0.048 A 
HETATM    7  C   LIG     1      -0.319  -4.240  -0.737  1.00  0.00     0.046 A 
HETATM    8 CL   LIG     1      -1.864  -0.706  -1.725  1.00  0.00    -0.083 Cl
HETATM    9  C   LIG     1       0.791  -3.910   0.043  1.00  0.00     0.024 A 
ENDROOT
BRANCH   1  10
HETATM   10  S   LIG     1       0.683   0.163   0.026  1.00  0.00     0.263 S 
HETATM   11  O   LIG     1      -0.311   0.694   0.935  1.00  0.00    -0.206 OA
HETATM   12  O   LIG     1       1.017   0.768  -1.245  1.00  0.00    -0.206 OA
HETATM   13 CL   LIG     1       2.435   0.222   1.087  1.00  0.00     0.024 Cl
ENDBRANCH   1  10
TORSDOF 1
