REMARK  2 active torsions:
REMARK  status: ('A' for Active; 'I' for Inactive)
REMARK    1  A    between atoms: S_1  and  C_2 
REMARK    2  A    between atoms: C_3  and  C_6 
ROOT
HETATM    1  C   LIG     1       0.362  -0.613  -1.377  1.00  0.00     0.118 A 
HETATM    2  C   LIG     1      -0.117   0.161  -2.444  1.00  0.00     0.059 A 
HETATM    3  C   LIG     1       0.486  -2.002  -1.559  1.00  0.00     0.059 A 
HETATM    4  C   LIG     1      -0.267  -1.821  -3.871  1.00  0.00     0.051 A 
HETATM    5  C   LIG     1       0.183  -2.592  -2.797  1.00  0.00     0.041 A 
HETATM    6  C   LIG     1      -0.417  -0.445  -3.677  1.00  0.00     0.041 A 
HETATM    7 CL   LIG     1      -0.437   1.856  -2.394  1.00  0.00    -0.083 Cl
HETATM    8 CL   LIG     1       0.965  -3.119  -0.327  1.00  0.00    -0.083 Cl
ENDROOT
BRANCH   1   9
HETATM    9  S   LIG     1       0.761   0.101   0.192  1.00  0.00     0.265 S 
HETATM   10  O   LIG     1      -0.010  -0.573   1.215  1.00  0.00    -0.206 OA
HETATM   11  O   LIG     1       0.830   1.543   0.124  1.00  0.00    -0.206 OA
HETATM   12 CL   LIG     1       2.722  -0.426   0.478  1.00  0.00     0.024 Cl
ENDBRANCH   1   9
BRANCH   4  13
HETATM   13  C   LIG     1      -0.609  -2.443  -5.204  1.00  0.00     0.417 C 
HETATM   14  F   LIG     1      -0.432  -3.791  -5.232  1.00  0.00    -0.166 F 
HETATM   15  F   LIG     1      -1.903  -2.224  -5.556  1.00  0.00    -0.166 F 
HETATM   16  F   LIG     1       0.150  -1.941  -6.214  1.00  0.00    -0.166 F 
ENDBRANCH   4  13
TORSDOF 2
