REMARK  1 active torsions:
REMARK  status: ('A' for Active; 'I' for Inactive)
REMARK    1  A    between atoms: C_2  and  S_8 
ROOT
HETATM    1  S   LIG     1       1.239  -0.839   0.334  1.00  0.00    -0.064 SA
HETATM    2  C   LIG     1      -0.422  -1.167   0.061  1.00  0.00     0.118 A 
HETATM    3  C   LIG     1      -1.144  -0.005  -0.152  1.00  0.00     0.053 A 
HETATM    4  C   LIG     1      -0.316   1.146  -0.086  1.00  0.00     0.041 A 
HETATM    5  C   LIG     1       0.991   0.831   0.171  1.00  0.00     0.093 A 
HETATM    6 BR   LIG     1      -1.029   2.875  -0.336  1.00  0.00    -0.049 Br
HETATM    7 CL   LIG     1       2.333   1.891   0.338  1.00  0.00    -0.075 Cl
ENDROOT
BRANCH   2   8
HETATM    8  S   LIG     1      -0.899  -2.874   0.092  1.00  0.00     0.268 S 
HETATM    9 CL   LIG     1      -0.345  -3.668   1.890  1.00  0.00     0.024 Cl
HETATM   10  O   LIG     1      -2.347  -2.863   0.089  1.00  0.00    -0.205 OA
HETATM   11  O   LIG     1      -0.113  -3.540  -0.923  1.00  0.00    -0.205 OA
ENDBRANCH   2   8
TORSDOF 1
