REMARK  3 active torsions:
REMARK  status: ('A' for Active; 'I' for Inactive)
REMARK    1  A    between atoms: C_3  and  S_11 
REMARK    2  A    between atoms: C_4  and  C_6 
REMARK    3  A    between atoms: C_5  and  C_7 
ROOT
HETATM    1  S   LIG     1      -0.609  -1.303   0.076  1.00  0.00    -0.095 SA
HETATM    2  C   LIG     1      -1.336   0.221  -0.003  1.00  0.00     0.075 A 
HETATM    3  C   LIG     1      -0.415   1.247  -0.059  1.00  0.00     0.093 A 
HETATM    4  C   LIG     1       0.958   0.764   0.004  1.00  0.00     0.019 A 
HETATM    5  C   LIG     1       0.980  -0.638   0.075  1.00  0.00     0.101 A 
ENDROOT
BRANCH   4   6
HETATM    6  C   LIG     1       2.204   1.554   0.007  1.00  0.00    -0.023 A 
HETATM    7  C   LIG     1       3.259   1.257  -0.869  1.00  0.00     0.012 A 
HETATM    8  C   LIG     1       4.442   2.004  -0.864  1.00  0.00     0.001 A 
HETATM    9  C   LIG     1       4.559   3.114  -0.037  1.00  0.00     0.000 A 
HETATM   10  C   LIG     1       3.515   3.442   0.822  1.00  0.00     0.001 A 
HETATM   11  C   LIG     1       2.365   2.645   0.872  1.00  0.00     0.012 A 
ENDBRANCH   4   6
BRANCH   3  12
HETATM   12  S   LIG     1      -0.980   2.892  -0.178  1.00  0.00     0.263 S 
HETATM   13 CL   LIG     1      -1.243   3.595   1.721  1.00  0.00     0.024 Cl
HETATM   14  O   LIG     1       0.080   3.672  -0.780  1.00  0.00    -0.206 OA
HETATM   15  O   LIG     1      -2.304   2.802  -0.749  1.00  0.00    -0.206 OA
ENDBRANCH   3  12
BRANCH   5  16
HETATM   16  C   LIG     1       2.125  -1.614   0.175  1.00  0.00     0.424 C 
HETATM   17  F   LIG     1       1.716  -2.910   0.269  1.00  0.00    -0.166 F 
HETATM   18  F   LIG     1       2.941  -1.575  -0.909  1.00  0.00    -0.166 F 
HETATM   19  F   LIG     1       2.894  -1.379   1.268  1.00  0.00    -0.166 F 
ENDBRANCH   5  16
TORSDOF 3
