REMARK  4 active torsions:
REMARK  status: ('A' for Active; 'I' for Inactive)
REMARK    1  A    between atoms: S_1  and  C_2 
REMARK    2  A    between atoms: C_3  and  C_4 
REMARK    3  A    between atoms: C_4  and  O_12 
REMARK    4  A    between atoms: O_12  and  C_15 
ROOT
HETATM    1  C   LIG     1       0.933   1.614   0.014  1.00  0.00     0.106 A 
HETATM    2  C   LIG     1      -0.455   1.763   0.043  1.00  0.00     0.064 A 
HETATM    3  N   LIG     1       1.182   4.017   0.109  1.00  0.00    -0.374 N 
ATOM      4  HN  LIG     1       1.785   4.838   0.153  1.00  0.00     0.164 HD
HETATM    5  C   LIG     1       1.702   2.766   0.043  1.00  0.00     0.113 A 
HETATM    6  C   LIG     1      -1.013   3.049   0.077  1.00  0.00     0.036 A 
HETATM    7  C   LIG     1      -0.161   4.135   0.114  1.00  0.00     0.088 A 
ENDROOT
BRANCH   2   8
HETATM    8  C   LIG     1      -1.420   0.648   0.121  1.00  0.00     0.294 C 
HETATM    9  O   LIG     1      -2.497   0.628  -0.437  1.00  0.00    -0.259 OA
BRANCH   8  10
HETATM   10  O   LIG     1      -0.942  -0.222   1.042  1.00  0.00    -0.318 OA
BRANCH  10  11
HETATM   11  C   LIG     1      -1.693  -1.425   1.234  1.00  0.00     0.174 C 
HETATM   12  C   LIG     1      -2.670  -1.243   2.376  1.00  0.00     0.034 C 
ENDBRANCH  10  11
ENDBRANCH   8  10
ENDBRANCH   2   8
BRANCH   1  13
HETATM   13  S   LIG     1       1.767   0.087  -0.225  1.00  0.00     0.264 S 
HETATM   14  O   LIG     1       3.050   0.364  -0.840  1.00  0.00    -0.206 OA
HETATM   15  O   LIG     1       0.874  -0.906  -0.781  1.00  0.00    -0.206 OA
HETATM   16 CL   LIG     1       2.215  -0.518   1.677  1.00  0.00     0.024 Cl
ENDBRANCH   1  13
TORSDOF 4
