REMARK  3 active torsions:
REMARK  status: ('A' for Active; 'I' for Inactive)
REMARK    1  A    between atoms: C_3  and  S_11 
REMARK    2  A    between atoms: C_4  and  C_8 
REMARK    3  A    between atoms: C_8  and  O_10 
ROOT
HETATM    1  O   LIG     1      -0.201  -0.938   0.013  1.00  0.00    -0.318 OA
HETATM    2  C   LIG     1       1.094  -0.520   0.002  1.00  0.00     0.073 A 
HETATM    3  C   LIG     1       1.136   0.860   0.005  1.00  0.00     0.122 A 
HETATM    4  C   LIG     1      -0.218   1.321   0.048  1.00  0.00     0.093 A 
HETATM    5  C   LIG     1      -0.989   0.168   0.039  1.00  0.00     0.067 A 
HETATM    6  C   LIG     1      -2.449  -0.084   0.023  1.00  0.00     0.078 C 
HETATM    7  C   LIG     1       2.110  -1.596  -0.005  1.00  0.00     0.078 C 
ENDROOT
BRANCH   3   8
HETATM    8  S   LIG     1       2.555   1.829   0.033  1.00  0.00     0.265 S 
HETATM    9 CL   LIG     1       2.614   3.008  -1.628  1.00  0.00     0.024 Cl
HETATM   10  O   LIG     1       2.403   2.688   1.187  1.00  0.00    -0.206 OA
HETATM   11  O   LIG     1       3.663   0.908  -0.112  1.00  0.00    -0.206 OA
ENDBRANCH   3   8
BRANCH   4  12
HETATM   12  C   LIG     1      -0.735   2.678   0.078  1.00  0.00     0.297 C 
HETATM   13  O   LIG     1      -0.131   3.634  -0.375  1.00  0.00    -0.259 OA
BRANCH  12  14
HETATM   14  O   LIG     1      -1.971   2.737   0.652  1.00  0.00    -0.322 OA
HETATM   15  C   LIG     1      -2.581   4.027   0.700  1.00  0.00     0.213 C 
ENDBRANCH  12  14
ENDBRANCH   4  12
TORSDOF 3
