REMARK  3 active torsions:
REMARK  status: ('A' for Active; 'I' for Inactive)
REMARK    1  A    between atoms: C_2  and  S_6 
REMARK    2  A    between atoms: C_5  and  C_8 
REMARK    3  A    between atoms: C_8  and  O_13 
ROOT
HETATM    1  N   LIG     1       0.852  -0.848   0.157  1.00  0.00    -0.336 N 
HETATM    2  C   LIG     1      -0.431  -1.361   0.018  1.00  0.00     0.146 A 
HETATM    3  C   LIG     1      -1.286  -0.272  -0.042  1.00  0.00     0.046 A 
HETATM    4  C   LIG     1      -0.512   0.901   0.009  1.00  0.00     0.039 A 
HETATM    5  C   LIG     1       0.825   0.541   0.088  1.00  0.00     0.111 A 
HETATM    6  C   LIG     1       2.061  -1.636   0.317  1.00  0.00     0.157 C 
ENDROOT
BRANCH   2   7
HETATM    7  S   LIG     1      -0.781  -3.104  -0.074  1.00  0.00     0.277 S 
HETATM    8 CL   LIG     1      -2.792  -3.340  -0.331  1.00  0.00     0.025 Cl
HETATM    9  O   LIG     1      -0.149  -3.556  -1.294  1.00  0.00    -0.204 OA
HETATM   10  O   LIG     1      -0.468  -3.633   1.234  1.00  0.00    -0.204 OA
ENDBRANCH   2   7
BRANCH   5  11
HETATM   11  C   LIG     1       1.985   1.416   0.080  1.00  0.00     0.309 C 
HETATM   12  O   LIG     1       3.156   1.057   0.109  1.00  0.00    -0.258 OA
BRANCH  11  13
HETATM   13  O   LIG     1       1.578   2.714  -0.002  1.00  0.00    -0.321 OA
HETATM   14  C   LIG     1       2.641   3.659  -0.118  1.00  0.00     0.213 C 
ENDBRANCH  11  13
ENDBRANCH   5  11
TORSDOF 3
