REMARK  3 active torsions:
REMARK  status: ('A' for Active; 'I' for Inactive)
REMARK    1  A    between atoms: C_2  and  S_6 
REMARK    2  A    between atoms: C_4  and  C_11 
REMARK    3  A    between atoms: C_11  and  O_13 
ROOT
HETATM    1  O   LIG     1       1.017  -0.709  -0.078  1.00  0.00    -0.301 OA
HETATM    2  C   LIG     1      -0.259  -1.228  -0.020  1.00  0.00     0.186 A 
HETATM    3  C   LIG     1      -1.141  -0.160   0.088  1.00  0.00     0.071 A 
HETATM    4  C   LIG     1      -0.385   1.047   0.104  1.00  0.00     0.072 A 
HETATM    5  C   LIG     1       0.934   0.647  -0.001  1.00  0.00     0.067 A 
HETATM    6  C   LIG     1       2.221   1.378  -0.042  1.00  0.00     0.078 C 
ENDROOT
BRANCH   2   7
HETATM    7  S   LIG     1      -0.565  -2.985  -0.079  1.00  0.00     0.284 S 
HETATM    8  O   LIG     1      -0.550  -3.436   1.296  1.00  0.00    -0.204 OA
HETATM    9  O   LIG     1      -1.705  -3.154  -0.956  1.00  0.00    -0.204 OA
HETATM   10 CL   LIG     1       1.019  -3.873  -1.008  1.00  0.00     0.026 Cl
ENDBRANCH   2   7
BRANCH   4  11
HETATM   11  C   LIG     1      -0.855   2.417   0.210  1.00  0.00     0.295 C 
HETATM   12  O   LIG     1      -0.115   3.393   0.210  1.00  0.00    -0.259 OA
BRANCH  11  13
HETATM   13  O   LIG     1      -2.215   2.478   0.310  1.00  0.00    -0.322 OA
HETATM   14  C   LIG     1      -2.737   3.801   0.432  1.00  0.00     0.213 C 
ENDBRANCH  11  13
ENDBRANCH   4  11
TORSDOF 3
