REMARK  3 active torsions:
REMARK  status: ('A' for Active; 'I' for Inactive)
REMARK    1  A    between atoms: C_2  and  S_6 
REMARK    2  A    between atoms: C_5  and  C_8 
REMARK    3  A    between atoms: C_8  and  O_9 
ROOT
HETATM    1  O   LIG     1       0.614  -1.010   0.004  1.00  0.00    -0.291 OA
HETATM    2  C   LIG     1      -0.710  -1.384   0.036  1.00  0.00     0.186 A 
HETATM    3  C   LIG     1      -1.475  -0.223   0.007  1.00  0.00     0.054 A 
HETATM    4  C   LIG     1      -0.584   0.878  -0.040  1.00  0.00     0.047 A 
HETATM    5  C   LIG     1       0.691   0.353  -0.046  1.00  0.00     0.152 A 
ENDROOT
BRANCH   2   6
HETATM    6  S   LIG     1      -1.172  -3.107   0.102  1.00  0.00     0.284 S 
HETATM    7 CL   LIG     1       0.311  -4.099   1.096  1.00  0.00     0.026 Cl
HETATM    8  O   LIG     1      -2.347  -3.172   0.943  1.00  0.00    -0.204 OA
HETATM    9  O   LIG     1      -1.143  -3.580  -1.266  1.00  0.00    -0.204 OA
ENDBRANCH   2   6
BRANCH   5  10
HETATM   10  C   LIG     1       1.989   0.988  -0.101  1.00  0.00     0.317 C 
HETATM   11  O   LIG     1       2.187   2.197  -0.141  1.00  0.00    -0.257 OA
BRANCH  10  12
HETATM   12  O   LIG     1       2.964   0.036  -0.117  1.00  0.00    -0.321 OA
HETATM   13  C   LIG     1       4.295   0.534  -0.233  1.00  0.00     0.213 C 
ENDBRANCH  10  12
ENDBRANCH   5  10
TORSDOF 3
