REMARK  1 active torsions:
REMARK  status: ('A' for Active; 'I' for Inactive)
REMARK    1  A    between atoms: C_1  and  S_11 
ROOT
HETATM    1  C   LIG     1      -1.636   0.782   0.143  1.00  0.00     0.191 A 
HETATM    2  C   LIG     1      -2.122  -0.508   0.309  1.00  0.00     0.146 A 
HETATM    3  N   LIG     1      -1.115  -1.451   0.311  1.00  0.00    -0.324 N 
ATOM      4  HN  LIG     1      -1.190  -2.461   0.435  1.00  0.00     0.169 HD
HETATM    5  C   LIG     1       0.836   1.367  -0.248  1.00  0.00     0.107 A 
HETATM    6  N   LIG     1      -0.287   0.599  -0.009  1.00  0.00    -0.288 N 
HETATM    7  C   LIG     1      -0.046  -0.736   0.116  1.00  0.00     0.157 A 
HETATM    8  S   LIG     1       1.642  -1.102  -0.051  1.00  0.00    -0.064 SA
HETATM    9  C   LIG     1       1.952   0.620  -0.301  1.00  0.00     0.071 A 
HETATM   10 CL   LIG     1      -3.751  -0.977   0.482  1.00  0.00    -0.061 Cl
ENDROOT
BRANCH   1  11
HETATM   11  S   LIG     1      -2.398   2.334   0.050  1.00  0.00     0.281 S 
HETATM   12 CL   LIG     1      -3.989   2.399   1.321  1.00  0.00     0.025 Cl
HETATM   13  O   LIG     1      -1.438   3.279   0.579  1.00  0.00    -0.204 OA
HETATM   14  O   LIG     1      -2.925   2.421  -1.292  1.00  0.00    -0.204 OA
ENDBRANCH   1  11
TORSDOF 1
