REMARK  1 active torsions:
REMARK  status: ('A' for Active; 'I' for Inactive)
REMARK    1  A    between atoms: S_1  and  C_2 
ROOT
HETATM    1  C   LIG     1       0.512   1.474  -0.862  1.00  0.00     0.091 A 
HETATM    2  C   LIG     1       0.608   2.794  -0.392  1.00  0.00     0.029 A 
HETATM    3  I   LIG     1       1.179   3.352   1.555  1.00  0.00    -0.043 I 
HETATM    4  C   LIG     1       0.112   1.246  -2.189  1.00  0.00     0.026 A 
HETATM    5  C   LIG     1       0.306   3.861  -1.253  1.00  0.00     0.020 A 
HETATM    6  C   LIG     1      -0.186   2.317  -3.035  1.00  0.00     0.002 A 
HETATM    7  C   LIG     1      -0.089   3.622  -2.568  1.00  0.00     0.001 A 
ENDROOT
BRANCH   1   8
HETATM    8  S   LIG     1       0.893   0.114   0.212  1.00  0.00     0.263 S 
HETATM    9  O   LIG     1      -0.133   0.037   1.231  1.00  0.00    -0.206 OA
HETATM   10  O   LIG     1       2.310   0.146   0.505  1.00  0.00    -0.206 OA
HETATM   11 CL   LIG     1       0.646  -1.604  -0.879  1.00  0.00     0.024 Cl
ENDBRANCH   1   8
TORSDOF 1
