REMARK  2 active torsions:
REMARK  status: ('A' for Active; 'I' for Inactive)
REMARK    1  A    between atoms: C_2  and  S_14 
REMARK    2  A    between atoms: C_5  and  C_6 
ROOT
HETATM    1  S   LIG     1       1.472  -0.947  -0.354  1.00  0.00    -0.074 SA
HETATM    2  C   LIG     1      -0.162  -1.349  -0.055  1.00  0.00     0.116 A 
HETATM    3  C   LIG     1      -0.911  -0.231   0.258  1.00  0.00     0.034 A 
HETATM    4  C   LIG     1      -0.129   0.962   0.250  1.00  0.00     0.025 A 
HETATM    5  C   LIG     1       1.191   0.713  -0.067  1.00  0.00     0.051 A 
ENDROOT
BRANCH   5   6
HETATM    6  C   LIG     1       2.263   1.767  -0.151  1.00  0.00     0.130 A 
HETATM    7  N   LIG     1       3.572   1.411  -0.477  1.00  0.00    -0.325 N 
HETATM    8  C   LIG     1       4.287   2.507  -0.478  1.00  0.00     0.163 A 
ATOM      9  HN  LIG     1       3.910   0.470  -0.678  1.00  0.00     0.169 HD
HETATM   10  S   LIG     1       3.406   3.905  -0.096  1.00  0.00     0.018 SA
HETATM   11 CL   LIG     1       5.958   2.562  -0.824  1.00  0.00    -0.055 Cl
HETATM   12  N   LIG     1       1.976   3.055   0.091  1.00  0.00    -0.309 N 
ATOM     13  HN  LIG     1       1.065   3.441   0.340  1.00  0.00     0.176 HD
ENDBRANCH   5   6
BRANCH   2  14
HETATM   14  S   LIG     1      -0.585  -3.067  -0.188  1.00  0.00     0.268 S 
HETATM   15 CL   LIG     1       0.542  -4.108   1.160  1.00  0.00     0.024 Cl
HETATM   16  O   LIG     1      -1.953  -3.164   0.278  1.00  0.00    -0.205 OA
HETATM   17  O   LIG     1      -0.170  -3.501  -1.505  1.00  0.00    -0.205 OA
ENDBRANCH   2  14
TORSDOF 2
