REMARK  1 active torsions:
REMARK  status: ('A' for Active; 'I' for Inactive)
REMARK    1  A    between atoms: S_1  and  C_2 
ROOT
HETATM    1  C   LIG     1       0.388   0.098   1.564  1.00  0.00     0.077 A 
HETATM    2  C   LIG     1       0.388  -1.091   2.302  1.00  0.00     0.070 A 
HETATM    3  C   LIG     1      -0.102  -1.073   3.603  1.00  0.00     0.156 A 
HETATM    4  C   LIG     1      -0.594   0.103   4.161  1.00  0.00     0.154 A 
HETATM    5  C   LIG     1      -0.119   1.284   2.113  1.00  0.00     0.028 A 
HETATM    6  C   LIG     1      -0.607   1.284   3.422  1.00  0.00     0.047 A 
HETATM    7  F   LIG     1      -0.098  -2.206   4.318  1.00  0.00    -0.203 F 
HETATM    8  F   LIG     1      -1.063   0.110   5.415  1.00  0.00    -0.203 F 
ENDROOT
BRANCH   1   9
HETATM    9  S   LIG     1       0.978   0.087  -0.106  1.00  0.00     0.262 S 
HETATM   10  O   LIG     1       0.382   1.197  -0.818  1.00  0.00    -0.206 OA
HETATM   11  O   LIG     1       0.954  -1.272  -0.602  1.00  0.00    -0.206 OA
HETATM   12 CL   LIG     1       2.946   0.565   0.155  1.00  0.00     0.024 Cl
ENDBRANCH   1   9
TORSDOF 1
