REMARK  1 active torsions:
REMARK  status: ('A' for Active; 'I' for Inactive)
REMARK    1  A    between atoms: C_10  and  S_12 
ROOT
HETATM    1  C   LIG     1      -2.538   0.591  -0.064  1.00  0.00     0.001 A 
HETATM    2  C   LIG     1      -2.472  -0.789  -0.101  1.00  0.00     0.001 A 
HETATM    3  C   LIG     1      -1.229  -1.417  -0.079  1.00  0.00     0.013 A 
HETATM    4  C   LIG     1      -1.360   1.338  -0.011  1.00  0.00     0.014 A 
HETATM    5  C   LIG     1      -0.073   0.734   0.006  1.00  0.00    -0.003 A 
HETATM    6  C   LIG     1      -0.017  -0.690  -0.023  1.00  0.00    -0.018 A 
HETATM    7  C   LIG     1       1.242  -1.353   0.006  1.00  0.00    -0.051 A 
HETATM    8  C   LIG     1       2.428  -0.612   0.065  1.00  0.00     0.009 A 
HETATM    9  C   LIG     1       2.390   0.774   0.089  1.00  0.00     0.026 A 
HETATM   10  C   LIG     1       1.160   1.445   0.051  1.00  0.00     0.085 A 
HETATM   11  C   LIG     1       1.355  -2.858  -0.021  1.00  0.00     0.049 C 
ENDROOT
BRANCH  10  12
HETATM   12  S   LIG     1       1.233   3.222   0.065  1.00  0.00     0.262 S 
HETATM   13 CL   LIG     1       0.523   3.714  -1.790  1.00  0.00     0.024 Cl
HETATM   14  O   LIG     1       0.286   3.744   1.028  1.00  0.00    -0.206 OA
HETATM   15  O   LIG     1       2.619   3.646   0.050  1.00  0.00    -0.206 OA
ENDBRANCH  10  12
TORSDOF 1
