REMARK  2 active torsions:
REMARK  status: ('A' for Active; 'I' for Inactive)
REMARK    1  A    between atoms: S_1  and  C_2 
REMARK    2  A    between atoms: C_3  and  C_12 
ROOT
HETATM    1  C   LIG     1       0.356   1.463  -0.144  1.00  0.00     0.081 A 
HETATM    2  C   LIG     1       1.194   2.524   0.259  1.00  0.00    -0.035 A 
HETATM    3  C   LIG     1      -0.913   1.732  -0.691  1.00  0.00     0.026 A 
HETATM    4  C   LIG     1       0.721   3.843   0.096  1.00  0.00     0.027 A 
HETATM    5  C   LIG     1      -0.544   4.096  -0.437  1.00  0.00     0.011 A 
HETATM    6  C   LIG     1      -1.363   3.046  -0.832  1.00  0.00     0.020 A 
HETATM    7 BR   LIG     1      -1.147   5.879  -0.616  1.00  0.00    -0.051 Br
ENDROOT
BRANCH   1   8
HETATM    8  S   LIG     1       0.828  -0.255  -0.018  1.00  0.00     0.262 S 
HETATM    9  O   LIG     1       2.260  -0.401  -0.147  1.00  0.00    -0.206 OA
HETATM   10  O   LIG     1      -0.096  -1.055  -0.799  1.00  0.00    -0.206 OA
HETATM   11 CL   LIG     1       0.380  -0.662   1.935  1.00  0.00     0.024 Cl
ENDBRANCH   1   8
BRANCH   2  12
HETATM   12  C   LIG     1       2.576   2.359   0.848  1.00  0.00     0.035 C 
HETATM   13  C   LIG     1       3.670   2.419  -0.210  1.00  0.00     0.010 C 
ENDBRANCH   2  12
TORSDOF 2
