REMARK  1 active torsions:
REMARK  status: ('A' for Active; 'I' for Inactive)
REMARK    1  A    between atoms: S_1  and  C_2 
ROOT
HETATM    1  C   LIG     1       0.407  -1.095   1.316  1.00  0.00     0.098 A 
HETATM    2  C   LIG     1       0.185  -0.728   2.657  1.00  0.00     0.080 A 
HETATM    3  C   LIG     1      -0.057  -1.729   3.623  1.00  0.00     0.079 A 
HETATM    4  C   LIG     1       0.390  -2.446   0.946  1.00  0.00     0.028 A 
HETATM    5  C   LIG     1      -0.073  -3.079   3.237  1.00  0.00     0.057 A 
HETATM    6  C   LIG     1       0.150  -3.430   1.905  1.00  0.00     0.027 A 
HETATM    7 CL   LIG     1       0.207   0.941   3.146  1.00  0.00    -0.081 Cl
HETATM    8 CL   LIG     1      -0.337  -1.310   5.288  1.00  0.00    -0.081 Cl
HETATM    9 CL   LIG     1      -0.361  -4.370   4.351  1.00  0.00    -0.082 Cl
ENDROOT
BRANCH   1  10
HETATM   10  S   LIG     1       0.707   0.178   0.117  1.00  0.00     0.263 S 
HETATM   11  O   LIG     1       2.001   0.761   0.398  1.00  0.00    -0.206 OA
HETATM   12  O   LIG     1      -0.510   0.944  -0.037  1.00  0.00    -0.206 OA
HETATM   13 CL   LIG     1       0.950  -0.755  -1.691  1.00  0.00     0.024 Cl
ENDBRANCH   1  10
TORSDOF 1
