REMARK  1 active torsions:
REMARK  status: ('A' for Active; 'I' for Inactive)
REMARK    1  A    between atoms: S_1  and  C_2 
ROOT
HETATM    1  C   LIG     1       0.617   1.036  -1.398  1.00  0.00     0.095 A 
HETATM    2  N   LIG     1       1.190   3.659   0.951  1.00  0.00    -0.191 NA
HETATM    3  C   LIG     1       0.963   3.098  -0.039  1.00  0.00     0.101 C 
HETATM    4  C   LIG     1       0.667   2.435  -1.277  1.00  0.00     0.067 A 
HETATM    5  C   LIG     1       0.296   0.447  -2.629  1.00  0.00     0.026 A 
HETATM    6  C   LIG     1       0.405   3.229  -2.404  1.00  0.00     0.024 A 
HETATM    7  C   LIG     1       0.037   1.253  -3.740  1.00  0.00     0.002 A 
HETATM    8  C   LIG     1       0.093   2.640  -3.629  1.00  0.00     0.002 A 
ENDROOT
BRANCH   1   9
HETATM    9  S   LIG     1       0.967   0.059   0.041  1.00  0.00     0.263 S 
HETATM   10  O   LIG     1      -0.177   0.155   0.921  1.00  0.00    -0.206 OA
HETATM   11  O   LIG     1       2.324   0.348   0.448  1.00  0.00    -0.206 OA
HETATM   12 CL   LIG     1       1.016  -1.894  -0.569  1.00  0.00     0.024 Cl
ENDBRANCH   1   9
TORSDOF 1
