REMARK  5 active torsions:
REMARK  status: ('A' for Active; 'I' for Inactive)
REMARK    1  A    between atoms: S_1  and  C_2 
REMARK    2  A    between atoms: C_8  and  O_11 
REMARK    3  A    between atoms: O_11  and  C_12 
REMARK    4  A    between atoms: C_12  and  C_13 
REMARK    5  A    between atoms: C_13  and  C_14 
ROOT
HETATM    1  C   LIG     1       0.419  -0.242  -1.095  1.00  0.00     0.074 A 
HETATM    2  C   LIG     1      -0.050  -1.005  -2.167  1.00  0.00     0.027 A 
HETATM    3  C   LIG     1       0.681   1.121  -1.256  1.00  0.00     0.027 A 
HETATM    4  C   LIG     1       0.067   0.960  -3.595  1.00  0.00     0.068 A 
HETATM    5  C   LIG     1      -0.230  -0.395  -3.412  1.00  0.00     0.038 A 
HETATM    6  C   LIG     1       0.509   1.719  -2.508  1.00  0.00     0.038 A 
ENDROOT
BRANCH   4   7
HETATM    7  O   LIG     1      -0.131   1.438  -4.863  1.00  0.00    -0.351 OA
BRANCH   7   8
HETATM    8  C   LIG     1       0.638   2.586  -5.229  1.00  0.00     0.175 C 
BRANCH   8   9
HETATM    9  C   LIG     1       0.833   2.617  -6.746  1.00  0.00     0.026 C 
BRANCH   9  10
HETATM   10  C   LIG     1      -0.465   2.718  -7.550  1.00  0.00    -0.002 C 
HETATM   11  C   LIG     1      -0.169   2.738  -9.045  1.00  0.00     0.005 C 
ENDBRANCH   9  10
ENDBRANCH   8   9
ENDBRANCH   7   8
ENDBRANCH   4   7
BRANCH   1  12
HETATM   12  S   LIG     1       0.643  -0.991   0.495  1.00  0.00     0.262 S 
HETATM   13  O   LIG     1      -0.238  -2.129   0.617  1.00  0.00    -0.206 OA
HETATM   14  O   LIG     1       0.726   0.052   1.501  1.00  0.00    -0.206 OA
HETATM   15 CL   LIG     1       2.534  -1.747   0.323  1.00  0.00     0.024 Cl
ENDBRANCH   1  12
TORSDOF 5
