REMARK  1 active torsions:
REMARK  status: ('A' for Active; 'I' for Inactive)
REMARK    1  A    between atoms: S_1  and  C_2 
ROOT
HETATM    1  C   LIG     1       0.454  -0.931  -1.243  1.00  0.00     0.118 A 
HETATM    2  C   LIG     1       0.714  -2.309  -1.270  1.00  0.00     0.058 A 
HETATM    3  C   LIG     1      -0.259  -0.359  -2.313  1.00  0.00     0.058 A 
HETATM    4 CL   LIG     1       1.639  -3.184  -0.105  1.00  0.00    -0.083 Cl
HETATM    5 CL   LIG     1      -0.603   1.329  -2.481  1.00  0.00    -0.083 Cl
HETATM    6  C   LIG     1      -0.500  -2.529  -3.366  1.00  0.00     0.003 A 
HETATM    7  C   LIG     1       0.227  -3.097  -2.327  1.00  0.00     0.025 A 
HETATM    8  C   LIG     1      -0.736  -1.161  -3.360  1.00  0.00     0.025 A 
ENDROOT
BRANCH   1   9
HETATM    9  S   LIG     1       1.028   0.105   0.069  1.00  0.00     0.265 S 
HETATM   10  O   LIG     1       1.779   1.206  -0.498  1.00  0.00    -0.206 OA
HETATM   11  O   LIG     1       1.544  -0.662   1.181  1.00  0.00    -0.206 OA
HETATM   12 CL   LIG     1      -0.702   0.899   0.833  1.00  0.00     0.024 Cl
ENDBRANCH   1   9
TORSDOF 1
