REMARK  1 active torsions:
REMARK  status: ('A' for Active; 'I' for Inactive)
REMARK    1  A    between atoms: S_1  and  C_2 
ROOT
HETATM    1  C   LIG     1       0.571   1.066  -1.434  1.00  0.00     0.077 A 
HETATM    2  C   LIG     1      -0.049   0.460  -2.529  1.00  0.00     0.066 A 
HETATM    3  C   LIG     1      -0.329   1.232  -3.649  1.00  0.00     0.117 A 
HETATM    4  F   LIG     1      -0.931   0.666  -4.703  1.00  0.00    -0.206 F 
HETATM    5  C   LIG     1       0.928   2.420  -1.470  1.00  0.00     0.025 A 
HETATM    6  C   LIG     1       0.638   3.179  -2.606  1.00  0.00     0.005 A 
HETATM    7  C   LIG     1       0.005   2.582  -3.697  1.00  0.00     0.042 A 
ENDROOT
BRANCH   1   8
HETATM    8  S   LIG     1       0.963   0.095  -0.008  1.00  0.00     0.262 S 
HETATM    9  O   LIG     1       2.046   0.732   0.712  1.00  0.00    -0.206 OA
HETATM   10  O   LIG     1       0.982  -1.303  -0.380  1.00  0.00    -0.206 OA
HETATM   11 CL   LIG     1      -0.709   0.356   1.135  1.00  0.00     0.024 Cl
ENDBRANCH   1   8
TORSDOF 1
