REMARK  1 active torsions:
REMARK  status: ('A' for Active; 'I' for Inactive)
REMARK    1  A    between atoms: S_1  and  C_2 
ROOT
HETATM    1  C   LIG     1       0.193  -0.222  -1.565  1.00  0.00     0.116 A 
HETATM    2  C   LIG     1       0.268   0.869  -2.423  1.00  0.00     0.180 A 
HETATM    3  C   LIG     1      -0.206   0.757  -3.724  1.00  0.00     0.194 A 
HETATM    4  C   LIG     1      -0.366  -1.432  -1.997  1.00  0.00     0.031 A 
HETATM    5  C   LIG     1      -0.758  -0.442  -4.161  1.00  0.00     0.158 A 
HETATM    6  C   LIG     1      -0.842  -1.539  -3.306  1.00  0.00     0.047 A 
HETATM    7  F   LIG     1       0.802   2.028  -2.017  1.00  0.00    -0.201 F 
HETATM    8  F   LIG     1      -0.128   1.803  -4.557  1.00  0.00    -0.200 F 
HETATM    9  F   LIG     1      -1.215  -0.554  -5.415  1.00  0.00    -0.203 F 
ENDROOT
BRANCH   1  10
HETATM   10  S   LIG     1       0.782  -0.051   0.082  1.00  0.00     0.265 S 
HETATM   11  O   LIG     1       0.793  -1.362   0.698  1.00  0.00    -0.206 OA
HETATM   12  O   LIG     1       0.133   1.088   0.693  1.00  0.00    -0.206 OA
HETATM   13 CL   LIG     1       2.752   0.433  -0.168  1.00  0.00     0.024 Cl
ENDBRANCH   1  10
TORSDOF 1
