REMARK  3 active torsions:
REMARK  status: ('A' for Active; 'I' for Inactive)
REMARK    1  A    between atoms: S_1  and  C_2 
REMARK    2  A    between atoms: C_3  and  O_5 
REMARK    3  A    between atoms: C_4  and  O_5 
ROOT
HETATM    1  C   LIG     1       0.619   1.638   0.668  1.00  0.00     0.108 A 
HETATM    2  C   LIG     1      -0.481   1.771   1.531  1.00  0.00     0.102 A 
HETATM    3  C   LIG     1      -0.775   3.041   2.041  1.00  0.00     0.057 A 
HETATM    4  C   LIG     1       1.372   2.758   0.277  1.00  0.00     0.029 A 
HETATM    5  C   LIG     1      -0.027   4.155   1.643  1.00  0.00     0.013 A 
HETATM    6  C   LIG     1       1.042   4.020   0.764  1.00  0.00     0.021 A 
HETATM    7 BR   LIG     1      -0.463   5.868   2.317  1.00  0.00    -0.051 Br
ENDROOT
BRANCH   2   8
HETATM    8  O   LIG     1      -1.140   0.637   1.899  1.00  0.00    -0.254 OA
BRANCH   8   9
HETATM    9  C   LIG     1      -2.539   0.667   2.182  1.00  0.00     0.530 C 
HETATM   10  F   LIG     1      -3.120   1.859   1.940  1.00  0.00    -0.144 F 
HETATM   11  F   LIG     1      -3.156  -0.260   1.419  1.00  0.00    -0.144 F 
HETATM   12  F   LIG     1      -2.730   0.345   3.479  1.00  0.00    -0.144 F 
ENDBRANCH   8   9
ENDBRANCH   2   8
BRANCH   1  13
HETATM   13  S   LIG     1       1.099   0.056   0.023  1.00  0.00     0.264 S 
HETATM   14  O   LIG     1       2.268   0.219  -0.824  1.00  0.00    -0.206 OA
HETATM   15  O   LIG     1      -0.085  -0.652  -0.425  1.00  0.00    -0.206 OA
HETATM   16 CL   LIG     1       1.783  -0.911   1.688  1.00  0.00     0.024 Cl
ENDBRANCH   1  13
TORSDOF 3
