REMARK  1 active torsions:
REMARK  status: ('A' for Active; 'I' for Inactive)
REMARK    1  A    between atoms: S_1  and  C_2 
ROOT
HETATM    1  C   LIG     1       0.273  -1.680   0.193  1.00  0.00     0.092 A 
HETATM    2  C   LIG     1      -1.056  -2.007   0.496  1.00  0.00     0.033 A 
HETATM    3 BR   LIG     1      -2.446  -0.730   0.723  1.00  0.00    -0.050 Br
HETATM    4  C   LIG     1       1.221  -2.706   0.052  1.00  0.00     0.026 A 
HETATM    5  C   LIG     1      -1.423  -3.351   0.653  1.00  0.00     0.020 A 
HETATM    6  C   LIG     1       0.843  -4.041   0.211  1.00  0.00     0.002 A 
HETATM    7  C   LIG     1      -0.477  -4.364   0.510  1.00  0.00     0.001 A 
ENDROOT
BRANCH   1   8
HETATM    8  S   LIG     1       0.724   0.021  -0.006  1.00  0.00     0.263 S 
HETATM    9  O   LIG     1       0.645   0.667   1.288  1.00  0.00    -0.206 OA
HETATM   10  O   LIG     1       0.075   0.530  -1.195  1.00  0.00    -0.206 OA
HETATM   11 CL   LIG     1       2.721   0.058  -0.469  1.00  0.00     0.024 Cl
ENDBRANCH   1   8
TORSDOF 1
