REMARK  1 active torsions:
REMARK  status: ('A' for Active; 'I' for Inactive)
REMARK    1  A    between atoms: S_1  and  C_2 
ROOT
HETATM    1  C   LIG     1       0.494   1.491   0.819  1.00  0.00     0.076 A 
HETATM    2  C   LIG     1      -0.336   1.353   1.934  1.00  0.00     0.049 A 
HETATM    3  C   LIG     1      -0.777   2.495   2.607  1.00  0.00     0.041 A 
HETATM    4  C   LIG     1      -0.402   3.777   2.169  1.00  0.00    -0.040 A 
HETATM    5  C   LIG     1       0.865   2.756   0.358  1.00  0.00     0.025 A 
HETATM    6  C   LIG     1       0.421   3.892   1.036  1.00  0.00     0.010 A 
HETATM    7 CL   LIG     1      -1.794   2.274   3.985  1.00  0.00    -0.084 Cl
HETATM    8  C   LIG     1      -0.864   5.022   2.875  1.00  0.00     0.050 C 
ENDROOT
BRANCH   1   9
HETATM    9  S   LIG     1       1.031   0.048  -0.052  1.00  0.00     0.262 S 
HETATM   10  O   LIG     1       1.394   0.421  -1.403  1.00  0.00    -0.206 OA
HETATM   11  O   LIG     1       0.131  -1.045   0.246  1.00  0.00    -0.206 OA
HETATM   12 CL   LIG     1       2.782  -0.379   0.909  1.00  0.00     0.024 Cl
ENDBRANCH   1   9
TORSDOF 1
