REMARK  1 active torsions:
REMARK  status: ('A' for Active; 'I' for Inactive)
REMARK    1  A    between atoms: S_1  and  C_2 
ROOT
HETATM    1  C   LIG     1       0.333  -0.175   1.583  1.00  0.00     0.074 A 
HETATM    2  N   LIG     1      -1.713  -0.618   6.546  1.00  0.00    -0.191 NA
HETATM    3  C   LIG     1      -1.275  -0.524   5.476  1.00  0.00     0.099 C 
HETATM    4  C   LIG     1       0.404  -1.400   2.253  1.00  0.00     0.026 A 
HETATM    5  C   LIG     1      -0.283   0.931   2.180  1.00  0.00     0.026 A 
HETATM    6  C   LIG     1      -0.732  -0.406   4.153  1.00  0.00     0.044 A 
HETATM    7  C   LIG     1      -0.127  -1.511   3.542  1.00  0.00     0.024 A 
HETATM    8  C   LIG     1      -0.810   0.813   3.468  1.00  0.00     0.024 A 
ENDROOT
BRANCH   1   9
HETATM    9  S   LIG     1       0.975  -0.030  -0.063  1.00  0.00     0.262 S 
HETATM   10  O   LIG     1       0.178   0.936  -0.789  1.00  0.00    -0.206 OA
HETATM   11  O   LIG     1       1.270  -1.352  -0.574  1.00  0.00    -0.206 OA
HETATM   12 CL   LIG     1       2.783   0.857   0.280  1.00  0.00     0.024 Cl
ENDBRANCH   1   9
TORSDOF 1
