REMARK  1 active torsions:
REMARK  status: ('A' for Active; 'I' for Inactive)
REMARK    1  A    between atoms: S_1  and  C_2 
ROOT
HETATM    1  C   LIG     1       0.304  -1.307   0.987  1.00  0.00     0.076 A 
HETATM    2  C   LIG     1       1.064  -2.479   0.920  1.00  0.00     0.043 A 
HETATM    3  C   LIG     1       0.713  -3.557   1.728  1.00  0.00     0.012 A 
HETATM    4 BR   LIG     1       1.732  -5.148   1.661  1.00  0.00    -0.051 Br
HETATM    5  C   LIG     1      -0.807  -1.218   1.833  1.00  0.00     0.025 A 
HETATM    6  C   LIG     1      -1.146  -2.307   2.637  1.00  0.00     0.003 A 
HETATM    7  C   LIG     1      -0.384  -3.476   2.587  1.00  0.00     0.019 A 
ENDROOT
BRANCH   1   8
HETATM    8  S   LIG     1       0.720   0.063  -0.054  1.00  0.00     0.262 S 
HETATM    9  O   LIG     1      -0.450   0.897  -0.226  1.00  0.00    -0.206 OA
HETATM   10  O   LIG     1       1.516  -0.414  -1.166  1.00  0.00    -0.206 OA
HETATM   11 CL   LIG     1       1.996   1.114   1.146  1.00  0.00     0.024 Cl
ENDBRANCH   1   8
TORSDOF 1
