REMARK  2 active torsions:
REMARK  status: ('A' for Active; 'I' for Inactive)
REMARK    1  A    between atoms: S_1  and  C_2 
REMARK    2  A    between atoms: C_3  and  C_5 
ROOT
HETATM    1  C   LIG     1      -0.072  -1.631  -0.398  1.00  0.00     0.097 A 
HETATM    2  C   LIG     1       0.919  -2.500   0.098  1.00  0.00     0.042 A 
HETATM    3  C   LIG     1       0.756  -3.893   0.021  1.00  0.00     0.049 A 
HETATM    4  C   LIG     1      -1.239  -2.149  -0.963  1.00  0.00     0.056 A 
HETATM    5  C   LIG     1      -0.415  -4.401  -0.555  1.00  0.00     0.018 A 
HETATM    6  C   LIG     1      -1.401  -3.538  -1.040  1.00  0.00     0.026 A 
HETATM    7 CL   LIG     1      -2.522  -1.188  -1.597  1.00  0.00    -0.083 Cl
ENDROOT
BRANCH   1   8
HETATM    8  S   LIG     1       0.196   0.112  -0.249  1.00  0.00     0.263 S 
HETATM    9  O   LIG     1       1.528   0.325   0.281  1.00  0.00    -0.206 OA
HETATM   10  O   LIG     1      -0.969   0.730   0.344  1.00  0.00    -0.206 OA
HETATM   11 CL   LIG     1       0.307   0.741  -2.190  1.00  0.00     0.024 Cl
ENDBRANCH   1   8
BRANCH   3  12
HETATM   12  C   LIG     1       1.813  -4.842   0.545  1.00  0.00     0.417 C 
HETATM   13  F   LIG     1       2.893  -4.208   1.077  1.00  0.00    -0.166 F 
HETATM   14  F   LIG     1       1.334  -5.658   1.523  1.00  0.00    -0.166 F 
HETATM   15  F   LIG     1       2.297  -5.660  -0.428  1.00  0.00    -0.166 F 
ENDBRANCH   3  12
TORSDOF 2
