REMARK  1 active torsions:
REMARK  status: ('A' for Active; 'I' for Inactive)
REMARK    1  A    between atoms: S_1  and  C_2 
ROOT
HETATM    1  C   LIG     1       0.440  -1.451   0.911  1.00  0.00     0.096 A 
HETATM    2  C   LIG     1      -0.539  -1.465   1.916  1.00  0.00     0.059 A 
HETATM    3  C   LIG     1       1.083  -2.645   0.550  1.00  0.00     0.029 A 
HETATM    4  C   LIG     1      -0.871  -2.667   2.549  1.00  0.00     0.067 A 
HETATM    5  C   LIG     1      -0.228  -3.840   2.180  1.00  0.00     0.118 A 
HETATM    6 CL   LIG     1      -1.387  -0.056   2.444  1.00  0.00    -0.083 Cl
HETATM    7  C   LIG     1       0.744  -3.840   1.189  1.00  0.00     0.044 A 
HETATM    8  F   LIG     1      -0.548  -4.988   2.789  1.00  0.00    -0.206 F 
ENDROOT
BRANCH   1   9
HETATM    9  S   LIG     1       0.832   0.089   0.130  1.00  0.00     0.263 S 
HETATM   10  O   LIG     1       1.514   0.925   1.095  1.00  0.00    -0.206 OA
HETATM   11  O   LIG     1      -0.321   0.517  -0.634  1.00  0.00    -0.206 OA
HETATM   12 CL   LIG     1       2.255  -0.316  -1.288  1.00  0.00     0.024 Cl
ENDBRANCH   1   9
TORSDOF 1
