REMARK  1 active torsions:
REMARK  status: ('A' for Active; 'I' for Inactive)
REMARK    1  A    between atoms: S_1  and  C_2 
ROOT
HETATM    1  C   LIG     1       0.446  -1.546  -0.694  1.00  0.00     0.083 A 
HETATM    2  C   LIG     1       0.653  -2.678   0.110  1.00  0.00     0.067 A 
HETATM    3  C   LIG     1       0.015  -1.686  -2.031  1.00  0.00    -0.039 A 
HETATM    4  C   LIG     1      -0.198  -2.985  -2.531  1.00  0.00     0.011 A 
HETATM    5  C   LIG     1       0.423  -3.942  -0.414  1.00  0.00     0.117 A 
HETATM    6  C   LIG     1      -0.000  -4.106  -1.725  1.00  0.00     0.043 A 
HETATM    7  F   LIG     1       0.617  -5.020   0.356  1.00  0.00    -0.206 F 
HETATM    8  C   LIG     1      -0.188  -0.527  -2.968  1.00  0.00     0.050 C 
ENDROOT
BRANCH   1   9
HETATM    9  S   LIG     1       0.788   0.040   0.038  1.00  0.00     0.262 S 
HETATM   10  O   LIG     1       1.358   0.924  -0.956  1.00  0.00    -0.206 OA
HETATM   11  O   LIG     1       1.401  -0.159   1.335  1.00  0.00    -0.206 OA
HETATM   12 CL   LIG     1      -1.093   0.738   0.431  1.00  0.00     0.024 Cl
ENDBRANCH   1   9
TORSDOF 1
