REMARK  1 active torsions:
REMARK  status: ('A' for Active; 'I' for Inactive)
REMARK    1  A    between atoms: S_1  and  C_2 
ROOT
HETATM    1  C   LIG     1       0.639   0.996  -1.280  1.00  0.00     0.076 A 
HETATM    2  N   LIG     1      -0.935   0.192  -5.792  1.00  0.00    -0.191 NA
HETATM    3  C   LIG     1      -0.545   0.655  -4.802  1.00  0.00     0.099 C 
HETATM    4  C   LIG     1       0.174   0.417  -2.466  1.00  0.00     0.047 A 
HETATM    5  C   LIG     1      -0.065   1.230  -3.579  1.00  0.00     0.046 A 
HETATM    6  C   LIG     1       0.886   2.370  -1.201  1.00  0.00     0.025 A 
HETATM    7  C   LIG     1       0.643   3.177  -2.313  1.00  0.00     0.003 A 
HETATM    8  C   LIG     1       0.167   2.609  -3.497  1.00  0.00     0.023 A 
ENDROOT
BRANCH   1   9
HETATM    9  S   LIG     1       0.975  -0.027   0.128  1.00  0.00     0.262 S 
HETATM   10  O   LIG     1       2.103   0.529   0.845  1.00  0.00    -0.206 OA
HETATM   11  O   LIG     1       0.899  -1.416  -0.270  1.00  0.00    -0.206 OA
HETATM   12 CL   LIG     1      -0.671   0.317   1.288  1.00  0.00     0.024 Cl
ENDBRANCH   1   9
TORSDOF 1
