REMARK  1 active torsions:
REMARK  status: ('A' for Active; 'I' for Inactive)
REMARK    1  A    between atoms: S_1  and  C_2 
ROOT
HETATM    1  C   LIG     1       0.432   1.057  -1.359  1.00  0.00     0.082 A 
HETATM    2  C   LIG     1       0.779   2.427  -1.435  1.00  0.00    -0.018 A 
HETATM    3  C   LIG     1       0.382   3.135  -2.588  1.00  0.00     0.041 A 
HETATM    4 CL   LIG     1       0.818   4.789  -2.853  1.00  0.00    -0.084 Cl
HETATM    5  C   LIG     1      -0.366   0.461  -2.353  1.00  0.00     0.025 A 
HETATM    6  C   LIG     1       1.562   3.114  -0.346  1.00  0.00     0.052 C 
HETATM    7  C   LIG     1      -0.774   1.195  -3.463  1.00  0.00     0.003 A 
HETATM    8  C   LIG     1      -0.386   2.525  -3.586  1.00  0.00     0.024 A 
ENDROOT
BRANCH   1   9
HETATM    9  S   LIG     1       0.980   0.024  -0.010  1.00  0.00     0.262 S 
HETATM   10  O   LIG     1      -0.146  -0.186   0.874  1.00  0.00    -0.206 OA
HETATM   11  O   LIG     1       2.280   0.464   0.451  1.00  0.00    -0.206 OA
HETATM   12 CL   LIG     1       1.367  -1.794  -0.877  1.00  0.00     0.024 Cl
ENDBRANCH   1   9
TORSDOF 1
