REMARK  3 active torsions:
REMARK  status: ('A' for Active; 'I' for Inactive)
REMARK    1  A    between atoms: S_1  and  C_2 
REMARK    2  A    between atoms: C_3  and  O_5 
REMARK    3  A    between atoms: C_4  and  O_5 
ROOT
HETATM    1  C   LIG     1       1.011  -1.847   0.826  1.00  0.00     0.108 A 
HETATM    2  C   LIG     1       0.215  -1.076   1.690  1.00  0.00     0.101 A 
HETATM    3  C   LIG     1       1.285  -3.195   1.115  1.00  0.00     0.027 A 
HETATM    4  C   LIG     1      -0.360  -1.712   2.797  1.00  0.00     0.039 A 
HETATM    5  C   LIG     1       0.728  -3.796   2.238  1.00  0.00     0.002 A 
HETATM    6  C   LIG     1      -0.097  -3.056   3.076  1.00  0.00     0.003 A 
ENDROOT
BRANCH   2   7
HETATM    7  O   LIG     1      -0.010   0.236   1.391  1.00  0.00    -0.254 OA
BRANCH   7   8
HETATM    8  C   LIG     1      -0.311   1.148   2.452  1.00  0.00     0.530 C 
HETATM    9  F   LIG     1       0.078   0.707   3.668  1.00  0.00    -0.144 F 
HETATM   10  F   LIG     1       0.330   2.312   2.218  1.00  0.00    -0.144 F 
HETATM   11  F   LIG     1      -1.639   1.392   2.482  1.00  0.00    -0.144 F 
ENDBRANCH   7   8
ENDBRANCH   2   7
BRANCH   1  12
HETATM   12  S   LIG     1       1.676  -1.204  -0.689  1.00  0.00     0.264 S 
HETATM   13  O   LIG     1       2.393  -2.255  -1.377  1.00  0.00    -0.206 OA
HETATM   14  O   LIG     1       2.265   0.103  -0.449  1.00  0.00    -0.206 OA
HETATM   15 CL   LIG     1      -0.008  -0.896  -1.806  1.00  0.00     0.024 Cl
ENDBRANCH   1  12
TORSDOF 3
