REMARK  2 active torsions:
REMARK  status: ('A' for Active; 'I' for Inactive)
REMARK    1  A    between atoms: S_1  and  C_3 
REMARK    2  A    between atoms: C_2  and  C_6 
ROOT
HETATM    1  C   LIG     1       0.505  -1.662   0.342  1.00  0.00     0.074 A 
HETATM    2  C   LIG     1      -0.347  -4.292   0.788  1.00  0.00     0.048 A 
HETATM    3  C   LIG     1       1.400  -2.720   0.158  1.00  0.00     0.025 A 
HETATM    4  C   LIG     1      -0.805  -1.901   0.766  1.00  0.00     0.025 A 
HETATM    5  C   LIG     1       0.970  -4.031   0.377  1.00  0.00     0.018 A 
HETATM    6  C   LIG     1      -1.228  -3.214   0.983  1.00  0.00     0.018 A 
ENDROOT
BRANCH   1   7
HETATM    7  S   LIG     1       1.058   0.003   0.091  1.00  0.00     0.262 S 
HETATM    8  O   LIG     1       2.489   0.058   0.306  1.00  0.00    -0.206 OA
HETATM    9  O   LIG     1       0.131   0.912   0.731  1.00  0.00    -0.206 OA
HETATM   10 CL   LIG     1       0.775   0.228  -1.919  1.00  0.00     0.024 Cl
ENDBRANCH   1   7
BRANCH   2  11
HETATM   11  C   LIG     1      -0.825  -5.706   1.031  1.00  0.00     0.417 C 
HETATM   12  F   LIG     1       0.122  -6.652   0.777  1.00  0.00    -0.166 F 
HETATM   13  F   LIG     1      -1.219  -5.906   2.319  1.00  0.00    -0.166 F 
HETATM   14  F   LIG     1      -1.895  -6.031   0.256  1.00  0.00    -0.166 F 
ENDBRANCH   2  11
TORSDOF 2
