REMARK  1 active torsions:
REMARK  status: ('A' for Active; 'I' for Inactive)
REMARK    1  A    between atoms: C_5  and  C_8 
ROOT
HETATM    1  N   LIG     1       0.959  -0.656   0.010  1.00  0.00    -0.348 N 
ATOM      2  HN  LIG     1       1.790  -1.248   0.015  1.00  0.00     0.167 HD
HETATM    3  N   LIG     1      -1.145   0.026  -0.002  1.00  0.00    -0.354 N 
ATOM      4  HN  LIG     1      -2.164  -0.011  -0.007  1.00  0.00     0.166 HD
HETATM    5  C   LIG     1      -0.297  -1.053   0.002  1.00  0.00     0.080 A 
HETATM    6  C   LIG     1       0.923   0.718   0.010  1.00  0.00     0.022 A 
HETATM    7  C   LIG     1      -0.382   1.159   0.002  1.00  0.00     0.114 A 
HETATM    8  C   LIG     1       2.171   1.511   0.017  1.00  0.00     0.069 C 
ENDROOT
BRANCH   5   9
HETATM    9  C   LIG     1      -0.785  -2.459  -0.004  1.00  0.00     0.072 C 
HETATM   10  C   LIG     1      -0.945  -2.987  -1.420  1.00  0.00     0.013 C 
ENDBRANCH   5   9
TORSDOF 1
