REMARK  0 active torsions:
REMARK  status: ('A' for Active; 'I' for Inactive)
ROOT
HETATM    1  N   LIG     1       0.007  -1.626   0.000  1.00  0.00    -0.354 N 
ATOM      2  HN  LIG     1       0.010  -2.646   0.000  1.00  0.00     0.166 HD
HETATM    3  C   LIG     1       1.136  -0.844  -0.000  1.00  0.00     0.059 A 
HETATM    4  C   LIG     1      -1.129  -0.849   0.000  1.00  0.00     0.043 A 
HETATM    5  C   LIG     1      -0.714   0.482   0.000  1.00  0.00     0.003 A 
HETATM    6  C   LIG     1       0.717   0.485   0.000  1.00  0.00     0.006 A 
HETATM    7  N   LIG     1       3.415  -0.220  -0.001  1.00  0.00    -0.373 N 
ATOM      8  HN  LIG     1       4.408  -0.455  -0.002  1.00  0.00     0.164 HD
HETATM    9  C   LIG     1       2.479  -1.196  -0.000  1.00  0.00     0.117 A 
HETATM   10  C   LIG     1       1.694   1.491  -0.000  1.00  0.00     0.031 A 
HETATM   11  C   LIG     1      -1.697   1.494   0.000  1.00  0.00     0.014 A 
HETATM   12  C   LIG     1      -2.478  -1.223   0.000  1.00  0.00     0.030 A 
HETATM   13  C   LIG     1       3.016   1.071  -0.001  1.00  0.00     0.088 A 
HETATM   14  C   LIG     1      -3.050   1.138   0.000  1.00  0.00     0.001 A 
HETATM   15  C   LIG     1      -3.432  -0.202   0.000  1.00  0.00     0.002 A 
ENDROOT
TORSDOF 0
