REMARK  1 active torsions:
REMARK  status: ('A' for Active; 'I' for Inactive)
REMARK    1  A    between atoms: C_1  and  C_3 
ROOT
HETATM    1  C   LIG     1      -0.352  -1.279   0.073  1.00  0.00     0.081 A 
HETATM    2  S   LIG     1       1.312  -0.904   0.233  1.00  0.00    -0.088 SA
HETATM    3  C   LIG     1      -1.099  -0.133  -0.129  1.00  0.00     0.027 A 
HETATM    4  C   LIG     1       1.038   0.771   0.021  1.00  0.00    -0.020 A 
HETATM    5  C   LIG     1      -0.301   1.047  -0.158  1.00  0.00     0.015 A 
HETATM    6  C   LIG     1       2.180   1.728   0.059  1.00  0.00     0.056 C 
ENDROOT
BRANCH   1   7
HETATM    7  C   LIG     1      -0.858  -2.631   0.150  1.00  0.00     0.216 C 
HETATM    8  O   LIG     1      -2.026  -2.984   0.055  1.00  0.00    -0.643 OA
HETATM    9  O   LIG     1       0.103  -3.562   0.347  1.00  0.00    -0.643 OA
ENDBRANCH   1   7
TORSDOF 1
