REMARK  0 active torsions:
REMARK  status: ('A' for Active; 'I' for Inactive)
ROOT
HETATM    1  C   LIG     1      -0.244   0.658   0.001  1.00  0.00     0.048 A 
HETATM    2  N   LIG     1      -1.560   1.068   0.042  1.00  0.00    -0.365 N 
ATOM      3  HN  LIG     1      -1.866   2.041   0.053  1.00  0.00     0.165 HD
HETATM    4  C   LIG     1      -2.398  -0.014   0.066  1.00  0.00     0.089 A 
HETATM    5  C   LIG     1      -0.258  -0.737   0.006  1.00  0.00    -0.008 A 
HETATM    6  C   LIG     1      -1.619  -1.148   0.049  1.00  0.00     0.030 A 
HETATM    7  C   LIG     1       0.942   1.417  -0.041  1.00  0.00    -0.035 A 
HETATM    8  C   LIG     1       2.160  -0.706  -0.074  1.00  0.00     0.002 A 
HETATM    9  C   LIG     1       0.966  -1.431  -0.030  1.00  0.00     0.014 A 
HETATM   10  C   LIG     1       2.145   0.688  -0.079  1.00  0.00     0.009 A 
HETATM   11  C   LIG     1       0.956   2.916  -0.037  1.00  0.00     0.050 C 
ENDROOT
TORSDOF 0
