REMARK  1 active torsions:
REMARK  status: ('A' for Active; 'I' for Inactive)
REMARK    1  A    between atoms: C_3  and  O_8 
ROOT
HETATM    1  N   LIG     1       1.212  -1.366   0.010  1.00  0.00    -0.336 N 
ATOM      2  HN  LIG     1       1.225  -2.386   0.022  1.00  0.00     0.168 HD
HETATM    3  C   LIG     1       2.351  -0.661  -0.009  1.00  0.00     0.140 A 
HETATM    4  C   LIG     1       0.054  -0.688   0.013  1.00  0.00     0.044 A 
HETATM    5  C   LIG     1       1.214   1.437   0.014  1.00  0.00    -0.045 A 
HETATM    6  C   LIG     1      -0.011   0.725   0.009  1.00  0.00    -0.003 A 
HETATM    7  C   LIG     1       2.413   0.718  -0.002  1.00  0.00     0.063 A 
HETATM    8  C   LIG     1       1.263   2.940   0.040  1.00  0.00     0.049 C 
HETATM    9  C   LIG     1      -1.130  -1.414   0.007  1.00  0.00     0.030 A 
HETATM   10  C   LIG     1      -1.281   1.348  -0.011  1.00  0.00     0.014 A 
HETATM   11  C   LIG     1      -2.379  -0.790  -0.022  1.00  0.00     0.002 A 
HETATM   12  C   LIG     1      -2.454   0.595  -0.035  1.00  0.00     0.001 A 
ENDROOT
BRANCH   3  13
HETATM   13  O   LIG     1       3.486  -1.416  -0.048  1.00  0.00    -0.346 OA
ATOM     14  HO  LIG     1       4.294  -0.916  -0.061  1.00  0.00     0.219 HD
ENDBRANCH   3  13
TORSDOF 1
