REMARK  3 active torsions:
REMARK  status: ('A' for Active; 'I' for Inactive)
REMARK    1  A    between atoms: C_1  and  C_7 
REMARK    2  A    between atoms: C_7  and  N_10 
REMARK    3  A    between atoms: C_11  and  O_13 
ROOT
HETATM    1  C   LIG     1      -1.545  -0.568   0.003  1.00  0.00    -0.002 A 
HETATM    2  C   LIG     1      -0.234   0.016  -0.023  1.00  0.00     0.003 A 
HETATM    3  N   LIG     1      -1.727   1.636  -0.336  1.00  0.00    -0.365 N 
ATOM      4  HN  LIG     1      -2.139   2.556  -0.490  1.00  0.00     0.165 HD
HETATM    5  C   LIG     1      -2.436   0.475  -0.192  1.00  0.00     0.098 A 
HETATM    6  C   LIG     1      -0.379   1.384  -0.244  1.00  0.00     0.043 A 
HETATM    7  C   LIG     1       1.068  -0.514   0.115  1.00  0.00     0.051 A 
HETATM    8  C   LIG     1       0.714   2.253  -0.349  1.00  0.00     0.033 A 
HETATM    9  C   LIG     1       2.176   0.339   0.027  1.00  0.00     0.069 A 
HETATM   10  C   LIG     1       1.993   1.698  -0.218  1.00  0.00     0.039 A 
ENDROOT
BRANCH   1  11
HETATM   11  C   LIG     1      -1.881  -2.012   0.209  1.00  0.00     0.312 C 
BRANCH  11  12
HETATM   12  N   LIG     1      -2.613  -2.572  -0.943  1.00  0.00     0.084 N 
HETATM   13  C   LIG     1      -1.798  -2.563  -2.161  1.00  0.00     0.309 C 
HETATM   14  C   LIG     1      -3.028  -3.942  -0.634  1.00  0.00     0.309 C 
ENDBRANCH  11  12
ENDBRANCH   1  11
BRANCH   9  15
HETATM   15  O   LIG     1       3.481  -0.071   0.128  1.00  0.00    -0.356 OA
HETATM   16  C   LIG     1       3.694  -1.232   0.924  1.00  0.00     0.210 C 
ENDBRANCH   9  15
TORSDOF 3
