REMARK  1 active torsions:
REMARK  status: ('A' for Active; 'I' for Inactive)
REMARK    1  A    between atoms: N_1  and  C_2 
ROOT
HETATM    1  N   LIG     1       0.832   1.322   0.072  1.00  0.00    -0.378 N 
HETATM    2  N   LIG     1      -0.717  -1.194   0.011  1.00  0.00    -0.072 N 
ATOM      3  HN1 LIG     1      -1.216  -1.961  -0.440  1.00  0.00     0.277 HD
ATOM      4  HN2 LIG     1      -0.847  -1.491   0.978  1.00  0.00     0.277 HD
HETATM    5  C   LIG     1       1.490   0.017   0.289  1.00  0.00     0.150 C 
HETATM    6  C   LIG     1      -0.606   1.300   0.431  1.00  0.00     0.150 C 
HETATM    7  C   LIG     1       0.709  -1.139  -0.379  1.00  0.00     0.252 C 
HETATM    8  C   LIG     1      -1.332   0.124  -0.265  1.00  0.00     0.252 C 
ENDROOT
BRANCH   1   9
HETATM    9  C   LIG     1       1.187   2.128  -1.012  1.00  0.00     0.030 A 
HETATM   10  C   LIG     1       0.825   3.490  -1.016  1.00  0.00     0.032 A 
HETATM   11  C   LIG     1       1.167   4.344  -2.069  1.00  0.00     0.044 A 
HETATM   12  C   LIG     1       1.893   3.847  -3.139  1.00  0.00     0.116 A 
HETATM   13  C   LIG     1       2.285   2.518  -3.166  1.00  0.00     0.044 A 
HETATM   14  F   LIG     1       2.226   4.658  -4.150  1.00  0.00    -0.206 F 
HETATM   15  C   LIG     1       1.940   1.671  -2.106  1.00  0.00     0.032 A 
ENDBRANCH   1   9
TORSDOF 1
