REMARK  1 active torsions:
REMARK  status: ('A' for Active; 'I' for Inactive)
REMARK    1  A    between atoms: C_1  and  C_2 
ROOT
HETATM    1  C   LIG     1      -0.394  -1.197   0.060  1.00  0.00     0.071 A 
HETATM    2  C   LIG     1       0.912  -0.743  -0.032  1.00  0.00     0.065 A 
HETATM    3  C   LIG     1      -1.208  -0.029  -0.045  1.00  0.00     0.045 A 
HETATM    4  O   LIG     1       0.933   0.613  -0.183  1.00  0.00    -0.326 OA
HETATM    5  C   LIG     1      -0.355   1.037  -0.190  1.00  0.00     0.143 A 
HETATM    6  C   LIG     1       2.234  -1.405   0.001  1.00  0.00     0.078 C 
ENDROOT
BRANCH   1   7
HETATM    7  C   LIG     1      -0.852  -2.559   0.225  1.00  0.00     0.211 C 
HETATM    8  O   LIG     1      -2.023  -2.901   0.298  1.00  0.00    -0.644 OA
HETATM    9  O   LIG     1       0.124  -3.490   0.301  1.00  0.00    -0.644 OA
ENDBRANCH   1   7
TORSDOF 1
