REMARK  0 active torsions:
REMARK  status: ('A' for Active; 'I' for Inactive)
ROOT
HETATM    1  N   LIG     1      -1.592   1.036  -0.150  1.00  0.00    -0.359 N 
ATOM      2  HN  LIG     1      -1.907   2.006  -0.150  1.00  0.00     0.166 HD
HETATM    3  C   LIG     1      -0.271  -0.755  -0.048  1.00  0.00    -0.006 A 
HETATM    4  C   LIG     1      -2.420  -0.058  -0.216  1.00  0.00     0.006 A 
HETATM    5  C   LIG     1      -1.628  -1.180  -0.095  1.00  0.00     0.038 A 
HETATM    6  C   LIG     1      -0.276   0.636  -0.084  1.00  0.00     0.042 A 
HETATM    7  C   LIG     1       0.966  -1.428   0.009  1.00  0.00     0.040 A 
HETATM    8  C   LIG     1       0.899   1.393  -0.048  1.00  0.00     0.032 A 
HETATM    9  C   LIG     1       2.161  -0.700  -0.055  1.00  0.00     0.047 A 
HETATM   10  N   LIG     1       3.394  -1.363   0.063  1.00  0.00    -0.102 NA
HETATM   11  C   LIG     1       2.113   0.695  -0.021  1.00  0.00     0.029 A 
HETATM   12  C   LIG     1      -3.886   0.069  -0.408  1.00  0.00     0.068 C 
ENDROOT
TORSDOF 0
