REMARK  2 active torsions:
REMARK  status: ('A' for Active; 'I' for Inactive)
REMARK    1  A    between atoms: C_2  and  C_6 
REMARK    2  A    between atoms: C_6  and  O_7 
ROOT
HETATM    1  O   LIG     1       0.856  -0.562  -0.081  1.00  0.00    -0.318 OA
HETATM    2  C   LIG     1       0.816   0.800   0.011  1.00  0.00     0.076 A 
HETATM    3  C   LIG     1      -0.431  -1.004  -0.021  1.00  0.00     0.049 A 
HETATM    4  C   LIG     1      -1.294   0.062   0.105  1.00  0.00     0.035 A 
HETATM    5  C   LIG     1      -0.490   1.227   0.123  1.00  0.00     0.037 A 
HETATM    6  C   LIG     1      -0.624  -2.465  -0.100  1.00  0.00     0.076 C 
ENDROOT
BRANCH   2   7
HETATM    7  C   LIG     1       2.120   1.497  -0.040  1.00  0.00     0.229 C 
BRANCH   7   8
HETATM    8  O   LIG     1       2.683   1.267  -1.326  1.00  0.00    -0.394 OA
ATOM      9  HO  LIG     1       3.520   1.715  -1.359  1.00  0.00     0.209 HD
ENDBRANCH   7   8
ENDBRANCH   2   7
TORSDOF 2
