REMARK  2 active torsions:
REMARK  status: ('A' for Active; 'I' for Inactive)
REMARK    1  A    between atoms: C_1  and  N_6 
REMARK    2  A    between atoms: C_2  and  C_3 
ROOT
HETATM    1  C   LIG     1      -2.199   0.991  -0.247  1.00  0.00     0.104 A 
HETATM    2  C   LIG     1      -2.779  -1.413  -1.521  1.00  0.00     0.065 A 
HETATM    3  N   LIG     1      -3.485   0.696  -0.568  1.00  0.00    -0.354 N 
ATOM      4  HN  LIG     1      -4.239   1.346  -0.346  1.00  0.00     0.166 HD
HETATM    5  C   LIG     1      -1.159   0.091  -0.547  1.00  0.00     0.073 A 
HETATM    6  C   LIG     1      -1.457  -1.114  -1.187  1.00  0.00     0.044 A 
HETATM    7  C   LIG     1      -3.746  -0.478  -1.188  1.00  0.00     0.105 A 
HETATM    8 CL   LIG     1       0.489   0.394  -0.122  1.00  0.00    -0.081 Cl
ENDROOT
BRANCH   1   9
HETATM    9  N   LIG     1      -1.921   2.230   0.388  1.00  0.00    -0.266 NA
HETATM   10  C   LIG     1      -3.032   2.651   1.260  1.00  0.00     0.098 C 
HETATM   11  C   LIG     1      -2.519   3.651   2.292  1.00  0.00     0.042 C 
HETATM   12  C   LIG     1      -2.544   5.106   1.822  1.00  0.00     0.233 C 
HETATM   13  N   LIG     1      -2.109   5.409   0.461  1.00  0.00    -0.074 N 
HETATM   14  C   LIG     1      -1.035   4.547  -0.044  1.00  0.00     0.247 C 
ATOM     15  HN2 LIG     1      -1.841   6.390   0.385  1.00  0.00     0.277 HD
ATOM     16  HN1 LIG     1      -2.905   5.394  -0.177  1.00  0.00     0.277 HD
HETATM   17  C   LIG     1      -1.552   3.222  -0.645  1.00  0.00     0.124 C 
ENDBRANCH   1   9
BRANCH   2  18
HETATM   18  C   LIG     1      -3.178  -2.682  -2.205  1.00  0.00     0.418 C 
HETATM   19  F   LIG     1      -2.126  -3.498  -2.490  1.00  0.00    -0.166 F 
HETATM   20  F   LIG     1      -4.039  -3.427  -1.460  1.00  0.00    -0.166 F 
HETATM   21  F   LIG     1      -3.807  -2.458  -3.391  1.00  0.00    -0.166 F 
ENDBRANCH   2  18
TORSDOF 2
