REMARK  2 active torsions:
REMARK  status: ('A' for Active; 'I' for Inactive)
REMARK    1  A    between atoms: C_1  and  C_2 
REMARK    2  A    between atoms: C_2  and  N_3 
ROOT
HETATM    1  N   LIG     1       3.228  -0.813  -1.914  1.00  0.00     0.094 N 
HETATM    2  N   LIG     1       5.099  -2.522  -3.945  1.00  0.00    -0.073 N 
ATOM      3  HN1 LIG     1       4.351  -2.507  -4.638  1.00  0.00     0.277 HD
ATOM      4  HN2 LIG     1       5.674  -3.272  -4.329  1.00  0.00     0.277 HD
HETATM    5  C   LIG     1       3.903   0.058  -2.890  1.00  0.00     0.274 C 
HETATM    6  C   LIG     1       5.410  -0.187  -2.953  1.00  0.00     0.057 C 
HETATM    7  C   LIG     1       5.830  -1.260  -3.953  1.00  0.00     0.234 C 
HETATM    8  C   LIG     1       3.214  -2.233  -2.333  1.00  0.00     0.300 C 
HETATM    9  C   LIG     1       4.575  -2.897  -2.632  1.00  0.00     0.262 C 
ENDROOT
BRANCH   1  10
HETATM   10  C   LIG     1       1.827  -0.390  -1.683  1.00  0.00     0.316 C 
BRANCH  10  11
HETATM   11  C   LIG     1       1.650   1.008  -1.137  1.00  0.00     0.030 A 
HETATM   12  C   LIG     1       2.128   1.419   0.117  1.00  0.00     0.045 A 
HETATM   13 CL   LIG     1       2.969   0.346   1.178  1.00  0.00    -0.084 Cl
HETATM   14  C   LIG     1       1.921   2.731   0.564  1.00  0.00     0.024 A 
HETATM   15  C   LIG     1       1.229   3.650  -0.224  1.00  0.00     0.005 A 
HETATM   16  C   LIG     1       0.742   3.256  -1.466  1.00  0.00     0.043 A 
HETATM   17  C   LIG     1       0.955   1.952  -1.906  1.00  0.00     0.126 A 
HETATM   18  F   LIG     1       0.471   1.609  -3.111  1.00  0.00    -0.205 F 
ENDBRANCH  10  11
ENDBRANCH   1  10
TORSDOF 2
