REMARK  2 active torsions:
REMARK  status: ('A' for Active; 'I' for Inactive)
REMARK    1  A    between atoms: N_1  and  C_5 
REMARK    2  A    between atoms: C_5  and  C_6 
ROOT
HETATM    1  N   LIG     1      -1.202   0.771  -0.008  1.00  0.00     0.094 N 
HETATM    2  N   LIG     1       1.118  -1.475   0.271  1.00  0.00    -0.073 N 
ATOM      3  HN1 LIG     1       1.004  -1.666  -0.724  1.00  0.00     0.277 HD
ATOM      4  HN2 LIG     1       1.627  -2.314   0.548  1.00  0.00     0.277 HD
HETATM    5  C   LIG     1       0.112   1.264  -0.461  1.00  0.00     0.274 C 
HETATM    6  C   LIG     1       1.211   1.056   0.582  1.00  0.00     0.057 C 
HETATM    7  C   LIG     1       1.935  -0.284   0.477  1.00  0.00     0.234 C 
HETATM    8  C   LIG     1      -1.250  -0.708   0.077  1.00  0.00     0.300 C 
HETATM    9  C   LIG     1      -0.182  -1.415   0.939  1.00  0.00     0.262 C 
ENDROOT
BRANCH   1  10
HETATM   10  C   LIG     1      -2.280   1.202  -0.929  1.00  0.00     0.311 C 
BRANCH  10  11
HETATM   11  C   LIG     1      -2.450   2.702  -1.059  1.00  0.00    -0.030 A 
HETATM   12  C   LIG     1      -2.300   3.321  -2.313  1.00  0.00     0.012 A 
HETATM   13  C   LIG     1      -2.454   4.700  -2.444  1.00  0.00     0.043 A 
HETATM   14  C   LIG     1      -2.763   5.465  -1.325  1.00  0.00     0.116 A 
HETATM   15  C   LIG     1      -2.921   4.873  -0.076  1.00  0.00     0.043 A 
HETATM   16  F   LIG     1      -2.908   6.789  -1.452  1.00  0.00    -0.206 F 
HETATM   17  C   LIG     1      -2.765   3.493   0.058  1.00  0.00     0.012 A 
ENDBRANCH  10  11
ENDBRANCH   1  10
TORSDOF 2
