REMARK  5 active torsions:
REMARK  status: ('A' for Active; 'I' for Inactive)
REMARK    1  A    between atoms: N_1  and  C_4 
REMARK    2  A    between atoms: C_2  and  C_4 
REMARK    3  A    between atoms: N_3  and  C_11 
REMARK    4  A    between atoms: C_11  and  C_16 
REMARK    5  A    between atoms: O_13  and  C_16 
ROOT
HETATM    1  N   LIG     1       0.322   1.201  -0.472  1.00  0.00     0.096 N 
HETATM    2  N   LIG     1      -0.784  -1.218   1.068  1.00  0.00     0.093 N 
HETATM    3  C   LIG     1       1.140   0.344   0.411  1.00  0.00     0.303 C 
HETATM    4  C   LIG     1      -1.096   1.072  -0.081  1.00  0.00     0.303 C 
HETATM    5  C   LIG     1       0.615  -1.107   0.591  1.00  0.00     0.302 C 
HETATM    6  C   LIG     1      -1.635  -0.346   0.235  1.00  0.00     0.302 C 
ENDROOT
BRANCH   1   7
HETATM    7  C   LIG     1       0.610   0.935  -1.897  1.00  0.00     0.314 C 
BRANCH   7   8
HETATM    8  C   LIG     1      -0.188   1.779  -2.875  1.00  0.00     0.009 A 
HETATM    9  C   LIG     1      -1.004   1.145  -3.828  1.00  0.00     0.124 A 
HETATM   10  F   LIG     1      -0.973  -0.180  -3.965  1.00  0.00    -0.205 F 
HETATM   11  C   LIG     1      -1.874   1.883  -4.635  1.00  0.00     0.043 A 
HETATM   12  C   LIG     1      -1.938   3.260  -4.504  1.00  0.00     0.003 A 
HETATM   13  C   LIG     1      -1.069   3.917  -3.625  1.00  0.00     0.001 A 
HETATM   14  C   LIG     1      -0.181   3.174  -2.834  1.00  0.00     0.012 A 
ENDBRANCH   7   8
ENDBRANCH   1   7
BRANCH   2  15
HETATM   15  C   LIG     1      -0.883  -0.958   2.521  1.00  0.00     0.298 C 
BRANCH  15  16
HETATM   16  C   LIG     1      -2.289  -1.178   3.120  1.00  0.00     0.194 C 
BRANCH  16  17
HETATM   17  O   LIG     1      -2.759  -2.501   2.883  1.00  0.00    -0.399 OA
ATOM     18  HO  LIG     1      -3.624  -2.636   3.252  1.00  0.00     0.209 HD
ENDBRANCH  16  17
ENDBRANCH  15  16
ENDBRANCH   2  15
TORSDOF 5
