REMARK  1 active torsions:
REMARK  status: ('A' for Active; 'I' for Inactive)
REMARK    1  A    between atoms: C_1  and  N_6 
ROOT
HETATM    1  C   LIG     1       2.605  -0.118  -0.253  1.00  0.00     0.147 A 
HETATM    2  N   LIG     1       2.022  -1.171   0.282  1.00  0.00    -0.336 N 
ATOM      3  HN  LIG     1       2.518  -2.007   0.589  1.00  0.00     0.168 HD
HETATM    4  S   LIG     1       1.493   1.140  -0.685  1.00  0.00    -0.052 SA
HETATM    5  C   LIG     1       0.172   0.213  -0.106  1.00  0.00     0.036 A 
HETATM    6  C   LIG     1       0.655  -1.001   0.375  1.00  0.00     0.051 A 
HETATM    7  C   LIG     1      -1.196   0.535  -0.080  1.00  0.00     0.045 A 
HETATM    8  C   LIG     1      -0.260  -1.936   0.904  1.00  0.00     0.032 A 
HETATM    9  C   LIG     1      -2.078  -0.409   0.451  1.00  0.00     0.035 A 
HETATM   10  C   LIG     1      -1.625  -1.630   0.938  1.00  0.00     0.026 A 
HETATM   11 CL   LIG     1      -3.762  -0.050   0.501  1.00  0.00    -0.084 Cl
ENDROOT
BRANCH   1  12
HETATM   12  N   LIG     1       3.957  -0.040  -0.468  1.00  0.00    -0.360 N 
HETATM   13  C   LIG     1       4.655   1.248  -0.493  1.00  0.00     0.126 C 
HETATM   14  C   LIG     1       4.800   1.817   0.917  1.00  0.00     0.039 C 
HETATM   15  C   LIG     1       6.007   1.285   1.694  1.00  0.00     0.115 C 
HETATM   16  N   LIG     1       6.374  -0.124   1.575  1.00  0.00    -0.420 N 
HETATM   17  C   LIG     1       5.248  -1.056   1.426  1.00  0.00     0.133 C 
ATOM     18  HN  LIG     1       7.344  -0.439   1.594  1.00  0.00     0.153 HD
HETATM   19  C   LIG     1       4.774  -1.183  -0.037  1.00  0.00     0.144 C 
ENDBRANCH   1  12
TORSDOF 1
