REMARK  1 active torsions:
REMARK  status: ('A' for Active; 'I' for Inactive)
REMARK    1  A    between atoms: C_3  and  C_7 
ROOT
HETATM    1  N   LIG     1      -1.401  -0.072   0.173  1.00  0.00    -0.353 N 
ATOM      2  HN  LIG     1      -2.400  -0.275   0.205  1.00  0.00     0.166 HD
HETATM    3  C   LIG     1      -0.400  -1.029   0.057  1.00  0.00     0.049 A 
HETATM    4  C   LIG     1      -0.877   1.132   0.236  1.00  0.00     0.047 A 
HETATM    5  S   LIG     1       0.836   1.199   0.141  1.00  0.00    -0.087 SA
HETATM    6  C   LIG     1       0.880  -0.511   0.011  1.00  0.00     0.081 A 
HETATM    7  C   LIG     1      -1.666   2.386   0.375  1.00  0.00     0.076 C 
ENDROOT
BRANCH   3   8
HETATM    8  C   LIG     1      -0.726  -2.452  -0.032  1.00  0.00    -0.009 A 
HETATM    9  C   LIG     1       0.220  -3.456   0.211  1.00  0.00     0.015 A 
HETATM   10  C   LIG     1      -0.133  -4.809   0.115  1.00  0.00     0.027 A 
HETATM   11  C   LIG     1      -1.422  -5.188  -0.262  1.00  0.00     0.046 A 
HETATM   12  C   LIG     1      -2.383  -4.193  -0.434  1.00  0.00     0.027 A 
HETATM   13  N   LIG     1      -1.798  -6.536  -0.233  1.00  0.00    -0.102 NA
HETATM   14  C   LIG     1      -2.037  -2.840  -0.341  1.00  0.00     0.015 A 
ENDBRANCH   3   8
TORSDOF 1
