REMARK  5 active torsions:
REMARK  status: ('A' for Active; 'I' for Inactive)
REMARK    1  A    between atoms: N_1  and  C_3 
REMARK    2  A    between atoms: N_2  and  C_15 
REMARK    3  A    between atoms: C_3  and  C_8 
REMARK    4  A    between atoms: C_15  and  C_18 
REMARK    5  A    between atoms: O_16  and  C_18 
ROOT
HETATM    1  N   LIG     1       0.263   0.153  -0.865  1.00  0.00     0.096 N 
HETATM    2  N   LIG     1      -0.151   0.875   2.060  1.00  0.00     0.093 N 
HETATM    3  C   LIG     1       1.278  -0.113   0.182  1.00  0.00     0.303 C 
HETATM    4  C   LIG     1      -0.535   1.319  -0.429  1.00  0.00     0.303 C 
HETATM    5  C   LIG     1       0.704  -0.253   1.619  1.00  0.00     0.302 C 
HETATM    6  C   LIG     1      -1.125   1.196   0.995  1.00  0.00     0.302 C 
ENDROOT
BRANCH   1   7
HETATM    7  C   LIG     1      -0.568  -1.044  -1.106  1.00  0.00     0.311 C 
BRANCH   7   8
HETATM    8  C   LIG     1      -1.611  -0.869  -2.198  1.00  0.00    -0.030 A 
HETATM    9  C   LIG     1      -1.237  -0.563  -3.516  1.00  0.00     0.012 A 
HETATM   10  C   LIG     1      -2.212  -0.405  -4.510  1.00  0.00     0.043 A 
HETATM   11  C   LIG     1      -3.550  -0.568  -4.185  1.00  0.00     0.116 A 
HETATM   12  C   LIG     1      -3.945  -0.872  -2.892  1.00  0.00     0.043 A 
HETATM   13  F   LIG     1      -4.484  -0.424  -5.141  1.00  0.00    -0.206 F 
HETATM   14  C   LIG     1      -2.975  -1.016  -1.894  1.00  0.00     0.012 A 
ENDBRANCH   7   8
ENDBRANCH   1   7
BRANCH   2  15
HETATM   15  C   LIG     1       0.682   2.024   2.463  1.00  0.00     0.298 C 
BRANCH  15  16
HETATM   16  C   LIG     1      -0.098   3.219   3.033  1.00  0.00     0.194 C 
BRANCH  16  17
HETATM   17  O   LIG     1       0.819   4.217   3.476  1.00  0.00    -0.399 OA
ATOM     18  HO  LIG     1       0.337   4.956   3.828  1.00  0.00     0.209 HD
ENDBRANCH  16  17
ENDBRANCH  15  16
ENDBRANCH   2  15
TORSDOF 5
