REMARK  3 active torsions:
REMARK  status: ('A' for Active; 'I' for Inactive)
REMARK    1  A    between atoms: C_1  and  C_5 
REMARK       I    between atoms: C_5  and  N_8 
REMARK    2  A    between atoms: N_8  and  C_13 
REMARK    3  A    between atoms: N_8  and  C_14 
ROOT
HETATM    1  C   LIG     1       1.889   3.103   0.888  1.00  0.00     0.107 A 
HETATM    2  N   LIG     1       0.677   2.725   0.317  1.00  0.00    -0.355 N 
ATOM      3  HN  LIG     1       0.351   1.760   0.269  1.00  0.00     0.166 HD
HETATM    4  C   LIG     1       1.875   4.512   0.829  1.00  0.00    -0.022 A 
HETATM    5  C   LIG     1       0.714   4.918   0.083  1.00  0.00    -0.032 A 
HETATM    6  C   LIG     1      -0.027   3.788  -0.171  1.00  0.00     0.012 A 
HETATM    7  C   LIG     1       2.765   5.539   1.429  1.00  0.00     0.051 C 
HETATM    8  C   LIG     1       0.362   6.318  -0.289  1.00  0.00     0.050 C 
HETATM    9  C   LIG     1      -1.352   3.644  -0.823  1.00  0.00     0.068 C 
ENDROOT
BRANCH   1  10
HETATM   10  C   LIG     1       2.712   2.008   1.419  1.00  0.00     0.270 C 
HETATM   11  N   LIG     1       4.113   2.024   1.513  1.00  0.00    -0.347 N 
HETATM   12  O   LIG     1       2.121   0.939   1.705  1.00  0.00    -0.266 OA
BRANCH  11  13
HETATM   13  C   LIG     1       4.795   0.766   1.876  1.00  0.00     0.121 C 
HETATM   14  C   LIG     1       5.013   0.594   3.371  1.00  0.00     0.026 C 
ENDBRANCH  11  13
BRANCH  11  15
HETATM   15  C   LIG     1       4.985   3.124   1.099  1.00  0.00     0.121 C 
HETATM   16  C   LIG     1       5.388   4.047   2.239  1.00  0.00     0.026 C 
ENDBRANCH  11  15
ENDBRANCH   1  10
TORSDOF 3
