REMARK  2 active torsions:
REMARK  status: ('A' for Active; 'I' for Inactive)
REMARK    1  A    between atoms: S_1  and  C_2 
REMARK    2  A    between atoms: S_1  and  N_9 
ROOT
HETATM    1  C   LIG     1       0.563  -1.172  -1.281  1.00  0.00     0.082 A 
HETATM    2  C   LIG     1      -0.042  -0.615  -2.413  1.00  0.00     0.049 A 
HETATM    3  C   LIG     1       0.792  -2.546  -1.196  1.00  0.00     0.049 A 
HETATM    4  C   LIG     1      -0.416  -1.449  -3.463  1.00  0.00     0.037 A 
HETATM    5  C   LIG     1       0.409  -3.363  -2.258  1.00  0.00     0.037 A 
HETATM    6  C   LIG     1      -0.195  -2.823  -3.393  1.00  0.00     0.047 A 
HETATM    7 CL   LIG     1      -1.161  -0.776  -4.860  1.00  0.00    -0.084 Cl
HETATM    8 CL   LIG     1       0.685  -5.059  -2.168  1.00  0.00    -0.084 Cl
ENDROOT
BRANCH   1   9
HETATM    9  S   LIG     1       1.021  -0.075   0.024  1.00  0.00     0.256 S 
HETATM   10  O   LIG     1      -0.189   0.452   0.608  1.00  0.00    -0.201 OA
HETATM   11  O   LIG     1       2.096   0.760  -0.453  1.00  0.00    -0.201 OA
BRANCH   9  12
HETATM   12  N   LIG     1       1.700  -1.062   1.201  1.00  0.00    -0.324 N 
ATOM     13  HN2 LIG     1       1.816  -2.074   1.157  1.00  0.00     0.169 HD
ATOM     14  HN1 LIG     1       1.965  -0.428   1.955  1.00  0.00     0.169 HD
ENDBRANCH   9  12
ENDBRANCH   1   9
TORSDOF 2
