REMARK  4 active torsions:
REMARK  status: ('A' for Active; 'I' for Inactive)
REMARK    1  A    between atoms: C_1  and  O_8 
REMARK    2  A    between atoms: C_3  and  C_10 
REMARK    3  A    between atoms: C_4  and  O_9 
REMARK    4  A    between atoms: C_10  and  O_11 
ROOT
HETATM    1  C   LIG     1       0.900   0.197   0.107  1.00  0.00     0.123 A 
HETATM    2  C   LIG     1       0.822  -1.214   0.169  1.00  0.00     0.078 A 
HETATM    3  C   LIG     1      -0.411  -1.881   0.050  1.00  0.00    -0.010 A 
HETATM    4  C   LIG     1      -0.287   0.946  -0.024  1.00  0.00     0.103 A 
HETATM    5  C   LIG     1      -1.572  -1.117  -0.107  1.00  0.00     0.014 A 
HETATM    6  C   LIG     1      -1.507   0.275  -0.153  1.00  0.00     0.040 A 
HETATM    7 CL   LIG     1       2.275  -2.138   0.413  1.00  0.00    -0.081 Cl
ENDROOT
BRANCH   3   8
HETATM    8  C   LIG     1      -0.557  -3.375   0.144  1.00  0.00     0.204 C 
BRANCH   8   9
HETATM    9  O   LIG     1      -0.723  -3.758   1.501  1.00  0.00    -0.396 OA
ATOM     10  HO  LIG     1      -0.815  -4.702   1.560  1.00  0.00     0.209 HD
ENDBRANCH   8   9
ENDBRANCH   3   8
BRANCH   1  11
HETATM   11  O   LIG     1       2.153   0.734   0.288  1.00  0.00    -0.351 OA
HETATM   12  C   LIG     1       2.471   1.901  -0.462  1.00  0.00     0.210 C 
ENDBRANCH   1  11
BRANCH   4  13
HETATM   13  O   LIG     1      -0.206   2.314  -0.022  1.00  0.00    -0.353 OA
HETATM   14  C   LIG     1      -1.360   3.010   0.444  1.00  0.00     0.210 C 
ENDBRANCH   4  13
TORSDOF 4
