REMARK  2 active torsions:
REMARK  status: ('A' for Active; 'I' for Inactive)
REMARK    1  A    between atoms: C_1  and  C_2 
REMARK    2  A    between atoms: C_1  and  C_5 
ROOT
HETATM    1  C   LIG     1       1.026  -0.549   0.548  1.00  0.00     0.192 C 
HETATM    2  O   LIG     1       2.224  -0.737   0.753  1.00  0.00    -0.287 OA
ENDROOT
BRANCH   1   3
HETATM    3  C   LIG     1       0.172  -1.690   0.124  1.00  0.00     0.017 A 
HETATM    4  C   LIG     1       0.518  -2.978   0.554  1.00  0.00     0.042 A 
HETATM    5  C   LIG     1      -0.231  -4.088   0.157  1.00  0.00     0.047 A 
HETATM    6  N   LIG     1       0.043  -5.353   0.692  1.00  0.00    -0.102 NA
HETATM    7  C   LIG     1      -1.391  -3.881  -0.594  1.00  0.00     0.026 A 
HETATM    8  C   LIG     1      -1.730  -2.606  -1.050  1.00  0.00     0.003 A 
HETATM    9  C   LIG     1      -0.936  -1.512  -0.711  1.00  0.00     0.015 A 
ENDBRANCH   1   3
BRANCH   1  10
HETATM   10  C   LIG     1       0.471   0.819   0.716  1.00  0.00     0.015 A 
HETATM   11  C   LIG     1      -0.816   1.035   1.225  1.00  0.00     0.015 A 
HETATM   12  C   LIG     1      -1.311   2.335   1.338  1.00  0.00     0.001 A 
HETATM   13  C   LIG     1      -0.517   3.420   0.967  1.00  0.00     0.000 A 
HETATM   14  C   LIG     1       0.779   3.210   0.496  1.00  0.00     0.001 A 
HETATM   15  C   LIG     1       1.276   1.912   0.375  1.00  0.00     0.015 A 
ENDBRANCH   1  10
TORSDOF 2
