REMARK  1 active torsions:
REMARK  status: ('A' for Active; 'I' for Inactive)
REMARK    1  A    between atoms: C_1  and  C_4 
ROOT
HETATM    1  C   LIG     1       0.968  -0.643  -0.118  1.00  0.00     0.026 A 
HETATM    2  N   LIG     1      -1.161   0.049  -0.079  1.00  0.00    -0.374 N 
ATOM      3  HN  LIG     1      -2.180   0.040  -0.120  1.00  0.00     0.164 HD
HETATM    4  C   LIG     1      -0.351  -1.047  -0.239  1.00  0.00     0.102 A 
HETATM    5  C   LIG     1       0.930   0.762   0.126  1.00  0.00     0.033 A 
HETATM    6  C   LIG     1      -0.389   1.156   0.144  1.00  0.00     0.088 A 
ENDROOT
BRANCH   1   7
HETATM    7  C   LIG     1       2.164  -1.481  -0.218  1.00  0.00     0.157 C 
HETATM    8  O   LIG     1       3.290  -1.002  -0.090  1.00  0.00    -0.293 OA
HETATM    9  C   LIG     1       1.989  -2.955  -0.486  1.00  0.00     0.097 C 
ENDBRANCH   1   7
TORSDOF 1
