REMARK  0 active torsions:
REMARK  status: ('A' for Active; 'I' for Inactive)
ROOT
HETATM    1  C   LIG     1       1.230  -0.701   0.085  1.00  0.00     0.107 A 
HETATM    2  C   LIG     1       2.492  -1.364   0.185  1.00  0.00     0.104 C 
HETATM    3  N   LIG     1       3.497  -1.937   0.311  1.00  0.00    -0.191 NA
HETATM    4  C   LIG     1       0.020  -1.422   0.102  1.00  0.00     0.070 A 
HETATM    5  C   LIG     1       1.207   0.694   0.023  1.00  0.00     0.139 A 
HETATM    6  N   LIG     1      -0.028  -2.821  -0.011  1.00  0.00    -0.101 NA
HETATM    7  F   LIG     1       2.353   1.391   0.000  1.00  0.00    -0.204 F 
HETATM    8  C   LIG     1      -1.194   0.694  -0.026  1.00  0.00     0.005 A 
HETATM    9  C   LIG     1      -1.182  -0.704  -0.000  1.00  0.00     0.028 A 
HETATM   10  C   LIG     1       0.007   1.395  -0.019  1.00  0.00     0.044 A 
ENDROOT
TORSDOF 0
