REMARK  3 active torsions:
REMARK  status: ('A' for Active; 'I' for Inactive)
REMARK    1  A    between atoms: C_4  and  O_5 
REMARK    2  A    between atoms: O_5  and  C_7 
REMARK    3  A    between atoms: C_7  and  C_8 
ROOT
HETATM    1  C   LIG     1       0.398   2.613  -0.068  1.00  0.00     0.149 A 
HETATM    2  N   LIG     1       0.166   3.939  -0.136  1.00  0.00    -0.352 N 
ATOM      3  HN  LIG     1      -0.175   4.375  -0.993  1.00  0.00     0.166 HD
HETATM    4  C   LIG     1       0.885   1.968   1.084  1.00  0.00     0.110 A 
HETATM    5  N   LIG     1       0.158   1.908  -1.252  1.00  0.00    -0.080 NA
HETATM    6  C   LIG     1       0.402   4.665   0.973  1.00  0.00     0.089 A 
HETATM    7  C   LIG     1       1.114   2.752   2.212  1.00  0.00     0.041 A 
HETATM    8  C   LIG     1       0.868   4.123   2.159  1.00  0.00     0.020 A 
ENDROOT
BRANCH   4   9
HETATM    9  O   LIG     1       1.047   0.608   1.016  1.00  0.00    -0.343 OA
BRANCH   9  10
HETATM   10  C   LIG     1       1.820  -0.015   2.045  1.00  0.00     0.214 C 
BRANCH  10  11
HETATM   11  C   LIG     1       1.957  -1.499   1.769  1.00  0.00    -0.034 A 
HETATM   12  C   LIG     1       2.148  -1.979   0.465  1.00  0.00     0.009 A 
HETATM   13  C   LIG     1       2.316  -3.344   0.225  1.00  0.00     0.001 A 
HETATM   14  C   LIG     1       2.307  -4.247   1.285  1.00  0.00     0.000 A 
HETATM   15  C   LIG     1       2.131  -3.786   2.588  1.00  0.00     0.001 A 
HETATM   16  C   LIG     1       1.962  -2.420   2.830  1.00  0.00     0.009 A 
ENDBRANCH  10  11
ENDBRANCH   9  10
ENDBRANCH   4   9
TORSDOF 3
