REMARK  0 active torsions:
REMARK  status: ('A' for Active; 'I' for Inactive)
ROOT
HETATM    1  N   LIG     1      -0.711   1.203   0.005  1.00  0.00    -0.360 N 
ATOM      2  HN  LIG     1      -1.201   2.097   0.043  1.00  0.00     0.165 HD
HETATM    3  N   LIG     1       0.636  -1.282  -0.082  1.00  0.00    -0.351 N 
ATOM      4  HN  LIG     1       1.132  -2.173  -0.113  1.00  0.00     0.166 HD
HETATM    5  C   LIG     1      -0.709  -1.213  -0.080  1.00  0.00     0.138 A 
HETATM    6  C   LIG     1      -1.379   0.019  -0.048  1.00  0.00     0.047 A 
HETATM    7  C   LIG     1       0.640   1.128   0.004  1.00  0.00     0.021 A 
HETATM    8  C   LIG     1       1.290  -0.098  -0.040  1.00  0.00     0.114 A 
HETATM    9  N   LIG     1      -1.371  -2.439  -0.138  1.00  0.00    -0.081 NA
HETATM   10  C   LIG     1      -2.876   0.092  -0.077  1.00  0.00     0.072 C 
HETATM   11  C   LIG     1       1.416   2.405   0.048  1.00  0.00     0.069 C 
ENDROOT
TORSDOF 0
