REMARK  0 active torsions:
REMARK  status: ('A' for Active; 'I' for Inactive)
ROOT
HETATM    1  N   LIG     1       2.435  -0.700   0.019  1.00  0.00    -0.286 N 
ATOM      2  HN  LIG     1       3.330  -1.189   0.012  1.00  0.00     0.188 HD
HETATM    3  N   LIG     1       2.384   0.663   0.014  1.00  0.00    -0.265 N 
ATOM      4  HN  LIG     1       3.275   1.159  -0.004  1.00  0.00     0.190 HD
HETATM    5  C   LIG     1       1.316  -1.360   0.033  1.00  0.00     0.129 A 
HETATM    6  C   LIG     1       1.242   1.430   0.031  1.00  0.00     0.271 A 
HETATM    7  C   LIG     1      -0.007  -0.703   0.032  1.00  0.00     0.019 A 
HETATM    8  C   LIG     1      -0.031   0.689   0.019  1.00  0.00     0.047 A 
HETATM    9  O   LIG     1       1.270   2.653   0.049  1.00  0.00    -0.266 OA
HETATM   10 CL   LIG     1       1.503  -3.080   0.038  1.00  0.00    -0.062 Cl
HETATM   11  C   LIG     1      -1.249   1.376  -0.023  1.00  0.00     0.018 A 
HETATM   12  C   LIG     1      -1.209  -1.421   0.020  1.00  0.00     0.016 A 
HETATM   13  C   LIG     1      -2.446   0.660  -0.057  1.00  0.00     0.001 A 
HETATM   14  C   LIG     1      -2.426  -0.735  -0.031  1.00  0.00     0.001 A 
ENDROOT
TORSDOF 0
