REMARK  0 active torsions:
REMARK  status: ('A' for Active; 'I' for Inactive)
ROOT
HETATM    1  N   LIG     1      -1.348  -0.377   0.005  1.00  0.00    -0.307 N 
ATOM      2  HN  LIG     1      -2.337  -0.625   0.014  1.00  0.00     0.186 HD
HETATM    3  N   LIG     1      -0.963   0.920   0.007  1.00  0.00    -0.270 N 
ATOM      4  HN  LIG     1      -1.712   1.613   0.015  1.00  0.00     0.190 HD
HETATM    5  C   LIG     1       0.310   1.408  -0.001  1.00  0.00     0.236 A 
HETATM    6  C   LIG     1      -0.438  -1.298  -0.008  1.00  0.00     0.000 A 
HETATM    7  O   LIG     1       0.523   2.621   0.010  1.00  0.00    -0.272 OA
HETATM    8  C   LIG     1       1.439   0.420  -0.029  1.00  0.00     0.110 A 
HETATM    9  C   LIG     1       1.041  -1.037  -0.025  1.00  0.00     0.062 A 
HETATM   10  C   LIG     1      -0.893  -2.736  -0.007  1.00  0.00     0.065 C 
ENDROOT
TORSDOF 0
