REMARK  1 active torsions:
REMARK  status: ('A' for Active; 'I' for Inactive)
REMARK    1  A    between atoms: C_1  and  C_3 
ROOT
HETATM    1  C   LIG     1      -1.405  -0.138  -0.029  1.00  0.00     0.065 A 
HETATM    2  C   LIG     1      -0.618  -1.309  -0.003  1.00  0.00     0.065 A 
HETATM    3  C   LIG     1      -0.786   1.123  -0.104  1.00  0.00     0.022 A 
HETATM    4  C   LIG     1       0.780  -1.175   0.022  1.00  0.00     0.051 A 
HETATM    5  C   LIG     1       1.382   0.081  -0.060  1.00  0.00     0.035 A 
HETATM    6  N   LIG     1      -1.158  -2.588   0.238  1.00  0.00    -0.101 NA
HETATM    7  C   LIG     1       0.605   1.232  -0.128  1.00  0.00     0.025 A 
HETATM    8 CL   LIG     1       3.098   0.209  -0.058  1.00  0.00    -0.084 Cl
ENDROOT
BRANCH   1   9
HETATM    9  C   LIG     1      -2.893  -0.134  -0.005  1.00  0.00     0.211 C 
HETATM   10  O   LIG     1      -3.594   0.842   0.195  1.00  0.00    -0.644 OA
HETATM   11  O   LIG     1      -3.452  -1.325  -0.302  1.00  0.00    -0.644 OA
ENDBRANCH   1   9
TORSDOF 1
