REMARK  2 active torsions:
REMARK  status: ('A' for Active; 'I' for Inactive)
REMARK    1  A    between atoms: C_1  and  C_3 
REMARK    2  A    between atoms: C_2  and  N_4 
REMARK       I    between atoms: C_3  and  N_6 
ROOT
HETATM    1  C   LIG     1      -0.755  -0.129  -0.432  1.00  0.00     0.053 A 
HETATM    2  C   LIG     1      -1.356  -1.260   0.176  1.00  0.00     0.026 A 
HETATM    3  C   LIG     1      -0.914   1.158   0.131  1.00  0.00     0.019 A 
HETATM    4  C   LIG     1      -2.109  -1.018   1.348  1.00  0.00     0.025 A 
HETATM    5  C   LIG     1      -1.647   1.348   1.299  1.00  0.00     0.001 A 
HETATM    6  C   LIG     1      -2.247   0.257   1.906  1.00  0.00     0.002 A 
ENDROOT
BRANCH   2   7
HETATM    7  N   LIG     1      -1.207  -2.581  -0.326  1.00  0.00    -0.283 NA
HETATM    8  C   LIG     1      -1.230  -3.656   0.689  1.00  0.00     0.095 C 
HETATM    9  C   LIG     1      -0.876  -5.003   0.061  1.00  0.00     0.015 C 
HETATM   10  C   LIG     1      -1.813  -5.317  -1.100  1.00  0.00     0.002 C 
HETATM   11  C   LIG     1      -1.783  -4.179  -2.117  1.00  0.00     0.015 C 
HETATM   12  C   LIG     1      -2.127  -2.840  -1.458  1.00  0.00     0.095 C 
ENDBRANCH   2   7
BRANCH   1  13
HETATM   13  C   LIG     1       0.087  -0.188  -1.663  1.00  0.00     0.251 C 
HETATM   14  O   LIG     1      -0.258  -0.723  -2.711  1.00  0.00    -0.268 OA
HETATM   15  N   LIG     1       1.277   0.492  -1.603  1.00  0.00    -0.366 N 
ATOM     16  HN2 LIG     1       1.564   0.937  -0.731  1.00  0.00     0.159 HD
ATOM     17  HN1 LIG     1       1.852   0.452  -2.444  1.00  0.00     0.159 HD
ENDBRANCH   1  13
TORSDOF 2
