REMARK  2 active torsions:
REMARK  status: ('A' for Active; 'I' for Inactive)
REMARK    1  A    between atoms: C_1  and  O_4 
REMARK    2  A    between atoms: C_3  and  O_4 
ROOT
HETATM    1  C   LIG     1       1.305  -3.740  -0.188  1.00  0.00    -0.017 A 
HETATM    2  C   LIG     1       2.024  -2.898   0.648  1.00  0.00     0.084 A 
HETATM    3  C   LIG     1       1.337  -5.134  -0.022  1.00  0.00    -0.043 A 
HETATM    4  C   LIG     1       2.089  -5.723   0.989  1.00  0.00    -0.055 A 
HETATM    5  C   LIG     1       2.743  -3.474   1.698  1.00  0.00     0.038 A 
HETATM    6  C   LIG     1       2.783  -4.870   1.860  1.00  0.00     0.010 A 
HETATM    7  C   LIG     1       0.474  -3.365  -1.377  1.00  0.00     0.042 C 
HETATM    8  C   LIG     1       0.524  -5.806  -1.088  1.00  0.00     0.040 C 
HETATM    9  C   LIG     1      -0.341  -4.646  -1.593  1.00  0.00     0.009 C 
HETATM   10  C   LIG     1       2.125  -7.208   1.180  1.00  0.00     0.049 C 
ENDROOT
BRANCH   2  11
HETATM   11  O   LIG     1       1.890  -1.546   0.457  1.00  0.00    -0.291 OA
BRANCH  11  12
HETATM   12  C   LIG     1       2.997  -0.723   0.656  1.00  0.00     0.172 A 
HETATM   13  N   LIG     1       4.243  -1.216   0.447  1.00  0.00    -0.345 N 
HETATM   14  C   LIG     1       5.266  -0.351   0.598  1.00  0.00     0.090 A 
ATOM     15  HN  LIG     1       4.398  -2.191   0.189  1.00  0.00     0.167 HD
HETATM   16  C   LIG     1       5.104   0.985   0.925  1.00  0.00     0.019 A 
HETATM   17  C   LIG     1       3.812   1.469   1.119  1.00  0.00     0.032 A 
HETATM   18  C   LIG     1       2.720   0.605   1.027  1.00  0.00     0.097 A 
HETATM   19  N   LIG     1       1.414   1.126   1.084  1.00  0.00    -0.098 NA
ENDBRANCH  11  12
ENDBRANCH   2  11
TORSDOF 2
