REMARK  4 active torsions:
REMARK  status: ('A' for Active; 'I' for Inactive)
REMARK    1  A    between atoms: C_1  and  C_4 
REMARK    2  A    between atoms: C_1  and  O_7 
REMARK    3  A    between atoms: C_3  and  C_4 
REMARK    4  A    between atoms: C_6  and  O_8 
ROOT
HETATM    1  C   LIG     1       0.763  -0.915  -2.267  1.00  0.00    -0.046 A 
HETATM    2  C   LIG     1       0.774   0.351  -2.876  1.00  0.00     0.044 A 
HETATM    3  C   LIG     1       0.959   0.486  -4.255  1.00  0.00     0.068 A 
HETATM    4  C   LIG     1       1.136  -1.919  -4.440  1.00  0.00     0.003 A 
HETATM    5  C   LIG     1       0.946  -2.049  -3.066  1.00  0.00     0.008 A 
HETATM    6  C   LIG     1       1.142  -0.656  -5.034  1.00  0.00     0.037 A 
ENDROOT
BRANCH   1   7
HETATM    7  C   LIG     1       0.505  -1.059  -0.787  1.00  0.00     0.149 C 
BRANCH   7   8
HETATM    8  C   LIG     1       1.500  -0.344   0.096  1.00  0.00     0.262 C 
HETATM    9  O   LIG     1       2.682  -0.153  -0.162  1.00  0.00    -0.265 OA
BRANCH   8  10
HETATM   10  O   LIG     1       0.899  -0.001   1.273  1.00  0.00    -0.326 OA
HETATM   11  C   LIG     1       1.776   0.611   2.219  1.00  0.00     0.213 C 
ENDBRANCH   8  10
ENDBRANCH   7   8
ENDBRANCH   1   7
BRANCH   3  12
HETATM   12  O   LIG     1       0.933   1.774  -4.718  1.00  0.00    -0.356 OA
HETATM   13  C   LIG     1       1.059   1.944  -6.125  1.00  0.00     0.210 C 
ENDBRANCH   3  12
TORSDOF 4
