REMARK  2 active torsions:
REMARK  status: ('A' for Active; 'I' for Inactive)
REMARK    1  A    between atoms: C_3  and  C_4 
REMARK    2  A    between atoms: C_4  and  O_10 
ROOT
HETATM    1  N   LIG     1       2.281  -0.902   0.003  1.00  0.00    -0.360 N 
ATOM      2  HN  LIG     1       3.138  -1.455   0.030  1.00  0.00     0.165 HD
HETATM    3  C   LIG     1       2.311   0.455  -0.063  1.00  0.00     0.108 A 
HETATM    4  C   LIG     1       1.168   1.245  -0.120  1.00  0.00     0.048 A 
HETATM    5  C   LIG     1      -0.085   0.621  -0.076  1.00  0.00    -0.022 A 
HETATM    6  C   LIG     1       1.063  -1.483   0.031  1.00  0.00     0.100 A 
HETATM    7  C   LIG     1      -0.145  -0.785   0.005  1.00  0.00    -0.011 A 
HETATM    8  C   LIG     1      -1.281   1.356  -0.093  1.00  0.00     0.012 A 
HETATM    9  C   LIG     1      -1.392  -1.430   0.065  1.00  0.00     0.013 A 
HETATM   10  C   LIG     1      -2.515   0.705  -0.025  1.00  0.00     0.001 A 
HETATM   11  C   LIG     1      -2.570  -0.685   0.053  1.00  0.00     0.001 A 
ENDROOT
BRANCH   3  12
HETATM   12  C   LIG     1       3.646   1.127  -0.022  1.00  0.00     0.309 C 
HETATM   13  O   LIG     1       3.805   2.334  -0.112  1.00  0.00    -0.258 OA
BRANCH  12  14
HETATM   14  O   LIG     1       4.626   0.206   0.172  1.00  0.00    -0.321 OA
HETATM   15  C   LIG     1       5.931   0.755   0.330  1.00  0.00     0.213 C 
ENDBRANCH  12  14
ENDBRANCH   3  12
TORSDOF 2
