REMARK  0 active torsions:
REMARK  status: ('A' for Active; 'I' for Inactive)
ROOT
HETATM    1  C   LIG     1      -2.436  -0.442   0.000  1.00  0.00     0.297 A 
HETATM    2  C   LIG     1      -0.065  -0.799  -0.000  1.00  0.00     0.049 A 
HETATM    3  N   LIG     1      -1.758   0.762   0.000  1.00  0.00    -0.319 N 
ATOM      4  HN  LIG     1      -2.207   1.678   0.000  1.00  0.00     0.169 HD
HETATM    5  C   LIG     1      -1.330  -1.535   0.000  1.00  0.00     0.252 A 
HETATM    6  C   LIG     1      -0.381   0.560  -0.000  1.00  0.00     0.049 A 
HETATM    7  C   LIG     1       1.232  -1.264  -0.001  1.00  0.00     0.060 A 
HETATM    8  O   LIG     1      -3.632  -0.627   0.001  1.00  0.00    -0.264 OA
HETATM    9  O   LIG     1      -1.475  -2.734   0.001  1.00  0.00    -0.281 OA
HETATM   10  C   LIG     1       0.606   1.524   0.000  1.00  0.00     0.033 A 
HETATM   11  C   LIG     1       2.232  -0.297  -0.001  1.00  0.00     0.117 A 
HETATM   12  C   LIG     1       1.934   1.078   0.000  1.00  0.00     0.044 A 
HETATM   13  F   LIG     1       3.514  -0.682  -0.001  1.00  0.00    -0.206 F 
ENDROOT
TORSDOF 0
