REMARK  4 active torsions:
REMARK  status: ('A' for Active; 'I' for Inactive)
REMARK    1  A    between atoms: C_1  and  C_6 
REMARK    2  A    between atoms: C_2  and  C_5 
REMARK    3  A    between atoms: C_4  and  O_8 
REMARK    4  A    between atoms: C_5  and  C_6 
ROOT
HETATM    1  C   LIG     1       2.688  -2.105  -1.925  1.00  0.00    -0.024 A 
HETATM    2  C   LIG     1       3.475  -3.244  -1.668  1.00  0.00     0.074 A 
HETATM    3  C   LIG     1       3.296  -0.956  -2.460  1.00  0.00     0.010 A 
HETATM    4  C   LIG     1       4.841  -3.220  -1.972  1.00  0.00     0.037 A 
HETATM    5  C   LIG     1       4.658  -0.942  -2.752  1.00  0.00     0.001 A 
HETATM    6  C   LIG     1       5.429  -2.074  -2.513  1.00  0.00     0.003 A 
ENDROOT
BRANCH   1   7
HETATM    7  C   LIG     1       1.203  -2.079  -1.631  1.00  0.00     0.052 C 
BRANCH   7   8
HETATM    8  C   LIG     1       0.901  -1.591  -0.217  1.00  0.00     0.118 C 
BRANCH   8   9
HETATM    9  C   LIG     1      -0.581  -1.570   0.029  1.00  0.00     0.172 C 
HETATM   10  O   LIG     1      -1.461  -1.384  -0.797  1.00  0.00    -0.648 OA
HETATM   11  O   LIG     1      -0.892  -1.724   1.330  1.00  0.00    -0.648 OA
ENDBRANCH   8   9
ENDBRANCH   7   8
ENDBRANCH   1   7
BRANCH   2  12
HETATM   12  O   LIG     1       2.819  -4.318  -1.124  1.00  0.00    -0.355 OA
HETATM   13  C   LIG     1       3.587  -5.488  -0.869  1.00  0.00     0.210 C 
ENDBRANCH   2  12
TORSDOF 4
