REMARK  2 active torsions:
REMARK  status: ('A' for Active; 'I' for Inactive)
REMARK    1  A    between atoms: C_1  and  O_2 
REMARK    2  A    between atoms: O_2  and  C_3 
ROOT
HETATM    1  C   LIG     1       0.600  -1.193  -0.162  1.00  0.00     0.172 A 
HETATM    2  N   LIG     1      -0.321  -1.959  -0.800  1.00  0.00    -0.345 N 
ATOM      3  HN  LIG     1      -0.312  -2.977  -0.737  1.00  0.00     0.167 HD
HETATM    4  C   LIG     1       0.581   0.211  -0.121  1.00  0.00     0.097 A 
HETATM    5  N   LIG     1       1.596   0.972   0.488  1.00  0.00    -0.098 NA
HETATM    6  C   LIG     1      -1.248  -1.298  -1.522  1.00  0.00     0.090 A 
HETATM    7  C   LIG     1      -0.373   0.842  -0.919  1.00  0.00     0.032 A 
HETATM    8  C   LIG     1      -1.309   0.083  -1.620  1.00  0.00     0.019 A 
ENDROOT
BRANCH   1   9
HETATM    9  O   LIG     1       1.591  -1.818   0.596  1.00  0.00    -0.289 OA
BRANCH   9  10
HETATM   10  C   LIG     1       1.980  -3.072   0.192  1.00  0.00     0.116 A 
HETATM   11  C   LIG     1       2.427  -3.350  -1.101  1.00  0.00     0.150 A 
HETATM   12  F   LIG     1       2.478  -2.389  -2.034  1.00  0.00    -0.203 F 
HETATM   13  C   LIG     1       2.862  -4.630  -1.439  1.00  0.00     0.045 A 
HETATM   14  C   LIG     1       2.875  -5.635  -0.472  1.00  0.00     0.003 A 
HETATM   15  C   LIG     1       2.458  -5.355   0.831  1.00  0.00     0.003 A 
HETATM   16  C   LIG     1       2.017  -4.073   1.165  1.00  0.00     0.040 A 
ENDBRANCH   9  10
ENDBRANCH   1   9
TORSDOF 2
