REMARK  2 active torsions:
REMARK  status: ('A' for Active; 'I' for Inactive)
REMARK    1  A    between atoms: C_1  and  C_2 
REMARK    2  A    between atoms: C_1  and  N_3 
ROOT
HETATM    1  C   LIG     1       0.622   0.459  -0.599  1.00  0.00     0.368 C 
HETATM    2  N   LIG     1      -1.134  -1.523  -0.824  1.00  0.00    -0.195 NA
HETATM    3  C   LIG     1      -0.351  -0.669  -0.717  1.00  0.00     0.101 C 
ENDROOT
BRANCH   1   4
HETATM    4  C   LIG     1       2.007  -0.163  -0.518  1.00  0.00     0.029 A 
HETATM    5  S   LIG     1       3.089  -0.015  -1.847  1.00  0.00    -0.103 SA
HETATM    6  C   LIG     1       4.310  -0.891  -1.036  1.00  0.00     0.050 A 
HETATM    7  C   LIG     1       3.913  -1.295   0.218  1.00  0.00     0.008 A 
HETATM    8  C   LIG     1       2.584  -0.879   0.517  1.00  0.00     0.018 A 
ENDBRANCH   1   4
BRANCH   1   9
HETATM    9  N   LIG     1       0.346   1.344   0.574  1.00  0.00     0.115 N 
HETATM   10  C   LIG     1      -1.008   1.955   0.512  1.00  0.00     0.300 C 
HETATM   11  C   LIG     1      -1.146   3.063  -0.546  1.00  0.00     0.198 C 
HETATM   12  O   LIG     1      -0.183   4.100  -0.334  1.00  0.00    -0.388 OA
HETATM   13  C   LIG     1       1.151   3.580  -0.333  1.00  0.00     0.198 C 
HETATM   14  C   LIG     1       1.318   2.459   0.707  1.00  0.00     0.300 C 
ENDBRANCH   1   9
TORSDOF 2
