REMARK  1 active torsions:
REMARK  status: ('A' for Active; 'I' for Inactive)
REMARK    1  A    between atoms: C_2  and  O_10 
ROOT
HETATM    1  C   LIG     1      -0.003  -0.763   0.007  1.00  0.00     0.080 A 
HETATM    2  C   LIG     1       1.250  -1.363   0.017  1.00  0.00     0.156 A 
HETATM    3  N   LIG     1       2.424  -0.720   0.017  1.00  0.00    -0.332 N 
ATOM      4  HN  LIG     1       3.320  -1.207   0.025  1.00  0.00     0.168 HD
HETATM    5  N   LIG     1       1.185   1.322  -0.011  1.00  0.00    -0.351 N 
ATOM      6  HN  LIG     1       1.194   2.342  -0.023  1.00  0.00     0.166 HD
HETATM    7  C   LIG     1       2.324   0.613   0.006  1.00  0.00     0.182 A 
HETATM    8  C   LIG     1      -1.246  -1.428   0.009  1.00  0.00     0.133 A 
HETATM    9  C   LIG     1       0.034   0.633  -0.012  1.00  0.00     0.050 A 
HETATM   10  F   LIG     1      -1.309  -2.767   0.037  1.00  0.00    -0.205 F 
HETATM   11  C   LIG     1      -2.406   0.669  -0.045  1.00  0.00     0.005 A 
HETATM   12  C   LIG     1      -2.442  -0.719  -0.018  1.00  0.00     0.043 A 
HETATM   13  C   LIG     1      -1.172   1.327  -0.038  1.00  0.00     0.030 A 
ENDROOT
BRANCH   2  14
HETATM   14  O   LIG     1       1.399  -2.714   0.018  1.00  0.00    -0.345 OA
ATOM     15  HO  LIG     1       2.256  -3.124   0.025  1.00  0.00     0.219 HD
ENDBRANCH   2  14
TORSDOF 1
