REMARK  4 active torsions:
REMARK  status: ('A' for Active; 'I' for Inactive)
REMARK    1  A    between atoms: C_1  and  C_6 
REMARK    2  A    between atoms: C_2  and  C_5 
REMARK    3  A    between atoms: C_4  and  O_8 
REMARK    4  A    between atoms: C_5  and  C_6 
ROOT
HETATM    1  C   LIG     1       2.306  -2.611   0.698  1.00  0.00    -0.025 A 
HETATM    2  C   LIG     1       2.879  -3.876   0.506  1.00  0.00     0.071 A 
HETATM    3  C   LIG     1       3.163  -1.544   1.019  1.00  0.00     0.010 A 
HETATM    4  C   LIG     1       4.250  -4.079   0.643  1.00  0.00     0.037 A 
HETATM    5  C   LIG     1       4.542  -1.741   1.134  1.00  0.00     0.001 A 
HETATM    6  C   LIG     1       5.085  -3.010   0.950  1.00  0.00     0.003 A 
ENDROOT
BRANCH   1   7
HETATM    7  C   LIG     1       0.822  -2.347   0.577  1.00  0.00     0.052 C 
BRANCH   7   8
HETATM    8  C   LIG     1       0.070  -2.486   1.903  1.00  0.00     0.118 C 
BRANCH   8   9
HETATM    9  C   LIG     1       0.133  -3.890   2.434  1.00  0.00     0.172 C 
HETATM   10  O   LIG     1       0.158  -4.904   1.765  1.00  0.00    -0.648 OA
HETATM   11  O   LIG     1       0.123  -3.950   3.778  1.00  0.00    -0.648 OA
ENDBRANCH   8   9
ENDBRANCH   7   8
ENDBRANCH   1   7
BRANCH   2  12
HETATM   12  O   LIG     1       2.166  -4.984   0.147  1.00  0.00    -0.360 OA
ATOM     13  HO  LIG     1       2.554  -5.841   0.017  1.00  0.00     0.217 HD
ENDBRANCH   2  12
TORSDOF 4
