REMARK  1 active torsions:
REMARK  status: ('A' for Active; 'I' for Inactive)
REMARK    1  A    between atoms: N_1  and  C_2 
ROOT
HETATM    1  C   LIG     1       1.076   2.172  -1.308  1.00  0.00     0.051 A 
HETATM    2  N   LIG     1      -0.575   4.244   1.102  1.00  0.00    -0.191 NA
HETATM    3  C   LIG     1       0.085   3.896   0.211  1.00  0.00     0.102 C 
HETATM    4  C   LIG     1       0.908   3.510  -0.898  1.00  0.00     0.071 A 
HETATM    5  C   LIG     1       1.969   1.936  -2.376  1.00  0.00     0.031 A 
HETATM    6  C   LIG     1       1.603   4.549  -1.551  1.00  0.00     0.025 A 
HETATM    7  C   LIG     1       2.657   2.968  -3.018  1.00  0.00     0.002 A 
HETATM    8  C   LIG     1       2.472   4.280  -2.606  1.00  0.00     0.002 A 
ENDROOT
BRANCH   1   9
HETATM    9  N   LIG     1       0.448   1.039  -0.770  1.00  0.00    -0.380 N 
HETATM   10  C   LIG     1       1.324   0.222   0.087  1.00  0.00     0.123 C 
HETATM   11  C   LIG     1       0.775  -1.204   0.154  1.00  0.00     0.020 C 
HETATM   12  C   LIG     1      -0.688  -1.225   0.592  1.00  0.00     0.003 C 
HETATM   13  C   LIG     1      -1.533  -0.298  -0.281  1.00  0.00     0.020 C 
HETATM   14  C   LIG     1      -0.944   1.114  -0.308  1.00  0.00     0.123 C 
ENDBRANCH   1   9
TORSDOF 1
