REMARK  2 active torsions:
REMARK  status: ('A' for Active; 'I' for Inactive)
REMARK    1  A    between atoms: C_1  and  S_2 
REMARK    2  A    between atoms: S_2  and  N_9 
ROOT
HETATM    1  C   LIG     1      -0.262  -1.171  -0.024  1.00  0.00     0.110 A 
HETATM    2  C   LIG     1       1.053  -0.778   0.001  1.00  0.00     0.099 A 
HETATM    3  C   LIG     1      -1.149  -0.050   0.016  1.00  0.00     0.059 A 
HETATM    4  S   LIG     1       1.234   0.912   0.071  1.00  0.00    -0.064 SA
HETATM    5  C   LIG     1      -0.445   1.126   0.068  1.00  0.00     0.077 A 
HETATM    6 CL   LIG     1       2.471  -1.750  -0.028  1.00  0.00    -0.075 Cl
HETATM    7 CL   LIG     1      -1.104   2.710   0.128  1.00  0.00    -0.076 Cl
ENDROOT
BRANCH   1   8
HETATM    8  S   LIG     1      -0.781  -2.803  -0.094  1.00  0.00     0.259 S 
HETATM    9  O   LIG     1      -0.354  -3.285  -1.384  1.00  0.00    -0.201 OA
HETATM   10  O   LIG     1      -0.379  -3.387   1.162  1.00  0.00    -0.201 OA
BRANCH   8  11
HETATM   11  N   LIG     1      -2.461  -2.844  -0.113  1.00  0.00    -0.324 N 
ATOM     12  HN2 LIG     1      -3.062  -2.020  -0.087  1.00  0.00     0.169 HD
ATOM     13  HN1 LIG     1      -2.770  -3.815  -0.155  1.00  0.00     0.169 HD
ENDBRANCH   8  11
ENDBRANCH   1   8
TORSDOF 2
