REMARK  3 active torsions:
REMARK  status: ('A' for Active; 'I' for Inactive)
REMARK    1  A    between atoms: C_1  and  C_2 
REMARK    2  A    between atoms: C_2  and  C_3 
REMARK    3  A    between atoms: C_2  and  O_10 
ROOT
HETATM    1  C   LIG     1      -1.041  -0.332  -0.169  1.00  0.00    -0.013 A 
HETATM    2  C   LIG     1      -0.161  -1.428  -0.028  1.00  0.00    -0.053 A 
HETATM    3  C   LIG     1      -0.497   0.971  -0.167  1.00  0.00     0.017 A 
HETATM    4  C   LIG     1       1.220  -1.194   0.085  1.00  0.00     0.008 A 
HETATM    5  C   LIG     1       0.877   1.197  -0.022  1.00  0.00    -0.061 A 
HETATM    6  C   LIG     1       1.734   0.103   0.089  1.00  0.00     0.007 A 
HETATM    7  C   LIG     1      -0.647  -2.853  -0.027  1.00  0.00     0.049 C 
HETATM    8  C   LIG     1       1.426   2.593  -0.036  1.00  0.00     0.048 C 
ENDROOT
BRANCH   1   9
HETATM    9  C   LIG     1      -2.546  -0.513  -0.297  1.00  0.00     0.252 C 
BRANCH   9  10
HETATM   10  C   LIG     1      -3.278  -0.506   1.056  1.00  0.00     0.207 C 
HETATM   11  O   LIG     1      -2.903  -0.943   2.135  1.00  0.00    -0.646 OA
HETATM   12  O   LIG     1      -4.527   0.020   0.944  1.00  0.00    -0.646 OA
ENDBRANCH   9  10
BRANCH   9  13
HETATM   13  O   LIG     1      -3.072   0.494  -1.174  1.00  0.00    -0.380 OA
ATOM     14  HO  LIG     1      -4.012   0.381  -1.254  1.00  0.00     0.211 HD
ENDBRANCH   9  13
ENDBRANCH   1   9
TORSDOF 3
