REMARK  4 active torsions:
REMARK  status: ('A' for Active; 'I' for Inactive)
REMARK    1  A    between atoms: C_1  and  C_3 
REMARK    2  A    between atoms: C_3  and  C_10 
REMARK    3  A    between atoms: C_4  and  C_11 
REMARK    4  A    between atoms: C_10  and  C_11 
ROOT
HETATM    1  C   LIG     1      -0.691  -2.692   0.967  1.00  0.00     0.166 C 
HETATM    2  O   LIG     1      -0.623  -2.837   2.190  1.00  0.00    -0.292 OA
ENDROOT
BRANCH   1   3
HETATM    3  C   LIG     1       0.496  -2.820   0.111  1.00  0.00     0.050 A 
HETATM    4  S   LIG     1       0.424  -2.621  -1.592  1.00  0.00    -0.098 SA
HETATM    5  C   LIG     1       2.104  -2.867  -1.777  1.00  0.00     0.050 A 
HETATM    6  C   LIG     1       2.724  -3.100  -0.572  1.00  0.00     0.009 A 
HETATM    7  C   LIG     1       1.791  -3.115   0.510  1.00  0.00     0.023 A 
ENDBRANCH   1   3
BRANCH   1   8
HETATM    8  C   LIG     1      -2.043  -2.409   0.305  1.00  0.00     0.095 C 
BRANCH   8   9
HETATM    9  C   LIG     1      -3.206  -2.284   1.288  1.00  0.00     0.121 C 
BRANCH   9  10
HETATM   10  C   LIG     1      -3.122  -1.043   2.128  1.00  0.00     0.172 C 
HETATM   11  O   LIG     1      -2.542  -0.001   1.847  1.00  0.00    -0.648 OA
HETATM   12  O   LIG     1      -3.819  -1.163   3.274  1.00  0.00    -0.648 OA
ENDBRANCH   9  10
ENDBRANCH   8   9
ENDBRANCH   1   8
TORSDOF 4
