REMARK  2 active torsions:
REMARK  status: ('A' for Active; 'I' for Inactive)
REMARK    1  A    between atoms: N_1  and  O_9 
REMARK    2  A    between atoms: C_6  and  C_8 
ROOT
HETATM    1  N   LIG     1      -0.704  -1.041  -0.166  1.00  0.00    -0.156 NA
HETATM    2  N   LIG     1       0.061   1.087  -0.198  1.00  0.00    -0.360 N 
ATOM      3  HN  LIG     1       0.059   2.090  -0.386  1.00  0.00     0.162 HD
HETATM    4  C   LIG     1       0.759  -1.129   0.111  1.00  0.00     0.086 C 
HETATM    5  C   LIG     1       1.188   0.295  -0.250  1.00  0.00     0.099 C 
HETATM    6  C   LIG     1      -1.104   0.338   0.150  1.00  0.00     0.218 C 
HETATM    7  S   LIG     1       2.703   0.881  -0.575  1.00  0.00    -0.063 SA
HETATM    8  C   LIG     1       1.100  -1.392   1.591  1.00  0.00     0.042 C 
HETATM    9  C   LIG     1       1.365  -2.209  -0.783  1.00  0.00     0.042 C 
ENDROOT
BRANCH   6  10
HETATM   10  C   LIG     1      -2.321   0.787  -0.625  1.00  0.00    -0.019 A 
HETATM   11  C   LIG     1      -2.321   0.822  -2.030  1.00  0.00     0.010 A 
HETATM   12  C   LIG     1      -3.453   1.238  -2.734  1.00  0.00     0.001 A 
HETATM   13  C   LIG     1      -4.600   1.622  -2.044  1.00  0.00     0.000 A 
HETATM   14  C   LIG     1      -4.619   1.588  -0.651  1.00  0.00     0.001 A 
HETATM   15  C   LIG     1      -3.488   1.172   0.055  1.00  0.00     0.010 A 
ENDBRANCH   6  10
BRANCH   1  16
HETATM   16  O   LIG     1      -1.431  -1.955   0.695  1.00  0.00    -0.310 OA
ATOM     17  HO  LIG     1      -2.363  -1.899   0.519  1.00  0.00     0.237 HD
ENDBRANCH   1  16
TORSDOF 2
