REMARK  3 active torsions:
REMARK  status: ('A' for Active; 'I' for Inactive)
REMARK    1  A    between atoms: C_3  and  C_7 
REMARK    2  A    between atoms: N_4  and  C_9 
REMARK    3  A    between atoms: C_7  and  C_9 
ROOT
HETATM    1  N   LIG     1       0.992  -0.519  -0.954  1.00  0.00    -0.369 N 
ATOM      2  HN  LIG     1       1.595  -1.325  -0.786  1.00  0.00     0.165 HD
HETATM    3  C   LIG     1      -0.352  -0.596  -0.782  1.00  0.00     0.010 A 
HETATM    4  C   LIG     1       1.501   0.666  -1.357  1.00  0.00     0.088 A 
HETATM    5  C   LIG     1      -1.191   0.495  -0.993  1.00  0.00     0.025 A 
HETATM    6  C   LIG     1       0.736   1.794  -1.594  1.00  0.00     0.017 A 
HETATM    7  C   LIG     1      -0.637   1.704  -1.406  1.00  0.00     0.003 A 
ENDROOT
BRANCH   3   8
HETATM    8  C   LIG     1      -0.912  -1.918  -0.317  1.00  0.00     0.084 C 
BRANCH   8   9
HETATM    9  C   LIG     1      -0.650  -3.034  -1.335  1.00  0.00     0.237 C 
BRANCH   9  10
HETATM   10  N   LIG     1      -1.216  -4.306  -0.859  1.00  0.00    -0.079 N 
HETATM   11  C   LIG     1      -0.996  -5.367  -1.834  1.00  0.00     0.267 C 
ATOM     12  HN2 LIG     1      -0.856  -4.558   0.061  1.00  0.00     0.276 HD
ATOM     13  HN1 LIG     1      -2.203  -4.213  -0.618  1.00  0.00     0.276 HD
ENDBRANCH   9  10
ENDBRANCH   8   9
ENDBRANCH   3   8
TORSDOF 3
