REMARK  0 active torsions:
REMARK  status: ('A' for Active; 'I' for Inactive)
ROOT
HETATM    1  C   LIG     1      -0.007  -1.229   0.627  1.00  0.00     0.056 C 
HETATM    2  C   LIG     1       0.014   1.239   0.609  1.00  0.00     0.056 C 
HETATM    3  C   LIG     1       1.235  -1.280  -0.244  1.00  0.00     0.131 C 
HETATM    4  C   LIG     1      -1.226   1.285  -0.262  1.00  0.00     0.131 C 
HETATM    5  C   LIG     1       0.004   0.011   1.497  1.00  0.00     0.024 C 
HETATM    6  C   LIG     1      -1.822  -0.008  -0.783  1.00  0.00     0.079 C 
HETATM    7  C   LIG     1       1.743   0.001  -0.877  1.00  0.00     0.079 C 
HETATM    8  O   LIG     1       1.746  -2.361  -0.535  1.00  0.00    -0.298 OA
HETATM    9  O   LIG     1      -1.693   2.368  -0.620  1.00  0.00    -0.298 OA
HETATM   10  C   LIG     1       1.284   1.309  -0.239  1.00  0.00     0.019 C 
HETATM   11  C   LIG     1      -1.275  -1.318  -0.220  1.00  0.00     0.019 C 
ENDROOT
TORSDOF 0
