REMARK  3 active torsions:
REMARK  status: ('A' for Active; 'I' for Inactive)
REMARK    1  A    between atoms: C_4  and  C_7 
REMARK    2  A    between atoms: C_7  and  C_12 
REMARK    3  A    between atoms: O_8  and  C_12 
ROOT
HETATM    1  N   LIG     1      -1.347   1.383  -0.102  1.00  0.00    -0.365 N 
ATOM      2  HN  LIG     1      -1.604   2.370  -0.108  1.00  0.00     0.165 HD
HETATM    3  C   LIG     1      -2.237   0.343  -0.140  1.00  0.00     0.096 A 
HETATM    4  C   LIG     1      -1.524  -0.840  -0.114  1.00  0.00    -0.028 A 
HETATM    5  C   LIG     1      -0.137  -0.486  -0.051  1.00  0.00    -0.002 A 
HETATM    6  C   LIG     1      -0.059   0.907  -0.055  1.00  0.00     0.042 A 
HETATM    7  C   LIG     1       1.064  -1.226   0.000  1.00  0.00     0.014 A 
HETATM    8  C   LIG     1       1.158   1.598  -0.013  1.00  0.00     0.030 A 
HETATM    9  C   LIG     1       2.289  -0.550   0.040  1.00  0.00     0.001 A 
HETATM   10  C   LIG     1       2.332   0.841   0.033  1.00  0.00     0.002 A 
ENDROOT
BRANCH   4  11
HETATM   11  C   LIG     1      -2.098  -2.225  -0.147  1.00  0.00     0.067 C 
BRANCH  11  12
HETATM   12  C   LIG     1      -2.262  -2.760  -1.570  1.00  0.00     0.168 C 
BRANCH  12  13
HETATM   13  O   LIG     1      -1.003  -3.074  -2.158  1.00  0.00    -0.401 OA
ATOM     14  HO  LIG     1      -1.105  -3.406  -3.042  1.00  0.00     0.209 HD
ENDBRANCH  12  13
ENDBRANCH  11  12
ENDBRANCH   4  11
TORSDOF 3
