REMARK  3 active torsions:
REMARK  status: ('A' for Active; 'I' for Inactive)
REMARK    1  A    between atoms: O_1  and  C_2 
REMARK    2  A    between atoms: O_1  and  C_4 
REMARK    3  A    between atoms: C_3  and  O_9 
ROOT
HETATM    1  C   LIG     1      -0.122   1.924  -0.287  1.00  0.00     0.076 A 
HETATM    2  C   LIG     1      -1.816   4.117  -0.043  1.00  0.00     0.065 A 
HETATM    3  C   LIG     1      -1.029   1.992   0.772  1.00  0.00     0.040 A 
HETATM    4  C   LIG     1      -0.094   2.944  -1.247  1.00  0.00     0.040 A 
HETATM    5  C   LIG     1      -0.936   4.050  -1.118  1.00  0.00     0.039 A 
HETATM    6  C   LIG     1      -1.876   3.094   0.897  1.00  0.00     0.039 A 
ENDROOT
BRANCH   1   7
HETATM    7  O   LIG     1       0.668   0.796  -0.346  1.00  0.00    -0.311 OA
BRANCH   7   8
HETATM    8  C   LIG     1       1.929   0.931  -0.877  1.00  0.00     0.076 A 
HETATM    9  C   LIG     1       2.284   0.074  -1.918  1.00  0.00     0.037 A 
HETATM   10  C   LIG     1       3.550   0.173  -2.494  1.00  0.00     0.003 A 
HETATM   11  C   LIG     1       4.463   1.116  -2.016  1.00  0.00     0.000 A 
HETATM   12  C   LIG     1       4.116   1.949  -0.952  1.00  0.00     0.003 A 
HETATM   13  C   LIG     1       2.852   1.851  -0.371  1.00  0.00     0.037 A 
ENDBRANCH   7   8
ENDBRANCH   1   7
BRANCH   2  14
HETATM   14  O   LIG     1      -2.652   5.182   0.124  1.00  0.00    -0.361 OA
ATOM     15  HO  LIG     1      -3.253   5.228   0.858  1.00  0.00     0.217 HD
ENDBRANCH   2  14
TORSDOF 3
