REMARK  2 active torsions:
REMARK  status: ('A' for Active; 'I' for Inactive)
REMARK    1  A    between atoms: C_1  and  C_3 
REMARK    2  A    between atoms: C_3  and  O_11 
ROOT
HETATM    1  C   LIG     1       0.946  -1.303  -0.155  1.00  0.00     0.067 A 
HETATM    2  C   LIG     1      -0.245  -0.564  -0.031  1.00  0.00     0.058 A 
HETATM    3  N   LIG     1      -1.558  -0.988   0.004  1.00  0.00    -0.364 N 
ATOM      4  HN  LIG     1      -1.857  -1.962  -0.040  1.00  0.00     0.165 HD
HETATM    5  C   LIG     1      -2.401   0.085   0.106  1.00  0.00     0.089 A 
HETATM    6  C   LIG     1      -0.264   0.827   0.072  1.00  0.00    -0.007 A 
HETATM    7  C   LIG     1      -1.628   1.223   0.146  1.00  0.00     0.030 A 
HETATM    8  C   LIG     1       2.152  -0.582  -0.139  1.00  0.00     0.020 A 
HETATM    9  C   LIG     1       2.159   0.809  -0.027  1.00  0.00     0.002 A 
HETATM   10  C   LIG     1       0.959   1.523   0.071  1.00  0.00     0.014 A 
ENDROOT
BRANCH   1  11
HETATM   11  C   LIG     1       0.878  -2.775  -0.330  1.00  0.00     0.295 C 
HETATM   12  O   LIG     1      -0.174  -3.400  -0.358  1.00  0.00    -0.259 OA
BRANCH  11  13
HETATM   13  O   LIG     1       2.118  -3.298  -0.494  1.00  0.00    -0.322 OA
HETATM   14  C   LIG     1       2.123  -4.694  -0.793  1.00  0.00     0.213 C 
ENDBRANCH  11  13
ENDBRANCH   1  11
TORSDOF 2
