REMARK  1 active torsions:
REMARK  status: ('A' for Active; 'I' for Inactive)
REMARK    1  A    between atoms: C_4  and  O_8 
ROOT
HETATM    1  C   LIG     1       2.469  -0.696  -0.039  1.00  0.00     0.250 A 
HETATM    2  C   LIG     1       2.410   0.783  -0.008  1.00  0.00     0.112 A 
HETATM    3  N   LIG     1       1.264  -1.385   0.001  1.00  0.00    -0.318 N 
HETATM    4  C   LIG     1       1.248   1.438   0.019  1.00  0.00     0.083 A 
HETATM    5  C   LIG     1       0.005  -0.707   0.020  1.00  0.00     0.050 A 
HETATM    6  C   LIG     1      -0.019   0.700   0.010  1.00  0.00     0.024 A 
HETATM    7  O   LIG     1       3.576  -1.224  -0.097  1.00  0.00    -0.268 OA
HETATM    8  C   LIG     1       1.305  -2.838  -0.031  1.00  0.00     0.159 C 
HETATM    9  C   LIG     1      -1.252   1.373  -0.025  1.00  0.00     0.016 A 
HETATM   10  C   LIG     1      -1.213  -1.407   0.024  1.00  0.00     0.031 A 
HETATM   11  C   LIG     1      -2.451   0.663  -0.052  1.00  0.00     0.001 A 
HETATM   12  C   LIG     1      -2.431  -0.726  -0.021  1.00  0.00     0.002 A 
ENDROOT
BRANCH   4  13
HETATM   13  O   LIG     1       1.166   2.815   0.049  1.00  0.00    -0.360 OA
ATOM     14  HO  LIG     1       0.339   3.281   0.068  1.00  0.00     0.217 HD
ENDBRANCH   4  13
TORSDOF 1
