REMARK  2 active torsions:
REMARK  status: ('A' for Active; 'I' for Inactive)
REMARK    1  A    between atoms: C_1  and  C_6 
REMARK    2  A    between atoms: C_2  and  C_6 
ROOT
HETATM    1  C   LIG     1       0.731   0.710   1.100  1.00  0.00    -0.030 C 
HETATM    2  C   LIG     1       0.198  -1.554   0.074  1.00  0.00    -0.013 C 
HETATM    3  C   LIG     1      -1.542   0.263   0.041  1.00  0.00    -0.013 C 
HETATM    4  C   LIG     1       0.499   0.454  -1.419  1.00  0.00    -0.013 C 
HETATM    5  C   LIG     1      -0.795   0.992   1.170  1.00  0.00     0.014 C 
HETATM    6  C   LIG     1       1.242   1.184  -0.285  1.00  0.00     0.014 C 
HETATM    7  C   LIG     1       0.942  -0.822   1.205  1.00  0.00     0.014 C 
HETATM    8  C   LIG     1      -1.005   0.748  -1.315  1.00  0.00     0.009 C 
HETATM    9  C   LIG     1      -1.305  -1.249   0.171  1.00  0.00     0.009 C 
HETATM   10  C   LIG     1       0.730  -1.060  -1.282  1.00  0.00     0.009 C 
ENDROOT
BRANCH   1  11
HETATM   11  C   LIG     1       1.422   1.464   2.252  1.00  0.00     0.122 C 
BRANCH  11  12
HETATM   12  C   LIG     1       2.916   1.287   2.312  1.00  0.00     0.173 C 
HETATM   13  O   LIG     1       3.747   1.954   1.720  1.00  0.00    -0.648 OA
HETATM   14  O   LIG     1       3.292   0.267   3.105  1.00  0.00    -0.648 OA
ENDBRANCH  11  12
ENDBRANCH   1  11
TORSDOF 2
