REMARK  4 active torsions:
REMARK  status: ('A' for Active; 'I' for Inactive)
REMARK    1  A    between atoms: C_3  and  C_4 
REMARK    2  A    between atoms: C_4  and  C_7 
REMARK    3  A    between atoms: O_5  and  C_7 
REMARK    4  A    between atoms: O_5  and  C_9 
ROOT
HETATM    1  N   LIG     1       0.966   0.050  -0.054  1.00  0.00    -0.369 N 
ATOM      2  HN  LIG     1       0.865  -0.212  -1.035  1.00  0.00     0.165 HD
HETATM    3  C   LIG     1       0.299  -0.615   0.923  1.00  0.00     0.011 A 
HETATM    4  C   LIG     1       1.768   1.071   0.319  1.00  0.00     0.088 A 
HETATM    5  C   LIG     1       0.429  -0.276   2.268  1.00  0.00     0.025 A 
HETATM    6  C   LIG     1       1.944   1.474   1.630  1.00  0.00     0.017 A 
HETATM    7  C   LIG     1       1.261   0.783   2.623  1.00  0.00     0.003 A 
ENDROOT
BRANCH   3   8
HETATM    8  C   LIG     1      -0.615  -1.751   0.529  1.00  0.00     0.083 C 
BRANCH   8   9
HETATM    9  C   LIG     1      -0.670  -2.012  -0.974  1.00  0.00     0.173 C 
BRANCH   9  10
HETATM   10  O   LIG     1      -1.553  -3.112  -1.230  1.00  0.00    -0.391 OA
BRANCH  10  11
HETATM   11  C   LIG     1      -1.646  -3.377  -2.630  1.00  0.00     0.163 C 
HETATM   12  C   LIG     1      -2.536  -4.585  -2.845  1.00  0.00     0.033 C 
ENDBRANCH  10  11
ENDBRANCH   9  10
ENDBRANCH   8   9
ENDBRANCH   3   8
TORSDOF 4
