REMARK  3 active torsions:
REMARK  status: ('A' for Active; 'I' for Inactive)
REMARK    1  A    between atoms: C_3  and  C_8 
REMARK    2  A    between atoms: C_7  and  C_10 
REMARK    3  A    between atoms: C_8  and  C_10 
ROOT
HETATM    1  N   LIG     1      -1.478   1.233  -0.217  1.00  0.00    -0.365 N 
ATOM      2  HN  LIG     1      -1.786   2.203  -0.285  1.00  0.00     0.165 HD
HETATM    3  C   LIG     1      -1.536  -0.993  -0.105  1.00  0.00    -0.030 A 
HETATM    4  C   LIG     1      -2.311   0.147  -0.195  1.00  0.00     0.096 A 
HETATM    5  C   LIG     1      -0.169  -0.564  -0.078  1.00  0.00    -0.002 A 
HETATM    6  C   LIG     1      -0.167   0.830  -0.134  1.00  0.00     0.042 A 
HETATM    7  C   LIG     1       1.069  -1.235  -0.003  1.00  0.00     0.014 A 
HETATM    8  C   LIG     1       1.010   1.588  -0.104  1.00  0.00     0.030 A 
HETATM    9  C   LIG     1       2.255  -0.492   0.026  1.00  0.00     0.001 A 
HETATM   10  C   LIG     1       2.223   0.899  -0.019  1.00  0.00     0.002 A 
ENDROOT
BRANCH   3  11
HETATM   11  C   LIG     1      -2.038  -2.401  -0.044  1.00  0.00     0.051 C 
BRANCH  11  12
HETATM   12  C   LIG     1      -2.259  -2.872   1.391  1.00  0.00     0.118 C 
BRANCH  12  13
HETATM   13  C   LIG     1      -2.797  -4.274   1.411  1.00  0.00     0.172 C 
HETATM   14  O   LIG     1      -3.020  -4.997   0.457  1.00  0.00    -0.648 OA
HETATM   15  O   LIG     1      -3.033  -4.707   2.665  1.00  0.00    -0.648 OA
ENDBRANCH  12  13
ENDBRANCH  11  12
ENDBRANCH   3  11
TORSDOF 3
