REMARK  2 active torsions:
REMARK  status: ('A' for Active; 'I' for Inactive)
REMARK    1  A    between atoms: C_1  and  C_2 
REMARK    2  A    between atoms: C_3  and  O_9 
ROOT
HETATM    1  C   LIG     1      -1.348  -0.215  -0.195  1.00  0.00     0.043 A 
HETATM    2  C   LIG     1      -0.541  -1.346  -0.056  1.00  0.00     0.079 A 
HETATM    3  C   LIG     1      -0.761   1.059  -0.208  1.00  0.00     0.024 A 
HETATM    4  C   LIG     1       0.832  -1.207   0.127  1.00  0.00     0.038 A 
HETATM    5  C   LIG     1       0.621   1.207  -0.029  1.00  0.00    -0.061 A 
HETATM    6  C   LIG     1       1.412   0.063   0.135  1.00  0.00     0.009 A 
HETATM    7  C   LIG     1       1.251   2.568  -0.072  1.00  0.00     0.048 C 
ENDROOT
BRANCH   1   8
HETATM    8  C   LIG     1      -2.822  -0.287  -0.309  1.00  0.00     0.158 C 
HETATM    9  O   LIG     1      -3.400   0.403  -1.145  1.00  0.00    -0.293 OA
HETATM   10  C   LIG     1      -3.571  -1.203   0.623  1.00  0.00     0.097 C 
ENDBRANCH   1   8
BRANCH   2  11
HETATM   11  O   LIG     1      -1.014  -2.626  -0.126  1.00  0.00    -0.360 OA
ATOM     12  HO  LIG     1      -0.465  -3.395  -0.031  1.00  0.00     0.217 HD
ENDBRANCH   2  11
TORSDOF 2
