REMARK  1 active torsions:
REMARK  status: ('A' for Active; 'I' for Inactive)
REMARK    1  A    between atoms: C_2  and  C_5 
ROOT
HETATM    1  C   LIG     1      -0.062   0.673   0.123  1.00  0.00     0.103 A 
HETATM    2  C   LIG     1       2.357   0.675   0.161  1.00  0.00     0.012 A 
HETATM    3  C   LIG     1       1.143   1.366   0.249  1.00  0.00     0.054 A 
HETATM    4  C   LIG     1      -0.066  -0.713  -0.061  1.00  0.00     0.102 A 
HETATM    5  O   LIG     1      -1.209   1.423   0.198  1.00  0.00    -0.346 OA
HETATM    6  O   LIG     1      -1.214  -1.456  -0.157  1.00  0.00    -0.346 OA
HETATM    7  C   LIG     1       2.347  -0.713  -0.053  1.00  0.00     0.018 A 
HETATM    8  C   LIG     1       1.138  -1.404  -0.164  1.00  0.00     0.040 A 
HETATM    9  C   LIG     1      -2.345   0.690  -0.276  1.00  0.00     0.202 C 
HETATM   10  C   LIG     1      -2.354  -0.717   0.298  1.00  0.00     0.202 C 
ENDROOT
BRANCH   2  11
HETATM   11  C   LIG     1       3.675   1.366   0.281  1.00  0.00     0.155 C 
HETATM   12  O   LIG     1       4.716   0.723   0.160  1.00  0.00    -0.293 OA
HETATM   13  C   LIG     1       3.702   2.847   0.551  1.00  0.00     0.096 C 
ENDBRANCH   2  11
TORSDOF 1
