REMARK  2 active torsions:
REMARK  status: ('A' for Active; 'I' for Inactive)
REMARK    1  A    between atoms: C_1  and  C_6 
REMARK    2  A    between atoms: C_5  and  O_7 
ROOT
HETATM    1  C   LIG     1      -1.874   1.218   2.196  1.00  0.00    -0.021 A 
HETATM    2  C   LIG     1      -0.930   0.447   2.915  1.00  0.00     0.074 A 
HETATM    3  C   LIG     1      -2.098   2.538   2.625  1.00  0.00     0.010 A 
HETATM    4  C   LIG     1      -0.256   0.988   4.019  1.00  0.00     0.037 A 
HETATM    5  C   LIG     1      -1.431   3.067   3.733  1.00  0.00     0.001 A 
HETATM    6  C   LIG     1      -0.514   2.293   4.431  1.00  0.00     0.003 A 
ENDROOT
BRANCH   1   7
HETATM    7  C   LIG     1      -2.590   0.614   0.983  1.00  0.00     0.024 C 
HETATM    8  C   LIG     1      -3.532  -0.548   1.367  1.00  0.00     0.037 C 
HETATM    9  C   LIG     1      -4.890  -0.058   1.861  1.00  0.00     0.233 C 
HETATM   10  N   LIG     1      -5.559   0.758   0.847  1.00  0.00    -0.075 N 
HETATM   11  C   LIG     1      -4.758   1.941   0.537  1.00  0.00     0.233 C 
ATOM     12  HN2 LIG     1      -6.509   1.004   1.123  1.00  0.00     0.277 HD
ATOM     13  HN1 LIG     1      -5.780   0.219   0.010  1.00  0.00     0.277 HD
HETATM   14  C   LIG     1      -3.348   1.586   0.052  1.00  0.00     0.037 C 
ENDBRANCH   1   7
BRANCH   2  15
HETATM   15  O   LIG     1      -0.667  -0.814   2.437  1.00  0.00    -0.355 OA
HETATM   16  C   LIG     1      -0.284  -1.779   3.411  1.00  0.00     0.210 C 
ENDBRANCH   2  15
TORSDOF 2
