REMARK  2 active torsions:
REMARK  status: ('A' for Active; 'I' for Inactive)
REMARK    1  A    between atoms: C_3  and  C_8 
REMARK    2  A    between atoms: C_6  and  N_9 
ROOT
HETATM    1  N   LIG     1      -0.160  -0.972   0.525  1.00  0.00    -0.321 N 
ATOM      2  HN  LIG     1      -0.257  -1.970   0.711  1.00  0.00     0.169 HD
HETATM    3  C   LIG     1       1.031  -0.326   0.170  1.00  0.00     0.123 A 
HETATM    4  N   LIG     1       0.997   1.000  -0.029  1.00  0.00    -0.309 N 
ATOM      5  HN  LIG     1       1.786   1.595  -0.281  1.00  0.00     0.176 HD
HETATM    6  C   LIG     1      -1.129  -0.093   0.581  1.00  0.00     0.160 A 
HETATM    7  S   LIG     1      -0.575   1.491   0.212  1.00  0.00     0.024 SA
ENDROOT
BRANCH   3   8
HETATM    8  C   LIG     1       2.270  -1.101   0.035  1.00  0.00     0.009 A 
HETATM    9  C   LIG     1       3.490  -0.475  -0.265  1.00  0.00     0.015 A 
HETATM   10  C   LIG     1       4.665  -1.222  -0.390  1.00  0.00     0.001 A 
HETATM   11  C   LIG     1       4.634  -2.605  -0.219  1.00  0.00     0.000 A 
HETATM   12  C   LIG     1       3.431  -3.242   0.078  1.00  0.00     0.001 A 
HETATM   13  C   LIG     1       2.257  -2.495   0.204  1.00  0.00     0.015 A 
ENDBRANCH   3   8
BRANCH   6  14
HETATM   14  N   LIG     1      -2.399  -0.389   0.904  1.00  0.00    -0.379 N 
ATOM     15  HN2 LIG     1      -2.728  -1.329   1.123  1.00  0.00     0.158 HD
ATOM     16  HN1 LIG     1      -3.154   0.296   0.948  1.00  0.00     0.158 HD
ENDBRANCH   6  14
TORSDOF 2
