REMARK  1 active torsions:
REMARK  status: ('A' for Active; 'I' for Inactive)
REMARK    1  A    between atoms: C_1  and  C_2 
ROOT
HETATM    1  C   LIG     1       0.301   0.751   1.165  1.00  0.00     0.041 A 
HETATM    2  C   LIG     1      -0.456  -0.010   2.069  1.00  0.00     0.028 A 
HETATM    3  C   LIG     1      -1.147   0.665   3.061  1.00  0.00    -0.022 A 
HETATM    4  C   LIG     1      -1.093   2.049   3.153  1.00  0.00     0.075 A 
HETATM    5  O   LIG     1      -1.846   2.560   4.178  1.00  0.00    -0.350 OA
HETATM    6  C   LIG     1       0.365   2.154   1.277  1.00  0.00     0.021 A 
HETATM    7  C   LIG     1      -0.351   2.815   2.277  1.00  0.00     0.038 A 
HETATM    8  C   LIG     1      -2.173   1.397   4.975  1.00  0.00     0.180 C 
HETATM    9  C   LIG     1      -2.060   0.145   4.104  1.00  0.00     0.068 C 
ENDROOT
BRANCH   1  10
HETATM   10  C   LIG     1       1.073   0.101   0.082  1.00  0.00     0.209 C 
HETATM   11  O   LIG     1       2.196   0.444  -0.238  1.00  0.00    -0.644 OA
HETATM   12  O   LIG     1       0.378  -0.872  -0.545  1.00  0.00    -0.644 OA
ENDBRANCH   1  10
TORSDOF 1
