REMARK  3 active torsions:
REMARK  status: ('A' for Active; 'I' for Inactive)
REMARK       I    between atoms: C_1  and  N_2 
REMARK    1  A    between atoms: C_1  and  O_7 
REMARK    2  A    between atoms: N_2  and  C_4 
REMARK    3  A    between atoms: O_7  and  C_11 
ROOT
HETATM    1  C   LIG     1       0.743  -0.205   0.143  1.00  0.00     0.365 C 
HETATM    2  N   LIG     1       1.530  -0.783   1.103  1.00  0.00    -0.302 N 
ATOM      3  HN  LIG     1       1.680  -1.790   1.045  1.00  0.00     0.171 HD
HETATM    4  O   LIG     1       0.519   0.991  -0.009  1.00  0.00    -0.238 OA
ENDROOT
BRANCH   1   5
HETATM    5  O   LIG     1       0.158  -1.183  -0.594  1.00  0.00    -0.294 OA
BRANCH   5   6
HETATM    6  C   LIG     1      -1.035  -0.870  -1.364  1.00  0.00     0.061 C 
HETATM    7  C   LIG     1      -0.732   0.015  -2.580  1.00  0.00     0.046 C 
HETATM    8  C   LIG     1      -1.557  -2.231  -1.847  1.00  0.00     0.046 C 
HETATM    9  C   LIG     1      -2.106  -0.244  -0.457  1.00  0.00     0.046 C 
ENDBRANCH   5   6
ENDBRANCH   1   5
BRANCH   2  10
HETATM   10  C   LIG     1       2.139  -0.103   2.149  1.00  0.00     0.043 A 
HETATM   11  C   LIG     1       2.136   1.307   2.380  1.00  0.00     0.037 A 
HETATM   12  C   LIG     1       2.858   1.670   3.494  1.00  0.00     0.052 A 
HETATM   13  S   LIG     1       3.511   0.314   4.298  1.00  0.00    -0.111 SA
HETATM   14  C   LIG     1       2.838  -0.760   3.142  1.00  0.00     0.079 A 
ENDBRANCH   2  10
TORSDOF 3
