REMARK  0 active torsions:
REMARK  status: ('A' for Active; 'I' for Inactive)
ROOT
HETATM    1  C   LIG     1      -0.318  -1.266  -0.000  1.00  0.00     0.100 A 
HETATM    2  N   LIG     1      -0.522   0.992   0.004  1.00  0.00    -0.264 N 
ATOM      3  HN  LIG     1      -0.913   1.934   0.005  1.00  0.00     0.194 HD
HETATM    4  O   LIG     1       0.818   0.646   0.007  1.00  0.00    -0.241 OA
HETATM    5  C   LIG     1       0.937  -0.710   0.006  1.00  0.00     0.095 A 
HETATM    6  C   LIG     1      -1.201  -0.163   0.000  1.00  0.00     0.052 A 
HETATM    7  C   LIG     1      -0.619  -2.654  -0.004  1.00  0.00     0.104 C 
HETATM    8  N   LIG     1      -0.852  -3.791  -0.008  1.00  0.00    -0.191 NA
HETATM    9  C   LIG     1       2.312  -1.243   0.011  1.00  0.00     0.081 C 
HETATM   10  C   LIG     1      -2.682  -0.141  -0.001  1.00  0.00     0.072 C 
ENDROOT
TORSDOF 0
