REMARK  2 active torsions:
REMARK  status: ('A' for Active; 'I' for Inactive)
REMARK    1  A    between atoms: C_1  and  C_2 
REMARK    2  A    between atoms: C_1  and  N_12 
ROOT
HETATM    1  C   LIG     1       0.373   0.697   1.039  1.00  0.00     0.004 A 
HETATM    2  C   LIG     1      -1.053   0.846   2.941  1.00  0.00     0.105 A 
HETATM    3  C   LIG     1      -0.433   0.058   1.994  1.00  0.00     0.054 A 
HETATM    4  C   LIG     1      -0.897   2.212   2.967  1.00  0.00     0.105 A 
HETATM    5  O   LIG     1      -1.864   0.398   3.936  1.00  0.00    -0.323 OA
HETATM    6  O   LIG     1      -1.592   2.794   3.980  1.00  0.00    -0.323 OA
HETATM    7  C   LIG     1      -2.195   1.638   4.597  1.00  0.00     0.352 A 
HETATM    8  C   LIG     1       0.532   2.101   1.071  1.00  0.00     0.017 A 
HETATM    9  C   LIG     1      -0.111   2.871   2.047  1.00  0.00     0.040 A 
ENDROOT
BRANCH   1  10
HETATM   10  C   LIG     1       1.050  -0.118  -0.003  1.00  0.00     0.104 C 
HETATM   11  S   LIG     1       2.619   0.101  -0.529  1.00  0.00    -0.060 SA
BRANCH  10  12
HETATM   12  N   LIG     1       0.302  -1.123  -0.562  1.00  0.00    -0.390 N 
ATOM     13  HN2 LIG     1      -0.657  -1.257  -0.241  1.00  0.00     0.157 HD
ATOM     14  HN1 LIG     1       0.767  -1.682  -1.277  1.00  0.00     0.157 HD
ENDBRANCH  10  12
ENDBRANCH   1  10
TORSDOF 2
