REMARK  3 active torsions:
REMARK  status: ('A' for Active; 'I' for Inactive)
REMARK    1  A    between atoms: C_1  and  C_8 
REMARK    2  A    between atoms: C_4  and  C_7 
REMARK    3  A    between atoms: C_8  and  O_9 
ROOT
HETATM    1  C   LIG     1      -0.339  -1.325  -0.015  1.00  0.00     0.026 A 
HETATM    2  N   LIG     1       0.935   0.565  -0.038  1.00  0.00    -0.260 N 
ATOM      3  HN  LIG     1       1.730   1.205  -0.034  1.00  0.00     0.195 HD
HETATM    4  C   LIG     1       0.985  -0.778  -0.024  1.00  0.00     0.076 A 
HETATM    5  O   LIG     1      -0.394   0.908  -0.058  1.00  0.00    -0.242 OA
HETATM    6  C   LIG     1      -1.156  -0.213  -0.040  1.00  0.00     0.083 A 
HETATM    7  C   LIG     1      -2.612   0.019  -0.029  1.00  0.00     0.079 C 
ENDROOT
BRANCH   4   8
HETATM    8  C   LIG     1       2.276  -1.463   0.013  1.00  0.00    -0.007 A 
HETATM    9  C   LIG     1       2.521  -2.601  -0.768  1.00  0.00     0.014 A 
HETATM   10  C   LIG     1       3.766  -3.235  -0.722  1.00  0.00     0.001 A 
HETATM   11  C   LIG     1       4.776  -2.739   0.100  1.00  0.00     0.000 A 
HETATM   12  C   LIG     1       4.547  -1.605   0.875  1.00  0.00     0.001 A 
HETATM   13  C   LIG     1       3.305  -0.970   0.830  1.00  0.00     0.014 A 
ENDBRANCH   4   8
BRANCH   1  14
HETATM   14  C   LIG     1      -0.746  -2.749   0.059  1.00  0.00     0.207 C 
BRANCH  14  15
HETATM   15  O   LIG     1      -0.888  -3.328  -1.233  1.00  0.00    -0.396 OA
ATOM     16  HO  LIG     1      -1.149  -4.240  -1.186  1.00  0.00     0.209 HD
ENDBRANCH  14  15
ENDBRANCH   1  14
TORSDOF 3
