REMARK  1 active torsions:
REMARK  status: ('A' for Active; 'I' for Inactive)
REMARK    1  A    between atoms: C_1  and  C_3 
ROOT
HETATM    1  C   LIG     1       0.609   1.509  -0.006  1.00  0.00     0.074 A 
HETATM    2  C   LIG     1      -0.389   0.548  -0.053  1.00  0.00     0.092 A 
HETATM    3  O   LIG     1      -1.738   0.776  -0.181  1.00  0.00    -0.349 OA
HETATM    4  C   LIG     1      -0.083  -0.810  -0.025  1.00  0.00    -0.022 A 
HETATM    5  C   LIG     1       1.941   1.067   0.063  1.00  0.00     0.021 A 
HETATM    6  C   LIG     1      -2.343  -0.501   0.117  1.00  0.00     0.180 C 
HETATM    7  C   LIG     1       2.245  -0.305   0.093  1.00  0.00     0.002 A 
HETATM    8  C   LIG     1      -1.327  -1.603  -0.168  1.00  0.00     0.068 C 
HETATM    9  C   LIG     1       1.226  -1.256   0.044  1.00  0.00     0.010 A 
ENDROOT
BRANCH   1  10
HETATM   10  C   LIG     1       0.366   2.967  -0.036  1.00  0.00     0.212 C 
HETATM   11  O   LIG     1       1.196   3.807  -0.338  1.00  0.00    -0.644 OA
HETATM   12  O   LIG     1      -0.856   3.324   0.387  1.00  0.00    -0.644 OA
ENDBRANCH   1  10
TORSDOF 1
