REMARK  3 active torsions:
REMARK  status: ('A' for Active; 'I' for Inactive)
REMARK    1  A    between atoms: C_1  and  C_8 
REMARK    2  A    between atoms: C_4  and  C_7 
REMARK    3  A    between atoms: C_8  and  N_9 
ROOT
HETATM    1  C   LIG     1      -0.236  -1.369   0.010  1.00  0.00     0.028 A 
HETATM    2  N   LIG     1       1.074   0.498  -0.051  1.00  0.00    -0.260 N 
ATOM      3  HN  LIG     1       1.879   1.124  -0.066  1.00  0.00     0.195 HD
HETATM    4  C   LIG     1       1.106  -0.848  -0.027  1.00  0.00     0.075 A 
HETATM    5  O   LIG     1      -0.245   0.867  -0.051  1.00  0.00    -0.242 OA
HETATM    6  C   LIG     1      -1.028  -0.234  -0.011  1.00  0.00     0.083 A 
HETATM    7  C   LIG     1      -2.479   0.024   0.002  1.00  0.00     0.079 C 
ENDROOT
BRANCH   4   8
HETATM    8  C   LIG     1       2.409  -1.531  -0.033  1.00  0.00    -0.007 A 
HETATM    9  C   LIG     1       2.590  -2.791  -0.612  1.00  0.00     0.014 A 
HETATM   10  C   LIG     1       3.856  -3.389  -0.651  1.00  0.00     0.001 A 
HETATM   11  C   LIG     1       4.960  -2.730  -0.112  1.00  0.00     0.000 A 
HETATM   12  C   LIG     1       4.800  -1.479   0.472  1.00  0.00     0.001 A 
HETATM   13  C   LIG     1       3.535  -0.884   0.511  1.00  0.00     0.014 A 
ENDBRANCH   4   8
BRANCH   1  14
HETATM   14  C   LIG     1      -0.716  -2.776   0.097  1.00  0.00     0.275 C 
BRANCH  14  15
HETATM   15  N   LIG     1      -0.892  -3.292  -1.259  1.00  0.00    -0.075 N 
HETATM   16  C   LIG     1      -1.382  -4.663  -1.249  1.00  0.00     0.267 C 
ATOM     17  HN2 LIG     1      -1.495  -2.684  -1.814  1.00  0.00     0.277 HD
ATOM     18  HN1 LIG     1      -0.035  -3.206  -1.805  1.00  0.00     0.277 HD
ENDBRANCH  14  15
ENDBRANCH   1  14
TORSDOF 3
