REMARK  3 active torsions:
REMARK  status: ('A' for Active; 'I' for Inactive)
REMARK    1  A    between atoms: C_1  and  C_8 
REMARK    2  A    between atoms: C_4  and  C_7 
REMARK    3  A    between atoms: C_8  and  N_9 
ROOT
HETATM    1  C   LIG     1      -0.316  -1.329  -0.035  1.00  0.00     0.028 A 
HETATM    2  N   LIG     1       0.949   0.570   0.001  1.00  0.00    -0.260 N 
ATOM      3  HN  LIG     1       1.740   1.213   0.025  1.00  0.00     0.195 HD
HETATM    4  C   LIG     1       1.006  -0.772  -0.018  1.00  0.00     0.075 A 
HETATM    5  O   LIG     1      -0.383   0.907  -0.018  1.00  0.00    -0.242 OA
HETATM    6  C   LIG     1      -1.138  -0.218  -0.029  1.00  0.00     0.083 A 
HETATM    7  C   LIG     1      -2.596  -0.003  -0.010  1.00  0.00     0.079 C 
ENDROOT
BRANCH   4   8
HETATM    8  C   LIG     1       2.303  -1.450   0.019  1.00  0.00    -0.007 A 
HETATM    9  C   LIG     1       2.561  -2.580  -0.769  1.00  0.00     0.014 A 
HETATM   10  C   LIG     1       3.808  -3.211  -0.716  1.00  0.00     0.001 A 
HETATM   11  C   LIG     1       4.810  -2.715   0.116  1.00  0.00     0.000 A 
HETATM   12  C   LIG     1       4.570  -1.586   0.895  1.00  0.00     0.001 A 
HETATM   13  C   LIG     1       3.324  -0.956   0.845  1.00  0.00     0.014 A 
ENDBRANCH   4   8
BRANCH   1  14
HETATM   14  C   LIG     1      -0.731  -2.752   0.002  1.00  0.00     0.273 C 
BRANCH  14  15
HETATM   15  N   LIG     1      -0.915  -3.225  -1.364  1.00  0.00    -0.075 N 
ATOM     16  HN3 LIG     1      -1.565  -2.644  -1.893  1.00  0.00     0.274 HD
ATOM     17  HN2 LIG     1      -0.088  -3.076  -1.942  1.00  0.00     0.274 HD
ATOM     18  HN1 LIG     1      -1.200  -4.204  -1.339  1.00  0.00     0.274 HD
ENDBRANCH  14  15
ENDBRANCH   1  14
TORSDOF 3
