REMARK  2 active torsions:
REMARK  status: ('A' for Active; 'I' for Inactive)
REMARK    1  A    between atoms: C_3  and  C_7 
REMARK    2  A    between atoms: C_7  and  O_8 
ROOT
HETATM    1  C   LIG     1      -0.410   0.554  -0.022  1.00  0.00     0.113 A 
HETATM    2  O   LIG     1      -1.744   0.821  -0.072  1.00  0.00    -0.322 OA
HETATM    3  C   LIG     1       0.609   1.490   0.034  1.00  0.00     0.002 A 
HETATM    4  O   LIG     1      -1.292  -1.546  -0.082  1.00  0.00    -0.323 OA
HETATM    5  C   LIG     1      -0.156  -0.800  -0.027  1.00  0.00     0.105 A 
HETATM    6  C   LIG     1      -2.295  -0.512  -0.113  1.00  0.00     0.352 A 
HETATM    7  C   LIG     1       1.924   0.993   0.074  1.00  0.00     0.012 A 
HETATM    8  C   LIG     1       2.180  -0.390   0.068  1.00  0.00     0.003 A 
HETATM    9  C   LIG     1       1.127  -1.304   0.018  1.00  0.00     0.040 A 
ENDROOT
BRANCH   3  10
HETATM   10  C   LIG     1       0.342   2.965   0.028  1.00  0.00     0.205 C 
BRANCH  10  11
HETATM   11  O   LIG     1       0.945   3.583   1.160  1.00  0.00    -0.396 OA
ATOM     12  HO  LIG     1       0.776   4.518   1.156  1.00  0.00     0.209 HD
ENDBRANCH  10  11
ENDBRANCH   3  10
TORSDOF 2
