REMARK  1 active torsions:
REMARK  status: ('A' for Active; 'I' for Inactive)
REMARK    1  A    between atoms: C_1  and  C_5 
ROOT
HETATM    1  C   LIG     1      -0.419  -1.212   0.097  1.00  0.00     0.072 A 
HETATM    2  C   LIG     1       0.875  -0.725   0.015  1.00  0.00     0.066 A 
HETATM    3  O   LIG     1       0.865   0.636  -0.072  1.00  0.00    -0.319 OA
HETATM    4  C   LIG     1      -1.260  -0.060   0.055  1.00  0.00     0.053 A 
HETATM    5  C   LIG     1      -0.434   1.036  -0.048  1.00  0.00     0.050 A 
HETATM    6  C   LIG     1       2.212  -1.357   0.004  1.00  0.00     0.078 C 
HETATM    7  C   LIG     1      -0.673   2.489  -0.132  1.00  0.00     0.076 C 
ENDROOT
BRANCH   1   8
HETATM    8  C   LIG     1      -0.844  -2.590   0.204  1.00  0.00     0.211 C 
HETATM    9  O   LIG     1      -2.007  -2.962   0.272  1.00  0.00    -0.644 OA
HETATM   10  O   LIG     1       0.153  -3.502   0.227  1.00  0.00    -0.644 OA
ENDBRANCH   1   8
TORSDOF 1
