REMARK  2 active torsions:
REMARK  status: ('A' for Active; 'I' for Inactive)
REMARK    1  A    between atoms: C_2  and  C_6 
REMARK    2  A    between atoms: C_6  and  O_7 
ROOT
HETATM    1  C   LIG     1      -0.059   0.693   0.019  1.00  0.00     0.110 A 
HETATM    2  C   LIG     1       1.151   1.399   0.085  1.00  0.00     0.001 A 
HETATM    3  C   LIG     1      -0.054  -0.710  -0.018  1.00  0.00     0.102 A 
HETATM    4  O   LIG     1      -1.224   1.421   0.009  1.00  0.00    -0.346 OA
HETATM    5  O   LIG     1      -1.197  -1.471  -0.045  1.00  0.00    -0.346 OA
HETATM    6  C   LIG     1       2.357   0.675   0.077  1.00  0.00     0.012 A 
HETATM    7  C   LIG     1       2.357  -0.719   0.010  1.00  0.00     0.003 A 
HETATM    8  C   LIG     1       1.149  -1.411  -0.038  1.00  0.00     0.040 A 
HETATM    9  C   LIG     1      -2.343   0.632  -0.408  1.00  0.00     0.202 C 
HETATM   10  C   LIG     1      -2.348  -0.702   0.316  1.00  0.00     0.202 C 
ENDROOT
BRANCH   2  11
HETATM   11  C   LIG     1       1.203   2.903   0.145  1.00  0.00     0.205 C 
BRANCH  11  12
HETATM   12  O   LIG     1       1.846   3.326   1.344  1.00  0.00    -0.396 OA
ATOM     13  HO  LIG     1       1.879   4.275   1.382  1.00  0.00     0.209 HD
ENDBRANCH  11  12
ENDBRANCH   2  11
TORSDOF 2
