REMARK  2 active torsions:
REMARK  status: ('A' for Active; 'I' for Inactive)
REMARK    1  A    between atoms: C_8  and  C_13 
REMARK    2  A    between atoms: N_10  and  C_13 
ROOT
HETATM    1  C   LIG     1      -0.362  -0.715  -0.080  1.00  0.00     0.105 A 
HETATM    2  C   LIG     1      -0.606   0.632   0.046  1.00  0.00     0.105 A 
HETATM    3  O   LIG     1      -1.506  -1.445  -0.160  1.00  0.00    -0.323 OA
HETATM    4  O   LIG     1      -1.936   0.919   0.058  1.00  0.00    -0.323 OA
HETATM    5  C   LIG     1      -2.499  -0.402  -0.075  1.00  0.00     0.352 A 
HETATM    6  C   LIG     1       0.921  -1.224  -0.116  1.00  0.00     0.048 A 
HETATM    7  C   LIG     1       0.417   1.548   0.144  1.00  0.00     0.040 A 
HETATM    8  C   LIG     1       1.995  -0.322  -0.024  1.00  0.00    -0.030 A 
HETATM    9  C   LIG     1       1.728   1.062   0.110  1.00  0.00     0.012 A 
ENDROOT
BRANCH   8  10
HETATM   10  C   LIG     1       3.422  -0.825  -0.054  1.00  0.00     0.270 C 
BRANCH  10  11
HETATM   11  N   LIG     1       4.157  -0.259  -1.185  1.00  0.00    -0.075 N 
HETATM   12  C   LIG     1       5.524  -0.758  -1.225  1.00  0.00     0.267 C 
ATOM     13  HN2 LIG     1       3.672  -0.422  -2.067  1.00  0.00     0.277 HD
ATOM     14  HN1 LIG     1       4.130   0.761  -1.178  1.00  0.00     0.277 HD
ENDBRANCH  10  11
ENDBRANCH   8  10
TORSDOF 2
