REMARK  1 active torsions:
REMARK  status: ('A' for Active; 'I' for Inactive)
REMARK    1  A    between atoms: C_1  and  C_3 
ROOT
HETATM    1  C   LIG     1      -0.332  -1.167   0.078  1.00  0.00     0.111 A 
HETATM    2  N   LIG     1       0.957  -0.671  -0.017  1.00  0.00    -0.356 N 
HETATM    3  C   LIG     1      -1.173  -0.061  -0.001  1.00  0.00     0.038 A 
HETATM    4  C   LIG     1       0.926   0.696  -0.149  1.00  0.00     0.091 A 
HETATM    5  C   LIG     1      -0.386   1.101  -0.142  1.00  0.00     0.020 A 
HETATM    6  C   LIG     1       2.186  -1.437   0.012  1.00  0.00     0.156 C 
ENDROOT
BRANCH   1   7
HETATM    7  C   LIG     1      -0.769  -2.533   0.228  1.00  0.00     0.227 C 
HETATM    8  O   LIG     1      -1.919  -2.939   0.304  1.00  0.00    -0.643 OA
HETATM    9  O   LIG     1       0.251  -3.413   0.286  1.00  0.00    -0.643 OA
ENDBRANCH   1   7
TORSDOF 1
