REMARK  3 active torsions:
REMARK  status: ('A' for Active; 'I' for Inactive)
REMARK    1  A    between atoms: C_1  and  C_6 
REMARK    2  A    between atoms: C_4  and  C_13 
REMARK    3  A    between atoms: N_9  and  C_13 
ROOT
HETATM    1 CL   LIG     2       0.811  -0.197  -3.216  1.00  0.00     0.000 Cl
ENDROOT
TORSDOF 3
