REMARK  2 active torsions:
REMARK  status: ('A' for Active; 'I' for Inactive)
REMARK    1  A    between atoms: C_4  and  C_7 
REMARK    2  A    between atoms: C_7  and  N_9 
ROOT
HETATM    1  N   LIG     1       1.603   1.049   0.053  1.00  0.00    -0.343 N 
ATOM      2  HN  LIG     1       1.937   2.011   0.105  1.00  0.00     0.167 HD
HETATM    3  N   LIG     1       1.535  -1.166  -0.050  1.00  0.00    -0.338 N 
HETATM    4  C   LIG     1       2.340  -0.046  -0.002  1.00  0.00     0.110 A 
HETATM    5  C   LIG     1       0.221  -0.756  -0.032  1.00  0.00     0.062 A 
HETATM    6  C   LIG     1       0.299   0.631   0.026  1.00  0.00     0.060 A 
HETATM    7  C   LIG     1       1.959  -2.544  -0.091  1.00  0.00     0.158 C 
HETATM    8  C   LIG     1      -1.000  -1.443  -0.055  1.00  0.00     0.032 A 
HETATM    9  C   LIG     1      -0.881   1.389   0.056  1.00  0.00     0.032 A 
HETATM   10  C   LIG     1      -2.167  -0.671  -0.025  1.00  0.00     0.002 A 
HETATM   11  C   LIG     1      -2.112   0.723   0.029  1.00  0.00     0.002 A 
ENDROOT
BRANCH   4  12
HETATM   12  C   LIG     1       3.836  -0.077   0.031  1.00  0.00     0.305 C 
BRANCH  12  13
HETATM   13  N   LIG     1       4.410  -0.208  -1.305  1.00  0.00    -0.073 N 
ATOM     14  HN3 LIG     1       4.034  -1.022  -1.791  1.00  0.00     0.274 HD
ATOM     15  HN2 LIG     1       4.069   0.524  -1.928  1.00  0.00     0.274 HD
ATOM     16  HN1 LIG     1       5.430  -0.229  -1.283  1.00  0.00     0.274 HD
ENDBRANCH  12  13
ENDBRANCH   4  12
TORSDOF 2
