REMARK  1 active torsions:
REMARK  status: ('A' for Active; 'I' for Inactive)
REMARK    1  A    between atoms: C_1  and  CA_2 
ROOT
ATOM      1  CA  LYS A   1       0.240   0.878   0.867  1.00  0.00     0.109 A 
ATOM      2  N   LYS A   1      -0.754   0.327   1.627  1.00  0.00    -0.360 N 
ATOM      3  HN  LYS A   1      -1.025  -0.652   1.537  1.00  0.00     0.165 HD
ATOM      4  CE  LYS A   1      -1.355   1.160   2.504  1.00  0.00     0.088 A 
ATOM      5  CB  LYS A   1       0.649   2.201   0.947  1.00  0.00     0.037 A 
ATOM      6  CD  LYS A   1      -1.016   2.498   2.656  1.00  0.00     0.017 A 
ATOM      7  CG  LYS A   1       0.003   3.024   1.864  1.00  0.00     0.004 A 
ENDROOT
BRANCH   1   8
ATOM      8  C   LYS A   1       0.893  -0.056  -0.095  1.00  0.00     0.226 C 
ATOM      9  O   LYS A   1       1.795   0.239  -0.858  1.00  0.00    -0.643 OA
ATOM     10  OXT LYS A   1       0.337  -1.289  -0.001  1.00  0.00    -0.643 OA
ENDBRANCH   1   8
TORSDOF 1
