REMARK  2 active torsions:
REMARK  status: ('A' for Active; 'I' for Inactive)
REMARK    1  A    between atoms: C_7  and  C_13 
REMARK    2  A    between atoms: N_9  and  C_13 
ROOT
HETATM    1  N   LIG     1      -1.228  -1.449  -0.047  1.00  0.00    -0.365 N 
ATOM      2  HN  LIG     1      -1.209  -2.469  -0.050  1.00  0.00     0.165 HD
HETATM    3  C   LIG     1      -0.082   0.676  -0.046  1.00  0.00    -0.009 A 
HETATM    4  C   LIG     1      -0.089  -0.733  -0.051  1.00  0.00     0.042 A 
HETATM    5  C   LIG     1       1.136   1.379  -0.048  1.00  0.00     0.022 A 
HETATM    6  C   LIG     1       1.132  -1.393  -0.060  1.00  0.00     0.031 A 
HETATM    7  C   LIG     1       2.362   0.699  -0.057  1.00  0.00    -0.032 A 
HETATM    8  C   LIG     1       2.348  -0.698  -0.062  1.00  0.00     0.011 A 
HETATM    9  C   LIG     1      -2.399  -0.773  -0.039  1.00  0.00     0.088 A 
HETATM   10  C   LIG     1      -1.316   1.340  -0.040  1.00  0.00     0.015 A 
HETATM   11  C   LIG     1      -2.495   0.605  -0.035  1.00  0.00     0.018 A 
ENDROOT
BRANCH   7  12
HETATM   12  C   LIG     1       3.663   1.465  -0.053  1.00  0.00     0.270 C 
BRANCH  12  13
HETATM   13  N   LIG     1       3.777   2.303  -1.246  1.00  0.00    -0.075 N 
HETATM   14  C   LIG     1       5.032   3.040  -1.252  1.00  0.00     0.267 C 
ATOM     15  HN2 LIG     1       3.658   1.758  -2.100  1.00  0.00     0.277 HD
ATOM     16  HN1 LIG     1       2.975   2.926  -1.345  1.00  0.00     0.277 HD
ENDBRANCH  12  13
ENDBRANCH   7  12
TORSDOF 2
