REMARK  1 active torsions:
REMARK  status: ('A' for Active; 'I' for Inactive)
REMARK    1  A    between atoms: C_1  and  C_2 
ROOT
HETATM    1  C   LIG     1       0.388   0.093  -1.213  1.00  0.00     0.056 A 
HETATM    2  N   LIG     1      -0.411   1.438  -3.053  1.00  0.00    -0.374 N 
ATOM      3  HN  LIG     1      -0.552   2.350  -3.487  1.00  0.00     0.164 HD
HETATM    4  C   LIG     1       0.208   1.309  -1.856  1.00  0.00     0.105 A 
HETATM    5  C   LIG     1      -0.041  -1.068  -1.855  1.00  0.00     0.021 A 
HETATM    6  C   LIG     1      -0.833   0.297  -3.646  1.00  0.00     0.087 A 
HETATM    7  C   LIG     1      -0.668  -0.965  -3.095  1.00  0.00     0.018 A 
ENDROOT
BRANCH   1   8
HETATM    8  C   LIG     1       1.054   0.006   0.096  1.00  0.00     0.210 C 
HETATM    9  O   LIG     1       1.861  -0.865   0.368  1.00  0.00    -0.644 OA
HETATM   10  O   LIG     1       0.639   0.944   0.973  1.00  0.00    -0.644 OA
ENDBRANCH   1   8
TORSDOF 1
