REMARK  1 active torsions:
REMARK  status: ('A' for Active; 'I' for Inactive)
REMARK    1  A    between atoms: CA_3  and  C_4 
ROOT
HETATM    1  N   LIG     1       2.439  -0.675  -0.090  1.00  0.00    -0.360 N 
ATOM      2  HN  LIG     1       3.328  -1.174  -0.113  1.00  0.00     0.165 HD
HETATM    3  CA  LIG     1       2.382   0.681  -0.086  1.00  0.00     0.110 A 
HETATM    4  C   LIG     1       1.193   1.401  -0.055  1.00  0.00     0.049 A 
HETATM    5  C   LIG     1      -0.019   0.701  -0.027  1.00  0.00    -0.022 A 
HETATM    6  C   LIG     1       1.256  -1.330  -0.062  1.00  0.00     0.100 A 
HETATM    7  C   LIG     1       0.006  -0.708  -0.030  1.00  0.00    -0.011 A 
HETATM    8  C   LIG     1      -1.257   1.364   0.005  1.00  0.00     0.012 A 
HETATM    9  C   LIG     1      -1.202  -1.427  -0.002  1.00  0.00     0.013 A 
HETATM   10  C   LIG     1      -2.451   0.639   0.032  1.00  0.00     0.001 A 
HETATM   11  C   LIG     1      -2.424  -0.753   0.029  1.00  0.00     0.001 A 
ENDROOT
BRANCH   3  12
HETATM   12  C   LIG     1       3.669   1.438  -0.117  1.00  0.00     0.226 C 
HETATM   13  O   LIG     1       3.777   2.653  -0.115  1.00  0.00    -0.643 OA
HETATM   14  OXT LIG     1       4.759   0.646  -0.151  1.00  0.00    -0.643 OA
ENDBRANCH   3  12
TORSDOF 1
