REMARK  2 active torsions:
REMARK  status: ('A' for Active; 'I' for Inactive)
REMARK    1  A    between atoms: C_3  and  C_7 
REMARK    2  A    between atoms: O_5  and  C_7 
ROOT
HETATM    1  N   LIG     1       0.667   1.251   0.287  1.00  0.00    -0.375 N 
ATOM      2  HN  LIG     1       1.143   2.133   0.478  1.00  0.00     0.164 HD
HETATM    3  C   LIG     1      -1.381   0.006  -0.069  1.00  0.00    -0.019 A 
HETATM    4  C   LIG     1      -0.680   1.178   0.194  1.00  0.00     0.096 A 
HETATM    5  C   LIG     1       1.352   0.100   0.115  1.00  0.00     0.087 A 
HETATM    6  C   LIG     1      -0.636  -1.164  -0.240  1.00  0.00     0.012 A 
HETATM    7  C   LIG     1       0.752  -1.120  -0.147  1.00  0.00     0.018 A 
ENDROOT
BRANCH   3   8
HETATM    8  C   LIG     1      -2.877  -0.004  -0.162  1.00  0.00     0.204 C 
BRANCH   8   9
HETATM    9  O   LIG     1      -3.300  -0.398  -1.461  1.00  0.00    -0.396 OA
ATOM     10  HO  LIG     1      -4.248  -0.404  -1.520  1.00  0.00     0.209 HD
ENDBRANCH   8   9
ENDBRANCH   3   8
TORSDOF 2
