REMARK  1 active torsions:
REMARK  status: ('A' for Active; 'I' for Inactive)
REMARK    1  A    between atoms: C_1  and  C_5 
ROOT
HETATM    1  C   UNK     1      -0.402  -1.083   0.040  1.00  0.00     0.117 A 
HETATM    2  N   UNK     1       0.920  -0.635   0.093  1.00  0.00    -0.348 N 
ATOM      3  HN  UNK     1       1.737  -1.239   0.185  1.00  0.00     0.166 HD
HETATM    4  C   UNK     1      -1.335  -0.069  -0.088  1.00  0.00     0.088 A 
HETATM    5  C   UNK     1       0.962   0.677   0.007  1.00  0.00     0.047 A 
HETATM    6  S   UNK     1      -0.561   1.457  -0.141  1.00  0.00    -0.086 SA
HETATM    7  C   UNK     1       2.213   1.482   0.033  1.00  0.00     0.076 C 
ENDROOT
BRANCH   1   8
HETATM    8  C   UNK     1      -0.760  -2.496   0.114  1.00  0.00     0.227 C 
HETATM    9  O   UNK     1      -1.901  -2.939   0.071  1.00  0.00    -0.643 OA
HETATM   10  O   UNK     1       0.286  -3.344   0.239  1.00  0.00    -0.643 OA
ENDBRANCH   1   8
TORSDOF 1
