REMARK  2 active torsions:
REMARK  status: ('A' for Active; 'I' for Inactive)
REMARK    1  A    between atoms: C_4  and  C_7 
REMARK    2  A    between atoms: C_7  and  O_8 
ROOT
HETATM    1  N   LIG     1       1.581   1.027   0.075  1.00  0.00    -0.351 N 
ATOM      2  HN  LIG     1       1.842   2.008   0.173  1.00  0.00     0.166 HD
HETATM    3  S   LIG     1       1.723  -1.533  -0.175  1.00  0.00    -0.072 SA
HETATM    4  C   LIG     1       2.431   0.029  -0.040  1.00  0.00     0.075 A 
HETATM    5  C   LIG     1       0.281   0.551   0.043  1.00  0.00     0.050 A 
HETATM    6  C   LIG     1       0.153  -0.833  -0.088  1.00  0.00     0.033 A 
HETATM    7  C   LIG     1      -0.888   1.334   0.133  1.00  0.00     0.031 A 
HETATM    8  C   LIG     1      -1.102  -1.462  -0.132  1.00  0.00     0.021 A 
HETATM    9  C   LIG     1      -2.246  -0.663  -0.041  1.00  0.00     0.002 A 
HETATM   10  C   LIG     1      -2.143   0.719   0.089  1.00  0.00     0.002 A 
ENDROOT
BRANCH   4  11
HETATM   11  C   LIG     1       3.921   0.173  -0.046  1.00  0.00     0.229 C 
BRANCH  11  12
HETATM   12  O   LIG     1       4.411  -0.061  -1.366  1.00  0.00    -0.394 OA
ATOM     13  HO  LIG     1       5.357   0.030  -1.370  1.00  0.00     0.209 HD
ENDBRANCH  11  12
ENDBRANCH   4  11
TORSDOF 2
