REMARK  2 active torsions:
REMARK  status: ('A' for Active; 'I' for Inactive)
REMARK    1  A    between atoms: C_4  and  C_7 
REMARK    2  A    between atoms: C_7  and  N_9 
ROOT
HETATM    1  N   LIG     1       2.306  -0.018   0.004  1.00  0.00    -0.300 N 
ATOM      2  HN  LIG     1       3.326  -0.032   0.032  1.00  0.00     0.187 HD
HETATM    3  N   LIG     1       1.489   1.055  -0.008  1.00  0.00    -0.296 N 
HETATM    4  C   LIG     1       1.464  -1.064  -0.029  1.00  0.00     0.064 A 
HETATM    5  C   LIG     1       0.105  -0.647  -0.054  1.00  0.00     0.018 A 
HETATM    6  C   LIG     1       0.152   0.745  -0.042  1.00  0.00     0.062 A 
HETATM    7  C   LIG     1       2.086   2.369   0.010  1.00  0.00     0.178 C 
HETATM    8  C   LIG     1      -1.146  -1.293  -0.080  1.00  0.00     0.016 A 
HETATM    9  C   LIG     1      -1.009   1.533  -0.060  1.00  0.00     0.032 A 
HETATM   10  C   LIG     1      -2.311  -0.520  -0.097  1.00  0.00     0.001 A 
HETATM   11  C   LIG     1      -2.241   0.871  -0.087  1.00  0.00     0.002 A 
ENDROOT
BRANCH   4  12
HETATM   12  C   LIG     1       1.993  -2.466  -0.032  1.00  0.00     0.291 C 
BRANCH  12  13
HETATM   13  N   LIG     1       2.096  -2.938   1.354  1.00  0.00    -0.074 N 
HETATM   14  C   LIG     1       2.696  -4.262   1.406  1.00  0.00     0.267 C 
ATOM     15  HN2 LIG     1       2.598  -2.273   1.943  1.00  0.00     0.277 HD
ATOM     16  HN1 LIG     1       1.194  -2.914   1.829  1.00  0.00     0.277 HD
ENDBRANCH  12  13
ENDBRANCH   4  12
TORSDOF 2
