REMARK  1 active torsions:
REMARK  status: ('A' for Active; 'I' for Inactive)
REMARK    1  A    between atoms: C_1  and  C_4 
ROOT
HETATM    1  C   LIG     1      -2.402   0.076   0.063  1.00  0.00     0.153 A 
HETATM    2  O   LIG     1      -1.587  -1.025   0.101  1.00  0.00    -0.303 OA
HETATM    3  C   LIG     1      -1.627   1.221  -0.007  1.00  0.00     0.058 A 
HETATM    4  C   LIG     1      -0.302  -0.581   0.056  1.00  0.00     0.086 A 
HETATM    5  C   LIG     1      -0.271   0.806  -0.011  1.00  0.00     0.001 A 
HETATM    6  C   LIG     1       0.833  -1.388   0.074  1.00  0.00     0.038 A 
HETATM    7  C   LIG     1       0.979   1.449  -0.065  1.00  0.00     0.014 A 
HETATM    8  C   LIG     1       2.140   0.663  -0.048  1.00  0.00     0.001 A 
HETATM    9  C   LIG     1       2.066  -0.731   0.020  1.00  0.00     0.003 A 
ENDROOT
BRANCH   1  10
HETATM   10  C   LIG     1      -3.831  -0.080   0.097  1.00  0.00     0.234 C 
HETATM   11  O   LIG     1      -4.675   0.805   0.069  1.00  0.00    -0.642 OA
HETATM   12  O   LIG     1      -4.209  -1.376   0.169  1.00  0.00    -0.642 OA
ENDBRANCH   1  10
TORSDOF 1
