REMARK  0 active torsions:
REMARK  status: ('A' for Active; 'I' for Inactive)
ROOT
HETATM    1  C   LIG     1      -0.270   0.772  -0.003  1.00  0.00     0.001 A 
HETATM    2  C   LIG     1      -0.251  -0.616   0.020  1.00  0.00     0.085 A 
HETATM    3  C   LIG     1      -2.358  -0.036   0.026  1.00  0.00     0.143 A 
HETATM    4  O   LIG     1      -1.522  -1.106   0.041  1.00  0.00    -0.322 OA
HETATM    5  C   LIG     1      -1.642   1.140  -0.003  1.00  0.00     0.039 A 
HETATM    6  C   LIG     1       0.958   1.459  -0.036  1.00  0.00     0.041 A 
HETATM    7  C   LIG     1       0.911  -1.379   0.004  1.00  0.00     0.040 A 
HETATM    8  C   LIG     1       2.158   0.730   0.001  1.00  0.00     0.047 A 
HETATM    9  N   LIG     1       3.381   1.396  -0.165  1.00  0.00    -0.102 NA
HETATM   10  C   LIG     1       2.119  -0.670  -0.031  1.00  0.00     0.029 A 
ENDROOT
TORSDOF 0
