REMARK  0 active torsions:
REMARK  status: ('A' for Active; 'I' for Inactive)
ROOT
HETATM    1  C   LIG     1       0.998  -0.713   0.040  1.00  0.00     0.158 A 
HETATM    2  S   LIG     1      -0.548  -1.468   0.015  1.00  0.00    -0.046 SA
HETATM    3  N   LIG     1       0.942   0.602   0.003  1.00  0.00    -0.280 N 
ATOM      4  HN  LIG     1       1.767   1.202  -0.006  1.00  0.00     0.189 HD
HETATM    5  N   LIG     1      -0.354   1.082  -0.022  1.00  0.00    -0.303 N 
ATOM      6  HN  LIG     1      -0.599   2.072  -0.047  1.00  0.00     0.186 HD
HETATM    7  C   LIG     1      -1.231   0.103  -0.010  1.00  0.00     0.160 A 
HETATM    8  N   LIG     1       2.130  -1.428   0.098  1.00  0.00    -0.379 N 
ATOM      9  HN1 LIG     1       3.046  -0.980   0.113  1.00  0.00     0.158 HD
ATOM     10  HN2 LIG     1       2.173  -2.447   0.127  1.00  0.00     0.158 HD
ENDROOT
TORSDOF 0
