REMARK  2 active torsions:
REMARK  status: ('A' for Active; 'I' for Inactive)
REMARK    1  A    between atoms: C_3  and  C_7 
REMARK    2  A    between atoms: C_7  and  O_8 
ROOT
HETATM    1  N   LIG     1      -0.036  -0.886  -0.665  1.00  0.00    -0.361 N 
ATOM      2  HN  LIG     1      -0.174  -1.730  -1.221  1.00  0.00     0.165 HD
HETATM    3  C   LIG     1       1.082  -0.555  -0.045  1.00  0.00     0.074 A 
HETATM    4  S   LIG     1       1.036   0.920   0.836  1.00  0.00    -0.085 SA
HETATM    5  C   LIG     1      -0.990   0.088  -0.443  1.00  0.00     0.096 A 
HETATM    6  C   LIG     1      -0.592   1.144   0.347  1.00  0.00     0.068 A 
ENDROOT
BRANCH   3   7
HETATM    7  C   LIG     1       2.327  -1.387  -0.067  1.00  0.00     0.229 C 
BRANCH   7   8
HETATM    8  O   LIG     1       2.234  -2.315  -1.152  1.00  0.00    -0.394 OA
ATOM      9  HO  LIG     1       3.024  -2.843  -1.166  1.00  0.00     0.209 HD
ENDBRANCH   7   8
ENDBRANCH   3   7
TORSDOF 2
