REMARK  2 active torsions:
REMARK  status: ('A' for Active; 'I' for Inactive)
REMARK    1  A    between atoms: C_5  and  C_8 
REMARK    2  A    between atoms: C_8  and  O_9 
ROOT
HETATM    1  N   LIG     1      -1.610  -1.103  -0.007  1.00  0.00    -0.342 N 
ATOM      2  HN  LIG     1      -1.931  -2.071  -0.018  1.00  0.00     0.167 HD
HETATM    3  N   LIG     1      -1.574   1.115  -0.004  1.00  0.00    -0.342 N 
ATOM      4  HN  LIG     1      -1.915   2.076  -0.012  1.00  0.00     0.167 HD
HETATM    5  C   LIG     1      -2.355  -0.016  -0.000  1.00  0.00     0.106 A 
HETATM    6  C   LIG     1      -0.310  -0.659   0.004  1.00  0.00     0.060 A 
HETATM    7  C   LIG     1      -0.259   0.731   0.005  1.00  0.00     0.060 A 
HETATM    8  C   LIG     1       0.888  -1.388   0.009  1.00  0.00     0.032 A 
HETATM    9  C   LIG     1       0.935   1.455   0.009  1.00  0.00     0.032 A 
HETATM   10  C   LIG     1       2.120   0.710   0.015  1.00  0.00     0.002 A 
HETATM   11  C   LIG     1       2.101  -0.687   0.015  1.00  0.00     0.002 A 
ENDROOT
BRANCH   5  12
HETATM   12  C   LIG     1      -3.836   0.059  -0.023  1.00  0.00     0.240 C 
BRANCH  12  13
HETATM   13  O   LIG     1      -4.208   0.656  -1.259  1.00  0.00    -0.393 OA
ATOM     14  HO  LIG     1      -5.157   0.704  -1.274  1.00  0.00     0.209 HD
ENDBRANCH  12  13
ENDBRANCH   5  12
TORSDOF 2
