REMARK  2 active torsions:
REMARK  status: ('A' for Active; 'I' for Inactive)
REMARK    1  A    between atoms: C_2  and  C_6 
REMARK    2  A    between atoms: C_3  and  C_7 
ROOT
HETATM    1  S   LIG     1       1.197  -0.917   0.703  1.00  0.00    -0.083 SA
HETATM    2  C   LIG     1      -0.452  -1.290   0.452  1.00  0.00     0.082 A 
HETATM    3  C   LIG     1       1.047   0.655   0.024  1.00  0.00     0.016 A 
HETATM    4  C   LIG     1      -1.118  -0.230  -0.130  1.00  0.00     0.027 A 
HETATM    5  C   LIG     1      -0.260   0.884  -0.371  1.00  0.00     0.021 A 
ENDROOT
BRANCH   3   6
HETATM    6  C   LIG     1       2.209   1.563  -0.050  1.00  0.00    -0.019 A 
HETATM    7  C   LIG     1       2.024   2.953   0.039  1.00  0.00     0.013 A 
HETATM    8  C   LIG     1       3.109   3.832  -0.037  1.00  0.00     0.001 A 
HETATM    9  C   LIG     1       4.399   3.336  -0.205  1.00  0.00     0.000 A 
HETATM   10  C   LIG     1       4.604   1.963  -0.299  1.00  0.00     0.001 A 
HETATM   11  C   LIG     1       3.518   1.085  -0.225  1.00  0.00     0.013 A 
ENDBRANCH   3   6
BRANCH   2  12
HETATM   12  C   LIG     1      -0.953  -2.584   0.849  1.00  0.00     0.216 C 
HETATM   13  O   LIG     1      -0.353  -3.518   1.363  1.00  0.00    -0.643 OA
HETATM   14  O   LIG     1      -2.275  -2.707   0.586  1.00  0.00    -0.643 OA
ENDBRANCH   2  12
TORSDOF 2
