REMARK  0 active torsions:
REMARK  status: ('A' for Active; 'I' for Inactive)
ROOT
HETATM    1  C   LIG     1       0.862   0.001  -0.091  1.00  0.00    -0.078 C 
HETATM    2  C   LIG     1      -0.336  -0.008  -0.126  1.00  0.00     0.018 C 
HETATM    3  C   LIG     1       4.392  -1.187   0.118  1.00  0.00     0.060 A 
HETATM    4  N   LIG     1       5.050  -2.364   0.155  1.00  0.00    -0.363 N 
ATOM      5  HN  LIG     1       4.556  -3.256   0.156  1.00  0.00     0.165 HD
HETATM    6  N   LIG     1       6.436   0.093   0.190  1.00  0.00    -0.363 N 
ATOM      7  HN  LIG     1       6.943   0.978   0.216  1.00  0.00     0.165 HD
HETATM    8  C   LIG     1       5.091   0.047   0.128  1.00  0.00     0.059 A 
HETATM    9  C   LIG     1       3.004  -1.181   0.057  1.00  0.00     0.052 A 
HETATM   10  C   LIG     1       2.291   0.016  -0.028  1.00  0.00     0.019 A 
HETATM   11  C   LIG     1       4.370   1.231   0.051  1.00  0.00     0.033 A 
HETATM   12  C   LIG     1       2.978   1.227  -0.043  1.00  0.00     0.023 A 
HETATM   13  C   LIG     1       6.398  -2.297   0.191  1.00  0.00     0.105 A 
HETATM   14  C   LIG     1       7.076  -1.096   0.216  1.00  0.00     0.105 A 
ENDROOT
TORSDOF 0
