REMARK  3 active torsions:
REMARK  status: ('A' for Active; 'I' for Inactive)
REMARK    1  A    between atoms: C_1  and  C_5 
REMARK    2  A    between atoms: C_6  and  C_12 
REMARK    3  A    between atoms: C_12  and  N_13 
ROOT
HETATM    1  C   LIG     1       0.279   1.203  -0.054  1.00  0.00     0.091 A 
HETATM    2  N   LIG     1       0.548  -0.089  -0.017  1.00  0.00    -0.351 N 
ATOM      3  HN  LIG     1       1.483  -0.485   0.079  1.00  0.00     0.166 HD
HETATM    4  S   LIG     1      -1.393   1.585  -0.215  1.00  0.00    -0.081 SA
HETATM    5  C   LIG     1      -0.620  -0.835  -0.127  1.00  0.00     0.042 A 
HETATM    6  C   LIG     1      -1.772  -0.081  -0.242  1.00  0.00     0.078 A 
ENDROOT
BRANCH   1   7
HETATM    7  C   LIG     1       1.333   2.190   0.037  1.00  0.00     0.038 A 
HETATM    8  S   LIG     1       1.064   3.888   0.006  1.00  0.00    -0.099 SA
HETATM    9  C   LIG     1       2.729   4.236   0.155  1.00  0.00     0.050 A 
HETATM   10  C   LIG     1       3.491   3.092   0.228  1.00  0.00     0.008 A 
HETATM   11  C   LIG     1       2.687   1.917   0.159  1.00  0.00     0.022 A 
ENDBRANCH   1   7
BRANCH   5  12
HETATM   12  C   LIG     1      -0.531  -2.328  -0.102  1.00  0.00     0.286 C 
BRANCH  12  13
HETATM   13  N   LIG     1      -1.243  -2.831   1.071  1.00  0.00    -0.074 N 
ATOM     14  HN3 LIG     1      -0.910  -2.408   1.937  1.00  0.00     0.274 HD
ATOM     15  HN2 LIG     1      -2.207  -2.500   1.111  1.00  0.00     0.274 HD
ATOM     16  HN1 LIG     1      -1.182  -3.849   1.088  1.00  0.00     0.274 HD
ENDBRANCH  12  13
ENDBRANCH   5  12
TORSDOF 3
