REMARK  2 active torsions:
REMARK  status: ('A' for Active; 'I' for Inactive)
REMARK    1  A    between atoms: C_1  and  C_8 
REMARK    2  A    between atoms: C_4  and  C_7 
ROOT
HETATM    1  C   UNK     1      -0.349   1.020   0.093  1.00  0.00     0.117 A 
HETATM    2  N   UNK     1       0.780   0.202   0.160  1.00  0.00    -0.344 N 
ATOM      3  HN  UNK     1       1.727   0.535   0.342  1.00  0.00     0.167 HD
HETATM    4  C   UNK     1       0.457  -1.061  -0.044  1.00  0.00     0.091 A 
HETATM    5  S   UNK     1      -1.219  -1.336  -0.325  1.00  0.00    -0.080 SA
HETATM    6  C   UNK     1      -1.524   0.338  -0.163  1.00  0.00     0.088 A 
ENDROOT
BRANCH   4   7
HETATM    7  C   UNK     1       1.460  -2.104  -0.027  1.00  0.00     0.038 A 
HETATM    8  S   UNK     1       1.115  -3.768  -0.288  1.00  0.00    -0.099 SA
HETATM    9  C   UNK     1       2.751  -4.220  -0.102  1.00  0.00     0.050 A 
HETATM   10  C   UNK     1       3.559  -3.136   0.154  1.00  0.00     0.008 A 
HETATM   11  C   UNK     1       2.815  -1.920   0.196  1.00  0.00     0.022 A 
ENDBRANCH   4   7
BRANCH   1  12
HETATM   12  C   UNK     1      -0.291   2.467   0.277  1.00  0.00     0.227 C 
HETATM   13  O   UNK     1      -1.251   3.224   0.227  1.00  0.00    -0.643 OA
HETATM   14  O   UNK     1       0.945   2.961   0.518  1.00  0.00    -0.643 OA
ENDBRANCH   1  12
TORSDOF 2
