REMARK  3 active torsions:
REMARK  status: ('A' for Active; 'I' for Inactive)
REMARK    1  A    between atoms: C_1  and  C_3 
REMARK    2  A    between atoms: C_11  and  C_14 
REMARK    3  A    between atoms: O_12  and  C_14 
ROOT
HETATM    1  C   LIG     1      -0.695  -2.479  -0.042  1.00  0.00    -0.019 A 
HETATM    2  C   LIG     1       0.158  -3.495   0.418  1.00  0.00     0.013 A 
HETATM    3  C   LIG     1      -1.914  -2.859  -0.623  1.00  0.00     0.013 A 
HETATM    4  C   LIG     1      -2.278  -4.206  -0.726  1.00  0.00     0.010 A 
HETATM    5  C   LIG     1      -0.200  -4.844   0.311  1.00  0.00     0.010 A 
HETATM    6  C   LIG     1      -1.428  -5.210  -0.248  1.00  0.00    -0.035 A 
ENDROOT
BRANCH   1   7
HETATM    7  C   LIG     1      -0.288  -1.066   0.071  1.00  0.00     0.015 A 
HETATM    8  S   LIG     1      -1.451   0.166   0.374  1.00  0.00    -0.101 SA
HETATM    9  C   LIG     1      -0.267   1.396   0.373  1.00  0.00     0.050 A 
HETATM   10  C   LIG     1       0.997   0.894   0.165  1.00  0.00     0.008 A 
HETATM   11  C   LIG     1       0.983  -0.522  -0.005  1.00  0.00     0.020 A 
ENDBRANCH   1   7
BRANCH   6  12
HETATM   12  C   LIG     1      -1.809  -6.661  -0.378  1.00  0.00     0.202 C 
BRANCH  12  13
HETATM   13  O   LIG     1      -1.391  -7.179  -1.633  1.00  0.00    -0.396 OA
ATOM     14  HO  LIG     1      -1.631  -8.094  -1.715  1.00  0.00     0.209 HD
ENDBRANCH  12  13
ENDBRANCH   6  12
TORSDOF 3
