REMARK  1 active torsions:
REMARK  status: ('A' for Active; 'I' for Inactive)
REMARK    1  A    between atoms: C_1  and  C_6 
ROOT
HETATM    1  C   LIG     1      -0.299  -1.222  -0.061  1.00  0.00     0.089 A 
HETATM    2  N   LIG     1       0.957  -0.659  -0.085  1.00  0.00    -0.293 N 
HETATM    3  N   LIG     1       0.955   0.684   0.012  1.00  0.00    -0.303 N 
ATOM      4  HN  LIG     1       1.759   1.309   0.068  1.00  0.00     0.186 HD
HETATM    5  C   LIG     1      -1.160  -0.136  -0.037  1.00  0.00     0.060 A 
HETATM    6  C   LIG     1      -0.340   1.011   0.018  1.00  0.00     0.024 A 
HETATM    7  C   LIG     1       2.223  -1.336  -0.241  1.00  0.00     0.178 C 
HETATM    8  C   LIG     1      -0.753   2.432   0.082  1.00  0.00     0.070 C 
ENDROOT
BRANCH   1   9
HETATM    9  C   LIG     1      -0.598  -2.625  -0.079  1.00  0.00     0.122 C 
HETATM   10  S   LIG     1      -1.753  -3.261  -1.090  1.00  0.00    -0.059 SA
HETATM   11  N   LIG     1       0.087  -3.424   0.788  1.00  0.00    -0.388 N 
ATOM     12  HN2 LIG     1       0.796  -3.034   1.409  1.00  0.00     0.157 HD
ATOM     13  HN1 LIG     1      -0.126  -4.422   0.775  1.00  0.00     0.157 HD
ENDBRANCH   1   9
TORSDOF 1
