REMARK  2 active torsions:
REMARK  status: ('A' for Active; 'I' for Inactive)
REMARK    1  A    between atoms: C_4  and  C_7 
REMARK    2  A    between atoms: C_7  and  N_9 
ROOT
HETATM    1  N   LIG     1       1.011  -0.589  -0.013  1.00  0.00    -0.299 N 
HETATM    2  N   LIG     1       0.984   0.756   0.018  1.00  0.00    -0.303 N 
ATOM      3  HN  LIG     1       1.776   1.399   0.011  1.00  0.00     0.186 HD
HETATM    4  C   LIG     1      -0.235  -1.163  -0.006  1.00  0.00     0.055 A 
HETATM    5  C   LIG     1      -1.119  -0.103   0.045  1.00  0.00     0.054 A 
HETATM    6  C   LIG     1      -0.318   1.058   0.060  1.00  0.00     0.024 A 
HETATM    7  C   LIG     1       2.290  -1.260  -0.045  1.00  0.00     0.177 C 
HETATM    8  C   LIG     1      -0.757   2.472   0.113  1.00  0.00     0.070 C 
ENDROOT
BRANCH   4   9
HETATM    9  C   LIG     1      -0.489  -2.623  -0.062  1.00  0.00     0.288 C 
BRANCH   9  10
HETATM   10  N   LIG     1      -1.127  -3.056   1.170  1.00  0.00    -0.074 N 
ATOM     11  HN3 LIG     1      -0.589  -2.791   1.995  1.00  0.00     0.274 HD
ATOM     12  HN2 LIG     1      -1.975  -2.526   1.371  1.00  0.00     0.274 HD
ATOM     13  HN1 LIG     1      -1.302  -4.060   1.131  1.00  0.00     0.274 HD
ENDBRANCH   9  10
ENDBRANCH   4   9
TORSDOF 2
