REMARK  3 active torsions:
REMARK  status: ('A' for Active; 'I' for Inactive)
REMARK    1  A    between atoms: C_1  and  C_3 
REMARK    2  A    between atoms: N_11  and  C_15 
REMARK    3  A    between atoms: C_14  and  C_15 
ROOT
HETATM    1  C   LIG     1      -0.903  -1.624  -0.169  1.00  0.00    -0.019 A 
HETATM    2  C   LIG     1       0.151  -2.368   0.385  1.00  0.00     0.013 A 
HETATM    3  C   LIG     1      -1.951  -2.331  -0.778  1.00  0.00     0.013 A 
HETATM    4  C   LIG     1       0.149  -3.769   0.343  1.00  0.00     0.010 A 
HETATM    5  C   LIG     1      -1.955  -3.732  -0.820  1.00  0.00     0.010 A 
HETATM    6  C   LIG     1      -0.905  -4.467  -0.258  1.00  0.00    -0.033 A 
ENDROOT
BRANCH   1   7
HETATM    7  C   LIG     1      -0.881  -0.148  -0.116  1.00  0.00     0.015 A 
HETATM    8  S   LIG     1      -2.342   0.754   0.029  1.00  0.00    -0.101 SA
HETATM    9  C   LIG     1      -1.517   2.249   0.017  1.00  0.00     0.050 A 
HETATM   10  C   LIG     1      -0.154   2.083  -0.071  1.00  0.00     0.008 A 
HETATM   11  C   LIG     1       0.209   0.706  -0.142  1.00  0.00     0.020 A 
ENDBRANCH   1   7
BRANCH   6  12
HETATM   12  C   LIG     1      -0.938  -5.980  -0.255  1.00  0.00     0.270 C 
BRANCH  12  13
HETATM   13  N   LIG     1       0.222  -6.554  -0.938  1.00  0.00    -0.075 N 
HETATM   14  C   LIG     1       0.153  -8.010  -0.944  1.00  0.00     0.267 C 
ATOM     15  HN2 LIG     1       0.329  -6.178  -1.880  1.00  0.00     0.277 HD
ATOM     16  HN1 LIG     1       1.099  -6.220  -0.538  1.00  0.00     0.277 HD
ENDBRANCH  12  13
ENDBRANCH   6  12
TORSDOF 3
