REMARK  4 active torsions:
REMARK  status: ('A' for Active; 'I' for Inactive)
REMARK    1  A    between atoms: N_1  and  C_5 
REMARK    2  A    between atoms: C_4  and  C_13 
REMARK    3  A    between atoms: C_5  and  C_8 
REMARK    4  A    between atoms: N_9  and  C_13 
ROOT
HETATM    1  N   LIG     1       0.290   1.309  -0.371  1.00  0.00     0.097 N 
HETATM    2  O   LIG     1       0.726  -1.051   1.358  1.00  0.00    -0.381 OA
HETATM    3  C   LIG     1       1.641   0.854   0.031  1.00  0.00     0.306 C 
HETATM    4  C   LIG     1       1.798  -0.624   0.490  1.00  0.00     0.175 C 
HETATM    5  C   LIG     1      -0.576  -0.664   0.906  1.00  0.00     0.198 C 
HETATM    6  C   LIG     1      -0.657   0.846   0.659  1.00  0.00     0.299 C 
ENDROOT
BRANCH   1   7
HETATM    7  C   LIG     1      -0.062   0.884  -1.732  1.00  0.00     0.311 C 
BRANCH   7   8
HETATM    8  C   LIG     1      -1.380   1.436  -2.239  1.00  0.00    -0.030 A 
HETATM    9  C   LIG     1      -1.571   2.816  -2.382  1.00  0.00     0.009 A 
HETATM   10  C   LIG     1      -2.765   3.321  -2.902  1.00  0.00     0.001 A 
HETATM   11  C   LIG     1      -3.787   2.447  -3.277  1.00  0.00     0.000 A 
HETATM   12  C   LIG     1      -3.617   1.076  -3.125  1.00  0.00     0.001 A 
HETATM   13  C   LIG     1      -2.421   0.567  -2.612  1.00  0.00     0.009 A 
ENDBRANCH   7   8
ENDBRANCH   1   7
BRANCH   4  14
HETATM   14  C   LIG     1       2.044  -1.668  -0.622  1.00  0.00     0.263 C 
BRANCH  14  15
HETATM   15  N   LIG     1       3.173  -1.358  -1.502  1.00  0.00    -0.077 N 
ATOM     16  HN3 LIG     1       3.065  -0.427  -1.905  1.00  0.00     0.274 HD
ATOM     17  HN2 LIG     1       4.022  -1.214  -0.955  1.00  0.00     0.274 HD
ATOM     18  HN1 LIG     1       3.335  -2.047  -2.236  1.00  0.00     0.274 HD
ENDBRANCH  14  15
ENDBRANCH   4  14
TORSDOF 4
