REMARK  3 active torsions:
REMARK  status: ('A' for Active; 'I' for Inactive)
REMARK    1  A    between atoms: C_1  and  C_6 
REMARK    2  A    between atoms: C_5  and  C_11 
REMARK    3  A    between atoms: C_11  and  O_13 
ROOT
HETATM    1  C   UNK     1       0.688   0.809  -0.034  1.00  0.00     0.086 A 
HETATM    2  N   UNK     1       0.773  -0.511  -0.042  1.00  0.00    -0.351 N 
ATOM      3  HN  UNK     1       1.647  -1.035  -0.096  1.00  0.00     0.166 HD
HETATM    4  S   UNK     1      -0.928   1.409   0.070  1.00  0.00    -0.081 SA
HETATM    5  C   UNK     1      -0.492  -1.089   0.033  1.00  0.00     0.040 A 
HETATM    6  C   UNK     1      -1.533  -0.187   0.100  1.00  0.00     0.079 A 
ENDROOT
BRANCH   1   7
HETATM    7  C   UNK     1       1.853   1.710  -0.105  1.00  0.00     0.013 A 
HETATM    8  C   UNK     1       1.766   3.101  -0.099  1.00  0.00     0.101 A 
HETATM    9  N   UNK     1       2.828   3.947  -0.162  1.00  0.00    -0.374 N 
HETATM   10  C   UNK     1       4.050   3.383  -0.237  1.00  0.00     0.087 A 
ATOM     11  HN  UNK     1       2.706   4.960  -0.153  1.00  0.00     0.164 HD
HETATM   12  C   UNK     1       4.259   2.016  -0.251  1.00  0.00     0.018 A 
HETATM   13  C   UNK     1       3.147   1.176  -0.184  1.00  0.00     0.017 A 
ENDBRANCH   1   7
BRANCH   5  14
HETATM   14  C   UNK     1      -0.597  -2.580   0.033  1.00  0.00     0.221 C 
BRANCH  14  15
HETATM   15  O   UNK     1       0.488  -3.183  -0.669  1.00  0.00    -0.395 OA
ATOM     16  HO  UNK     1       0.421  -4.131  -0.669  1.00  0.00     0.209 HD
ENDBRANCH  14  15
ENDBRANCH   5  14
TORSDOF 3
