REMARK  2 active torsions:
REMARK  status: ('A' for Active; 'I' for Inactive)
REMARK    1  A    between atoms: C_1  and  C_7 
REMARK    2  A    between atoms: C_7  and  N_10 
ROOT
HETATM    1  C   LIG     1      -0.215  -1.263  -0.017  1.00  0.00     0.015 A 
HETATM    2  N   LIG     1      -0.385   1.017   0.035  1.00  0.00    -0.303 N 
ATOM      3  HN  LIG     1      -0.754   1.968   0.044  1.00  0.00     0.186 HD
HETATM    4  N   LIG     1       0.901   0.633   0.037  1.00  0.00    -0.300 N 
HETATM    5  C   LIG     1       1.066  -0.729   0.014  1.00  0.00     0.034 A 
HETATM    6  C   LIG     1      -1.073  -0.129   0.019  1.00  0.00     0.032 A 
HETATM    7  C   LIG     1       1.918   1.657   0.070  1.00  0.00     0.177 C 
HETATM    8  C   LIG     1       2.396  -1.388   0.021  1.00  0.00     0.070 C 
HETATM    9  C   LIG     1      -2.557  -0.102   0.028  1.00  0.00     0.070 C 
ENDROOT
BRANCH   1  10
HETATM   10  C   LIG     1      -0.619  -2.693  -0.075  1.00  0.00     0.272 C 
BRANCH  10  11
HETATM   11  N   LIG     1      -0.791  -3.179   1.286  1.00  0.00    -0.075 N 
ATOM     12  HN3 LIG     1       0.037  -3.029   1.863  1.00  0.00     0.274 HD
ATOM     13  HN2 LIG     1      -1.443  -2.609   1.826  1.00  0.00     0.274 HD
ATOM     14  HN1 LIG     1      -1.068  -4.160   1.246  1.00  0.00     0.274 HD
ENDBRANCH  10  11
ENDBRANCH   1  10
TORSDOF 2
