REMARK  3 active torsions:
REMARK  status: ('A' for Active; 'I' for Inactive)
REMARK    1  A    between atoms: C_1  and  C_6 
REMARK    2  A    between atoms: C_3  and  C_7 
REMARK    3  A    between atoms: C_7  and  O_9 
ROOT
HETATM    1  C   LIG     1      -0.455   1.027  -0.007  1.00  0.00     0.086 A 
HETATM    2  O   LIG     1       0.868   0.688   0.022  1.00  0.00    -0.314 OA
HETATM    3  C   LIG     1      -0.314  -1.230   0.003  1.00  0.00    -0.003 A 
HETATM    4  C   LIG     1      -1.215  -0.126  -0.019  1.00  0.00     0.050 A 
HETATM    5  C   LIG     1       0.950  -0.670   0.028  1.00  0.00     0.058 A 
HETATM    6  C   LIG     1       2.318  -1.229   0.053  1.00  0.00     0.077 C 
ENDROOT
BRANCH   1   7
HETATM    7  C   LIG     1      -0.759   2.457  -0.018  1.00  0.00    -0.002 A 
HETATM    8  C   LIG     1      -2.088   2.906  -0.049  1.00  0.00     0.014 A 
HETATM    9  C   LIG     1      -2.385   4.273  -0.063  1.00  0.00     0.001 A 
HETATM   10  C   LIG     1      -1.356   5.211  -0.046  1.00  0.00     0.000 A 
HETATM   11  C   LIG     1      -0.032   4.785  -0.014  1.00  0.00     0.001 A 
HETATM   12  C   LIG     1       0.264   3.419  -0.000  1.00  0.00     0.014 A 
ENDBRANCH   1   7
BRANCH   3  13
HETATM   13  C   LIG     1      -0.666  -2.673   0.000  1.00  0.00     0.205 C 
BRANCH  13  14
HETATM   14  O   LIG     1      -0.131  -3.343  -1.136  1.00  0.00    -0.396 OA
ATOM     15  HO  LIG     1      -0.356  -4.266  -1.138  1.00  0.00     0.209 HD
ENDBRANCH  13  14
ENDBRANCH   3  13
TORSDOF 3
