REMARK  3 active torsions:
REMARK  status: ('A' for Active; 'I' for Inactive)
REMARK    1  A    between atoms: N_1  and  C_2 
REMARK    2  A    between atoms: N_8  and  C_16 
REMARK    3  A    between atoms: C_11  and  C_16 
ROOT
HETATM    1  C   LIG     1       1.213   2.373  -0.684  1.00  0.00     0.030 A 
HETATM    2  C   LIG     1       0.788   3.710  -0.592  1.00  0.00     0.030 A 
HETATM    3  C   LIG     1       1.970   2.052  -1.822  1.00  0.00     0.030 A 
HETATM    4  C   LIG     1       1.057   4.656  -1.594  1.00  0.00     0.011 A 
HETATM    5  C   LIG     1       2.246   2.987  -2.831  1.00  0.00     0.011 A 
HETATM    6  C   LIG     1       1.786   4.302  -2.729  1.00  0.00    -0.033 A 
ENDROOT
BRANCH   1   7
HETATM    7  N   LIG     1       0.938   1.458   0.341  1.00  0.00    -0.377 N 
HETATM    8  C   LIG     1       1.435   0.065   0.246  1.00  0.00     0.149 C 
HETATM    9  C   LIG     1       0.464  -0.794  -0.586  1.00  0.00     0.187 C 
HETATM   10  O   LIG     1      -0.864  -0.774  -0.029  1.00  0.00    -0.388 OA
HETATM   11  C   LIG     1      -1.358   0.576   0.052  1.00  0.00     0.187 C 
HETATM   12  C   LIG     1      -0.436   1.463   0.907  1.00  0.00     0.149 C 
ENDBRANCH   1   7
BRANCH   6  13
HETATM   13  C   LIG     1       2.076   5.308  -3.817  1.00  0.00     0.270 C 
BRANCH  13  14
HETATM   14  N   LIG     1       3.519   5.500  -3.987  1.00  0.00    -0.075 N 
HETATM   15  C   LIG     1       3.799   6.497  -5.009  1.00  0.00     0.267 C 
ATOM     16  HN2 LIG     1       3.974   5.730  -3.103  1.00  0.00     0.277 HD
ATOM     17  HN1 LIG     1       3.994   4.619  -4.182  1.00  0.00     0.277 HD
ENDBRANCH  13  14
ENDBRANCH   6  13
TORSDOF 3
