REMARK  1 active torsions:
REMARK  status: ('A' for Active; 'I' for Inactive)
REMARK    1  A    between atoms: N_1  and  C_4 
ROOT
HETATM    1  C   LIG     1      -0.699  -2.428  -0.034  1.00  0.00     0.056 A 
HETATM    2  C   LIG     1       0.267  -3.431   0.112  1.00  0.00     0.033 A 
HETATM    3  C   LIG     1      -2.034  -2.796  -0.248  1.00  0.00     0.033 A 
HETATM    4  C   LIG     1      -1.421  -5.148  -0.252  1.00  0.00     0.046 A 
HETATM    5  N   LIG     1      -1.800  -6.495  -0.213  1.00  0.00    -0.102 NA
HETATM    6  C   LIG     1      -0.103  -4.779   0.024  1.00  0.00     0.029 A 
HETATM    7  C   LIG     1      -2.390  -4.146  -0.332  1.00  0.00     0.029 A 
ENDROOT
BRANCH   1   8
HETATM    8  N   LIG     1      -0.356  -1.049   0.049  1.00  0.00    -0.268 N 
HETATM    9  N   LIG     1      -1.303  -0.082  -0.089  1.00  0.00    -0.305 N 
HETATM   10  C   LIG     1      -0.640   1.066   0.041  1.00  0.00     0.109 A 
ATOM     11  HN  LIG     1      -2.301  -0.208  -0.255  1.00  0.00     0.186 HD
HETATM   12  C   LIG     1       0.730   0.874   0.261  1.00  0.00     0.038 A 
HETATM   13  C   LIG     1       0.889  -0.491   0.261  1.00  0.00     0.118 A 
ENDBRANCH   1   8
TORSDOF 1
