REMARK  3 active torsions:
REMARK  status: ('A' for Active; 'I' for Inactive)
REMARK    1  A    between atoms: N_1  and  C_5 
REMARK    2  A    between atoms: C_12  and  C_15 
REMARK    3  A    between atoms: O_13  and  C_15 
ROOT
HETATM    1  C   LIG     1      -0.700   2.363  -0.046  1.00  0.00     0.039 A 
HETATM    2  C   LIG     1      -2.032   2.652  -0.379  1.00  0.00     0.030 A 
HETATM    3  C   LIG     1       0.191   3.426   0.160  1.00  0.00     0.030 A 
HETATM    4  C   LIG     1      -0.246   4.751   0.045  1.00  0.00     0.011 A 
HETATM    5  C   LIG     1      -2.462   3.978  -0.494  1.00  0.00     0.011 A 
HETATM    6  C   LIG     1      -1.578   5.039  -0.269  1.00  0.00    -0.035 A 
ENDROOT
BRANCH   1   7
HETATM    7  N   LIG     1      -0.260   1.013   0.080  1.00  0.00    -0.317 N 
HETATM    8  C   LIG     1      -1.008  -0.133  -0.091  1.00  0.00     0.188 A 
HETATM    9  N   LIG     1      -0.312  -1.232   0.099  1.00  0.00    -0.360 N 
HETATM   10  C   LIG     1       0.945  -0.803   0.408  1.00  0.00     0.106 A 
ATOM     11  HN  LIG     1      -0.640  -2.195   0.030  1.00  0.00     0.166 HD
HETATM   12  C   LIG     1       1.006   0.570   0.403  1.00  0.00     0.115 A 
ENDBRANCH   1   7
BRANCH   6  13
HETATM   13  C   LIG     1      -2.042   6.463  -0.410  1.00  0.00     0.202 C 
BRANCH  13  14
HETATM   14  O   LIG     1      -1.895   6.909  -1.750  1.00  0.00    -0.396 OA
ATOM     15  HO  LIG     1      -2.188   7.808  -1.839  1.00  0.00     0.209 HD
ENDBRANCH  13  14
ENDBRANCH   6  13
TORSDOF 3
