REMARK  1 active torsions:
REMARK  status: ('A' for Active; 'I' for Inactive)
REMARK    1  A    between atoms: C_3  and  C_7 
ROOT
HETATM    1  N   LIG     1       0.502   0.547   0.826  1.00  0.00    -0.353 N 
ATOM      2  HN  LIG     1       1.113   1.170   1.354  1.00  0.00     0.166 HD
HETATM    3  C   LIG     1      -0.568   0.963   0.042  1.00  0.00     0.049 A 
HETATM    4  C   LIG     1       0.615  -0.762   0.792  1.00  0.00     0.047 A 
HETATM    5  S   LIG     1      -0.536  -1.577  -0.186  1.00  0.00    -0.087 SA
HETATM    6  C   LIG     1      -1.238  -0.066  -0.594  1.00  0.00     0.081 A 
HETATM    7  C   LIG     1       1.647  -1.537   1.532  1.00  0.00     0.076 C 
ENDROOT
BRANCH   3   8
HETATM    8  C   LIG     1      -0.901   2.382  -0.083  1.00  0.00    -0.007 A 
HETATM    9  C   LIG     1      -2.131   2.823  -0.600  1.00  0.00     0.040 A 
HETATM   10  C   LIG     1      -2.415   4.188  -0.739  1.00  0.00     0.047 A 
HETATM   11  N   LIG     1      -3.691   4.605  -1.143  1.00  0.00    -0.102 NA
HETATM   12  C   LIG     1      -1.498   5.120  -0.249  1.00  0.00     0.026 A 
HETATM   13  C   LIG     1      -0.274   4.703   0.273  1.00  0.00     0.003 A 
HETATM   14  C   LIG     1       0.024   3.343   0.347  1.00  0.00     0.014 A 
ENDBRANCH   3   8
TORSDOF 1
