REMARK  3 active torsions:
REMARK  status: ('A' for Active; 'I' for Inactive)
REMARK    1  A    between atoms: C_1  and  C_8 
REMARK    2  A    between atoms: C_2  and  C_7 
REMARK    3  A    between atoms: C_8  and  O_9 
ROOT
HETATM    1  C   LIG     1      -0.417  -1.303  -0.015  1.00  0.00     0.026 A 
HETATM    2  C   LIG     1       0.937  -1.012  -0.009  1.00  0.00     0.119 A 
HETATM    3  O   LIG     1       1.095   0.343  -0.016  1.00  0.00    -0.236 OA
HETATM    4  N   LIG     1      -0.132   0.964  -0.033  1.00  0.00    -0.265 N 
ATOM      5  HN  LIG     1      -0.313   1.968  -0.043  1.00  0.00     0.194 HD
HETATM    6  C   LIG     1      -1.038  -0.019  -0.034  1.00  0.00     0.040 A 
HETATM    7  C   LIG     1      -2.478   0.329  -0.066  1.00  0.00     0.071 C 
ENDROOT
BRANCH   2   8
HETATM    8  C   LIG     1       2.185  -1.773  -0.004  1.00  0.00     0.000 A 
HETATM    9  C   LIG     1       2.275  -3.036  -0.603  1.00  0.00     0.014 A 
HETATM   10  C   LIG     1       3.481  -3.748  -0.598  1.00  0.00     0.001 A 
HETATM   11  C   LIG     1       4.614  -3.205   0.004  1.00  0.00     0.000 A 
HETATM   12  C   LIG     1       4.543  -1.949   0.599  1.00  0.00     0.001 A 
HETATM   13  C   LIG     1       3.338  -1.241   0.596  1.00  0.00     0.014 A 
ENDBRANCH   2   8
BRANCH   1  14
HETATM   14  C   LIG     1      -1.076  -2.629   0.020  1.00  0.00     0.207 C 
BRANCH  14  15
HETATM   15  O   LIG     1      -1.303  -3.140  -1.288  1.00  0.00    -0.396 OA
ATOM     16  HO  LIG     1      -1.726  -3.990  -1.266  1.00  0.00     0.209 HD
ENDBRANCH  14  15
ENDBRANCH   1  14
TORSDOF 3
