REMARK  3 active torsions:
REMARK  status: ('A' for Active; 'I' for Inactive)
REMARK    1  A    between atoms: C_3  and  C_9 
REMARK    2  A    between atoms: C_6  and  C_10 
REMARK    3  A    between atoms: C_10  and  O_11 
ROOT
HETATM    1  N   LIG     1      -0.721   1.183  -0.021  1.00  0.00    -0.345 N 
ATOM      2  HN  LIG     1      -1.249   2.056  -0.020  1.00  0.00     0.167 HD
HETATM    3  C   LIG     1      -1.350  -0.009  -0.036  1.00  0.00     0.115 A 
HETATM    4  N   LIG     1      -0.711  -1.194  -0.050  1.00  0.00    -0.351 N 
ATOM      5  HN  LIG     1      -1.219  -2.078  -0.069  1.00  0.00     0.166 HD
HETATM    6  C   LIG     1       1.375   0.016  -0.017  1.00  0.00     0.003 A 
HETATM    7  C   LIG     1       0.631   1.186  -0.008  1.00  0.00     0.016 A 
HETATM    8  C   LIG     1       0.634  -1.150  -0.038  1.00  0.00     0.101 A 
HETATM    9  C   LIG     1       1.280   2.540   0.014  1.00  0.00     0.069 C 
ENDROOT
BRANCH   3  10
HETATM   10  C   LIG     1      -2.828  -0.015  -0.030  1.00  0.00     0.008 A 
HETATM   11  C   LIG     1      -3.560  -1.219  -0.043  1.00  0.00     0.015 A 
HETATM   12  C   LIG     1      -4.959  -1.226  -0.033  1.00  0.00     0.001 A 
HETATM   13  C   LIG     1      -5.662  -0.025  -0.009  1.00  0.00     0.000 A 
HETATM   14  C   LIG     1      -4.968   1.180   0.003  1.00  0.00     0.001 A 
HETATM   15  C   LIG     1      -3.569   1.183  -0.007  1.00  0.00     0.015 A 
ENDBRANCH   3  10
BRANCH   6  16
HETATM   16  C   LIG     1       2.869  -0.024   0.012  1.00  0.00     0.206 C 
BRANCH  16  17
HETATM   17  O   LIG     1       3.427   0.524  -1.174  1.00  0.00    -0.396 OA
ATOM     18  HO  LIG     1       4.376   0.499  -1.156  1.00  0.00     0.209 HD
ENDBRANCH  16  17
ENDBRANCH   6  16
TORSDOF 3
