REMARK  1 active torsions:
REMARK  status: ('A' for Active; 'I' for Inactive)
REMARK    1  A    between atoms: N_1  and  C_2 
ROOT
HETATM    1  C   LIG     1      -0.712  -2.451   0.009  1.00  0.00     0.040 A 
HETATM    2  C   LIG     1       0.232  -3.475   0.200  1.00  0.00     0.056 A 
HETATM    3  C   LIG     1      -0.132  -4.825   0.107  1.00  0.00     0.048 A 
HETATM    4  N   LIG     1       0.795  -5.828   0.423  1.00  0.00    -0.102 NA
HETATM    5  C   LIG     1      -2.046  -2.803  -0.234  1.00  0.00     0.030 A 
HETATM    6  C   LIG     1      -2.426  -4.147  -0.265  1.00  0.00     0.004 A 
HETATM    7  C   LIG     1      -1.476  -5.149  -0.073  1.00  0.00     0.027 A 
ENDROOT
BRANCH   1   8
HETATM    8  N   LIG     1      -0.320  -1.076   0.073  1.00  0.00    -0.333 N 
HETATM    9  C   LIG     1      -1.149   0.027  -0.040  1.00  0.00     0.096 A 
HETATM   10  C   LIG     1      -0.403   1.180   0.071  1.00  0.00     0.019 A 
HETATM   11  C   LIG     1       0.936   0.791   0.255  1.00  0.00     0.019 A 
HETATM   12  C   LIG     1       0.963  -0.587   0.253  1.00  0.00     0.096 A 
ENDBRANCH   1   8
TORSDOF 1
