REMARK  2 active torsions:
REMARK  status: ('A' for Active; 'I' for Inactive)
REMARK    1  A    between atoms: N_1  and  C_3 
REMARK    2  A    between atoms: C_2  and  C_4 
ROOT
HETATM    1  C   LIG     1      -0.740  -2.406  -0.031  1.00  0.00     0.039 A 
HETATM    2  C   LIG     1      -2.415  -4.102  -0.549  1.00  0.00     0.043 A 
HETATM    3  C   LIG     1      -2.034  -2.754  -0.455  1.00  0.00     0.048 A 
HETATM    4  C   LIG     1       0.161  -3.431   0.298  1.00  0.00     0.030 A 
HETATM    5  C   LIG     1      -1.505  -5.110  -0.215  1.00  0.00     0.018 A 
HETATM    6  C   LIG     1      -0.221  -4.773   0.206  1.00  0.00     0.003 A 
ENDROOT
BRANCH   1   7
HETATM    7  N   LIG     1      -0.349  -1.032   0.062  1.00  0.00    -0.333 N 
HETATM    8  C   LIG     1       0.886  -0.548   0.459  1.00  0.00     0.096 A 
HETATM    9  C   LIG     1       0.877   0.829   0.420  1.00  0.00     0.019 A 
HETATM   10  C   LIG     1      -0.402   1.223  -0.014  1.00  0.00     0.019 A 
HETATM   11  C   LIG     1      -1.131   0.073  -0.226  1.00  0.00     0.096 A 
ENDBRANCH   1   7
BRANCH   2  12
HETATM   12  C   LIG     1      -3.770  -4.507  -0.999  1.00  0.00     0.209 C 
HETATM   13  O   LIG     1      -4.174  -5.650  -1.106  1.00  0.00    -0.644 OA
HETATM   14  O   LIG     1      -4.557  -3.458  -1.300  1.00  0.00    -0.644 OA
ENDBRANCH   2  12
TORSDOF 2
