REMARK  2 active torsions:
REMARK  status: ('A' for Active; 'I' for Inactive)
REMARK    1  A    between atoms: C_1  and  C_4 
REMARK    2  A    between atoms: C_5  and  C_10 
ROOT
HETATM    1  C   LIG     1       0.669   1.250  -0.048  1.00  0.00     0.056 A 
HETATM    2  N   LIG     1      -1.268  -0.202  -0.064  1.00  0.00    -0.364 N 
ATOM      3  HN  LIG     1      -2.282  -0.312  -0.073  1.00  0.00     0.165 HD
HETATM    4  C   LIG     1      -0.448  -1.286  -0.061  1.00  0.00     0.042 A 
HETATM    5  C   LIG     1      -0.699   1.031  -0.054  1.00  0.00     0.106 A 
HETATM    6  C   LIG     1       1.505   0.137  -0.055  1.00  0.00     0.022 A 
HETATM    7  C   LIG     1       0.942  -1.142  -0.063  1.00  0.00     0.031 A 
ENDROOT
BRANCH   4   8
HETATM    8  C   LIG     1      -1.117  -2.605  -0.073  1.00  0.00    -0.009 A 
HETATM    9  C   LIG     1      -0.543  -3.743   0.525  1.00  0.00     0.013 A 
HETATM   10  C   LIG     1      -1.181  -4.987   0.490  1.00  0.00     0.001 A 
HETATM   11  C   LIG     1      -2.414  -5.122  -0.141  1.00  0.00     0.000 A 
HETATM   12  C   LIG     1      -3.012  -4.012  -0.728  1.00  0.00     0.001 A 
HETATM   13  C   LIG     1      -2.371  -2.769  -0.691  1.00  0.00     0.013 A 
ENDBRANCH   4   8
BRANCH   1  14
HETATM   14  C   LIG     1       1.166   2.637  -0.041  1.00  0.00     0.210 C 
HETATM   15  O   LIG     1       0.479   3.641  -0.037  1.00  0.00    -0.644 OA
HETATM   16  O   LIG     1       2.509   2.705  -0.040  1.00  0.00    -0.644 OA
ENDBRANCH   1  14
TORSDOF 2
