REMARK  3 active torsions:
REMARK  status: ('A' for Active; 'I' for Inactive)
REMARK    1  A    between atoms: N_1  and  C_2 
REMARK    2  A    between atoms: C_8  and  C_15 
REMARK    3  A    between atoms: N_9  and  C_15 
ROOT
HETATM    1  C   LIG     1      -0.738  -2.412  -0.038  1.00  0.00     0.038 A 
HETATM    2  C   LIG     1       0.171  -3.459   0.183  1.00  0.00     0.038 A 
HETATM    3  C   LIG     1      -0.236  -4.805   0.118  1.00  0.00    -0.031 A 
HETATM    4  C   LIG     1      -2.073  -2.732  -0.324  1.00  0.00     0.030 A 
HETATM    5  C   LIG     1      -2.485  -4.067  -0.388  1.00  0.00     0.003 A 
HETATM    6  C   LIG     1      -1.573  -5.097  -0.169  1.00  0.00     0.009 A 
ENDROOT
BRANCH   1   7
HETATM    7  N   LIG     1      -0.310  -1.048   0.026  1.00  0.00    -0.333 N 
HETATM    8  C   LIG     1      -1.097   0.076  -0.165  1.00  0.00     0.096 A 
HETATM    9  C   LIG     1      -0.326   1.209  -0.022  1.00  0.00     0.019 A 
HETATM   10  C   LIG     1       0.983   0.786   0.268  1.00  0.00     0.019 A 
HETATM   11  C   LIG     1       0.970  -0.591   0.293  1.00  0.00     0.096 A 
ENDBRANCH   1   7
BRANCH   3  12
HETATM   12  C   LIG     1       0.758  -5.913   0.363  1.00  0.00     0.268 C 
BRANCH  12  13
HETATM   13  N   LIG     1       1.838  -5.886  -0.616  1.00  0.00    -0.075 N 
ATOM     14  HN3 LIG     1       1.478  -5.911  -1.570  1.00  0.00     0.274 HD
ATOM     15  HN2 LIG     1       2.294  -4.974  -0.644  1.00  0.00     0.274 HD
ATOM     16  HN1 LIG     1       2.510  -6.635  -0.450  1.00  0.00     0.274 HD
ENDBRANCH  12  13
ENDBRANCH   3  12
TORSDOF 3
