REMARK  2 active torsions:
REMARK  status: ('A' for Active; 'I' for Inactive)
REMARK    1  A    between atoms: C_5  and  C_11 
REMARK    2  A    between atoms: C_11  and  O_13 
ROOT
HETATM    1  N   LIG     1       0.216  -0.691   0.015  1.00  0.00    -0.308 N 
HETATM    2  N   LIG     1       1.531   1.123  -0.037  1.00  0.00    -0.344 N 
ATOM      3  HN  LIG     1       1.854   2.090  -0.058  1.00  0.00     0.167 HD
HETATM    4  C   LIG     1       0.287   0.701  -0.005  1.00  0.00     0.112 A 
HETATM    5  C   LIG     1       1.519  -1.151  -0.002  1.00  0.00     0.063 A 
HETATM    6  C   LIG     1       2.306  -0.011  -0.037  1.00  0.00     0.032 A 
HETATM    7  C   LIG     1      -0.997  -1.385   0.037  1.00  0.00     0.099 A 
HETATM    8  C   LIG     1      -0.940   1.422   0.008  1.00  0.00     0.049 A 
HETATM    9  C   LIG     1      -2.153  -0.698   0.045  1.00  0.00     0.018 A 
HETATM   10  C   LIG     1      -2.110   0.756   0.032  1.00  0.00     0.005 A 
HETATM   11  C   LIG     1       3.784   0.092  -0.073  1.00  0.00     0.070 C 
ENDROOT
BRANCH   5  12
HETATM   12  C   LIG     1       1.913  -2.576   0.027  1.00  0.00     0.223 C 
BRANCH  12  13
HETATM   13  O   LIG     1       2.401  -2.907  -1.264  1.00  0.00    -0.395 OA
ATOM     14  HO  LIG     1       2.654  -3.822  -1.245  1.00  0.00     0.209 HD
ENDBRANCH  12  13
ENDBRANCH   5  12
TORSDOF 2
