REMARK  3 active torsions:
REMARK  status: ('A' for Active; 'I' for Inactive)
REMARK    1  A    between atoms: C_1  and  C_6 
REMARK    2  A    between atoms: C_7  and  C_12 
REMARK    3  A    between atoms: C_12  and  O_13 
ROOT
HETATM    1  C   LIG     1      -0.800  -1.024   0.020  1.00  0.00     0.117 A 
HETATM    2  C   LIG     1      -1.521   0.150   0.046  1.00  0.00     0.070 A 
HETATM    3  N   LIG     1       0.678   0.691   0.053  1.00  0.00    -0.263 N 
ATOM      4  HN  LIG     1       1.550   1.219   0.052  1.00  0.00     0.194 HD
HETATM    5  O   LIG     1       0.532  -0.684   0.027  1.00  0.00    -0.236 OA
HETATM    6  C   LIG     1      -0.564   1.181   0.080  1.00  0.00     0.058 A 
ENDROOT
BRANCH   1   7
HETATM    7  C   LIG     1      -1.254  -2.388  -0.012  1.00  0.00     0.040 A 
HETATM    8  S   LIG     1      -2.921  -2.792  -0.034  1.00  0.00    -0.099 SA
HETATM    9  C   LIG     1      -2.588  -4.466  -0.064  1.00  0.00     0.050 A 
HETATM   10  C   LIG     1      -1.236  -4.720  -0.057  1.00  0.00     0.008 A 
HETATM   11  C   LIG     1      -0.465  -3.522  -0.027  1.00  0.00     0.022 A 
ENDBRANCH   1   7
BRANCH   6  12
HETATM   12  C   LIG     1      -0.794   2.655   0.105  1.00  0.00     0.223 C 
BRANCH  12  13
HETATM   13  O   LIG     1      -0.317   3.293  -1.079  1.00  0.00    -0.395 OA
ATOM     14  HO  LIG     1      -0.463   4.232  -1.063  1.00  0.00     0.209 HD
ENDBRANCH  12  13
ENDBRANCH   6  12
TORSDOF 3
