REMARK  2 active torsions:
REMARK  status: ('A' for Active; 'I' for Inactive)
REMARK    1  A    between atoms: C_1  and  C_3 
REMARK    2  A    between atoms: C_2  and  N_4 
ROOT
HETATM    1  C   LIG     1      -0.213  -0.347  -0.728  1.00  0.00     0.062 A 
HETATM    2  C   LIG     1      -1.050  -1.263  -0.041  1.00  0.00     0.028 A 
HETATM    3  C   LIG     1      -0.162   1.006  -0.325  1.00  0.00     0.020 A 
HETATM    4  C   LIG     1      -1.805  -0.756   1.039  1.00  0.00     0.025 A 
HETATM    5  C   LIG     1      -0.913   1.465   0.753  1.00  0.00     0.001 A 
HETATM    6  C   LIG     1      -1.735   0.582   1.436  1.00  0.00     0.002 A 
ENDROOT
BRANCH   2   7
HETATM    7  N   LIG     1      -1.108  -2.628  -0.376  1.00  0.00    -0.279 NA
HETATM    8  C   LIG     1      -1.360  -3.596   0.716  1.00  0.00     0.122 C 
HETATM    9  C   LIG     1      -1.144  -5.027   0.198  1.00  0.00     0.182 C 
HETATM   10  O   LIG     1      -1.988  -5.307  -0.932  1.00  0.00    -0.389 OA
HETATM   11  C   LIG     1      -1.712  -4.377  -1.998  1.00  0.00     0.182 C 
HETATM   12  C   LIG     1      -1.968  -2.926  -1.550  1.00  0.00     0.122 C 
ENDBRANCH   2   7
BRANCH   1  13
HETATM   13  C   LIG     1       0.672  -0.763  -1.860  1.00  0.00     0.211 C 
HETATM   14  O   LIG     1       0.517  -1.655  -2.669  1.00  0.00    -0.644 OA
HETATM   15  O   LIG     1       1.772   0.020  -1.939  1.00  0.00    -0.644 OA
ENDBRANCH   1  13
TORSDOF 2
