REMARK  2 active torsions:
REMARK  status: ('A' for Active; 'I' for Inactive)
REMARK    1  A    between atoms: C_1  and  C_2 
REMARK    2  A    between atoms: C_4  and  C_8 
ROOT
HETATM    1  C   LIG     1      -0.691   1.203   0.038  1.00  0.00     0.057 A 
HETATM    2  C   LIG     1      -1.364  -0.025   0.089  1.00  0.00     0.033 A 
HETATM    3  C   LIG     1      -0.661  -1.236  -0.027  1.00  0.00    -0.009 A 
HETATM    4  N   LIG     1       1.409   0.056  -0.256  1.00  0.00    -0.373 N 
ATOM      5  HN  LIG     1       2.420   0.078  -0.386  1.00  0.00     0.164 HD
HETATM    6  C   LIG     1       0.683   1.190  -0.138  1.00  0.00     0.106 A 
HETATM    7  C   LIG     1       0.724  -1.114  -0.193  1.00  0.00     0.100 A 
ENDROOT
BRANCH   3   8
HETATM    8  C   LIG     1      -1.339  -2.553   0.024  1.00  0.00    -0.025 A 
HETATM    9  C   LIG     1      -2.494  -2.757   0.803  1.00  0.00     0.012 A 
HETATM   10  C   LIG     1      -3.139  -3.999   0.847  1.00  0.00     0.001 A 
HETATM   11  C   LIG     1      -2.636  -5.072   0.121  1.00  0.00     0.000 A 
HETATM   12  C   LIG     1      -1.494  -4.903  -0.653  1.00  0.00     0.001 A 
HETATM   13  C   LIG     1      -0.858  -3.658  -0.705  1.00  0.00     0.012 A 
ENDBRANCH   3   8
BRANCH   1  14
HETATM   14  C   LIG     1      -1.371   2.505   0.160  1.00  0.00     0.210 C 
HETATM   15  O   LIG     1      -0.833   3.594   0.122  1.00  0.00    -0.644 OA
HETATM   16  O   LIG     1      -2.700   2.383   0.325  1.00  0.00    -0.644 OA
ENDBRANCH   1  14
TORSDOF 2
