REMARK  1 active torsions:
REMARK  status: ('A' for Active; 'I' for Inactive)
REMARK    1  A    between atoms: N_1  and  C_4 
ROOT
HETATM    1  C   LIG     1      -0.828  -2.360  -0.086  1.00  0.00     0.076 A 
HETATM    2  N   LIG     1      -4.085  -1.328  -1.232  1.00  0.00    -0.191 NA
HETATM    3  C   LIG     1      -3.190  -1.977  -0.879  1.00  0.00     0.102 C 
HETATM    4  C   LIG     1      -2.109  -2.815  -0.448  1.00  0.00     0.073 A 
HETATM    5  C   LIG     1       0.161  -3.322   0.225  1.00  0.00     0.033 A 
HETATM    6  C   LIG     1      -2.375  -4.200  -0.460  1.00  0.00     0.025 A 
HETATM    7  C   LIG     1      -0.119  -4.690   0.206  1.00  0.00     0.002 A 
HETATM    8  C   LIG     1      -1.391  -5.130  -0.132  1.00  0.00     0.002 A 
ENDROOT
BRANCH   1   9
HETATM    9  N   LIG     1      -0.441  -0.983  -0.010  1.00  0.00    -0.267 N 
HETATM   10  N   LIG     1       0.878  -0.664   0.135  1.00  0.00    -0.305 N 
HETATM   11  C   LIG     1       0.919   0.667   0.143  1.00  0.00     0.109 A 
ATOM     12  HN  LIG     1       1.665  -1.308   0.219  1.00  0.00     0.186 HD
HETATM   13  C   LIG     1      -0.351   1.239   0.045  1.00  0.00     0.038 A 
HETATM   14  C   LIG     1      -1.207   0.164  -0.029  1.00  0.00     0.118 A 
ENDBRANCH   1   9
TORSDOF 1
