REMARK  2 active torsions:
REMARK  status: ('A' for Active; 'I' for Inactive)
REMARK    1  A    between atoms: C_8  and  C_14 
REMARK    2  A    between atoms: N_10  and  C_14 
ROOT
HETATM    1  C   LIG     1      -0.330   0.653  -0.037  1.00  0.00    -0.018 A 
HETATM    2  S   LIG     1      -1.805  -1.466   0.067  1.00  0.00    -0.101 SA
HETATM    3  C   LIG     1      -0.243  -0.739   0.047  1.00  0.00     0.015 A 
HETATM    4  C   LIG     1      -2.591   0.043  -0.032  1.00  0.00     0.051 A 
HETATM    5  C   LIG     1      -1.697   1.087  -0.081  1.00  0.00     0.020 A 
HETATM    6  C   LIG     1       0.874   1.400  -0.064  1.00  0.00     0.021 A 
HETATM    7  C   LIG     1       1.000  -1.396   0.108  1.00  0.00     0.020 A 
HETATM    8  C   LIG     1       2.124   0.759  -0.012  1.00  0.00    -0.032 A 
HETATM    9  C   LIG     1       2.171  -0.633   0.080  1.00  0.00     0.010 A 
ENDROOT
BRANCH   8  10
HETATM   10  C   LIG     1       3.399   1.564  -0.033  1.00  0.00     0.268 C 
BRANCH  10  11
HETATM   11  N   LIG     1       4.040   1.570   1.275  1.00  0.00    -0.075 N 
ATOM     12  HN3 LIG     1       3.404   1.895   2.003  1.00  0.00     0.274 HD
ATOM     13  HN2 LIG     1       4.200   0.623   1.618  1.00  0.00     0.274 HD
ATOM     14  HN1 LIG     1       4.902   2.114   1.261  1.00  0.00     0.274 HD
ENDBRANCH  10  11
ENDBRANCH   8  10
TORSDOF 2
