REMARK  1 active torsions:
REMARK  status: ('A' for Active; 'I' for Inactive)
REMARK    1  A    between atoms: N_1  and  C_4 
ROOT
HETATM    1  N   LIG     1      -2.113  -7.655  -0.430  1.00  0.00    -0.191 NA
HETATM    2  C   LIG     1      -1.813  -6.537  -0.340  1.00  0.00     0.099 C 
HETATM    3  C   LIG     1      -0.714  -2.440  -0.012  1.00  0.00     0.038 A 
HETATM    4  C   LIG     1       0.253  -3.452   0.097  1.00  0.00     0.031 A 
HETATM    5  C   LIG     1      -2.051  -2.808  -0.232  1.00  0.00     0.031 A 
HETATM    6  C   LIG     1      -1.442  -5.157  -0.230  1.00  0.00     0.044 A 
HETATM    7  C   LIG     1      -2.411  -4.157  -0.340  1.00  0.00     0.025 A 
HETATM    8  C   LIG     1      -0.111  -4.801  -0.010  1.00  0.00     0.025 A 
ENDROOT
BRANCH   3   9
HETATM    9  N   LIG     1      -0.344  -1.061   0.098  1.00  0.00    -0.333 N 
HETATM   10  C   LIG     1      -1.196   0.029   0.064  1.00  0.00     0.096 A 
HETATM   11  C   LIG     1      -0.465   1.189   0.202  1.00  0.00     0.019 A 
HETATM   12  C   LIG     1       0.886   0.817   0.325  1.00  0.00     0.019 A 
HETATM   13  C   LIG     1       0.936  -0.558   0.260  1.00  0.00     0.096 A 
ENDBRANCH   3   9
TORSDOF 1
