REMARK  2 active torsions:
REMARK  status: ('A' for Active; 'I' for Inactive)
REMARK    1  A    between atoms: N_1  and  C_3 
REMARK    2  A    between atoms: C_2  and  C_4 
ROOT
HETATM    1  C   LIG     1      -0.710  -2.427  -0.003  1.00  0.00     0.038 A 
HETATM    2  C   LIG     1      -1.480  -5.130  -0.262  1.00  0.00     0.041 A 
HETATM    3  C   LIG     1       0.197  -3.459   0.282  1.00  0.00     0.031 A 
HETATM    4  C   LIG     1      -2.007  -2.766  -0.421  1.00  0.00     0.031 A 
HETATM    5  C   LIG     1      -2.388  -4.108  -0.549  1.00  0.00     0.020 A 
HETATM    6  C   LIG     1      -0.187  -4.801   0.152  1.00  0.00     0.020 A 
ENDROOT
BRANCH   1   7
HETATM    7  N   LIG     1      -0.322  -1.055   0.133  1.00  0.00    -0.333 N 
HETATM    8  C   LIG     1      -1.111   0.056  -0.113  1.00  0.00     0.096 A 
HETATM    9  C   LIG     1      -0.384   1.201   0.132  1.00  0.00     0.019 A 
HETATM   10  C   LIG     1       0.899   0.797   0.543  1.00  0.00     0.019 A 
HETATM   11  C   LIG     1       0.914  -0.581   0.536  1.00  0.00     0.096 A 
ENDBRANCH   1   7
BRANCH   2  12
HETATM   12  C   LIG     1      -1.840  -6.564  -0.379  1.00  0.00     0.209 C 
HETATM   13  O   LIG     1      -1.101  -7.505  -0.157  1.00  0.00    -0.644 OA
HETATM   14  O   LIG     1      -3.114  -6.752  -0.767  1.00  0.00    -0.644 OA
ENDBRANCH   2  12
TORSDOF 2
