REMARK  2 active torsions:
REMARK  status: ('A' for Active; 'I' for Inactive)
REMARK    1  A    between atoms: C_3  and  C_7 
REMARK    2  A    between atoms: C_7  and  N_8 
ROOT
HETATM    1  N   LIG     1      -0.211  -1.168  -0.020  1.00  0.00    -0.340 N 
ATOM      2  HN  LIG     1      -0.450  -2.159  -0.044  1.00  0.00     0.167 HD
HETATM    3  C   LIG     1       1.046  -0.595   0.003  1.00  0.00     0.066 A 
HETATM    4  C   LIG     1       0.922   0.779   0.025  1.00  0.00     0.075 A 
HETATM    5  C   LIG     1      -1.030  -0.136  -0.003  1.00  0.00     0.120 A 
HETATM    6  O   LIG     1      -0.410   1.082   0.028  1.00  0.00    -0.301 OA
HETATM    7  C   LIG     1       1.864   1.910   0.028  1.00  0.00     0.079 C 
HETATM    8  C   LIG     1      -2.505  -0.121  -0.014  1.00  0.00     0.098 C 
ENDROOT
BRANCH   3   9
HETATM    9  C   LIG     1       2.271  -1.436  -0.019  1.00  0.00     0.288 C 
BRANCH   9  10
HETATM   10  N   LIG     1       2.679  -1.641  -1.408  1.00  0.00    -0.074 N 
ATOM     11  HN3 LIG     1       1.930  -2.030  -1.980  1.00  0.00     0.274 HD
ATOM     12  HN2 LIG     1       2.801  -0.762  -1.912  1.00  0.00     0.274 HD
ATOM     13  HN1 LIG     1       3.520  -2.218  -1.423  1.00  0.00     0.274 HD
ENDBRANCH   9  10
ENDBRANCH   3   9
TORSDOF 2
