REMARK  3 active torsions:
REMARK  status: ('A' for Active; 'I' for Inactive)
REMARK    1  A    between atoms: C_3  and  C_7 
REMARK    2  A    between atoms: C_4  and  C_8 
REMARK    3  A    between atoms: C_8  and  O_10 
ROOT
HETATM    1  N   UNK     1      -0.268  -1.003  -0.133  1.00  0.00    -0.336 N 
ATOM      2  HN  UNK     1      -0.504  -1.991  -0.225  1.00  0.00     0.168 HD
HETATM    3  C   UNK     1       0.932  -0.460  -0.007  1.00  0.00     0.158 A 
HETATM    4  C   UNK     1      -1.130   0.080  -0.111  1.00  0.00     0.064 A 
HETATM    5  O   UNK     1       0.914   0.907   0.091  1.00  0.00    -0.296 OA
HETATM    6  C   UNK     1      -0.405   1.244   0.025  1.00  0.00     0.076 A 
HETATM    7  C   UNK     1      -0.736   2.675   0.109  1.00  0.00     0.079 C 
ENDROOT
BRANCH   3   8
HETATM    8  C   UNK     1       2.250  -1.090   0.042  1.00  0.00     0.015 A 
HETATM    9  C   UNK     1       3.419  -0.320   0.167  1.00  0.00     0.016 A 
HETATM   10  C   UNK     1       4.676  -0.926   0.214  1.00  0.00     0.001 A 
HETATM   11  C   UNK     1       4.783  -2.311   0.136  1.00  0.00     0.000 A 
HETATM   12  C   UNK     1       3.635  -3.090   0.009  1.00  0.00     0.001 A 
HETATM   13  C   UNK     1       2.375  -2.483  -0.037  1.00  0.00     0.016 A 
ENDBRANCH   3   8
BRANCH   4  14
HETATM   14  C   UNK     1      -2.599  -0.104  -0.231  1.00  0.00     0.223 C 
BRANCH  14  15
HETATM   15  O   UNK     1      -3.017  -1.374   0.262  1.00  0.00    -0.395 OA
ATOM     16  HO  UNK     1      -3.957  -1.492   0.185  1.00  0.00     0.209 HD
ENDBRANCH  14  15
ENDBRANCH   4  14
TORSDOF 3
