REMARK  3 active torsions:
REMARK  status: ('A' for Active; 'I' for Inactive)
REMARK    1  A    between atoms: C_3  and  C_7 
REMARK    2  A    between atoms: C_4  and  C_8 
REMARK    3  A    between atoms: C_8  and  N_9 
ROOT
HETATM    1  N   LIG     1      -0.187  -0.909  -0.057  1.00  0.00    -0.336 N 
ATOM      2  HN  LIG     1      -0.391  -1.907  -0.103  1.00  0.00     0.168 HD
HETATM    3  C   LIG     1       0.996  -0.326   0.023  1.00  0.00     0.158 A 
HETATM    4  C   LIG     1      -1.084   0.142  -0.064  1.00  0.00     0.066 A 
HETATM    5  O   LIG     1       0.940   1.043   0.075  1.00  0.00    -0.296 OA
HETATM    6  C   LIG     1      -0.394   1.332   0.024  1.00  0.00     0.075 A 
HETATM    7  C   LIG     1      -0.783   2.751   0.081  1.00  0.00     0.079 C 
ENDROOT
BRANCH   3   8
HETATM    8  C   LIG     1       2.326  -0.930   0.053  1.00  0.00     0.015 A 
HETATM    9  C   LIG     1       3.492  -0.151   0.122  1.00  0.00     0.016 A 
HETATM   10  C   LIG     1       4.754  -0.753   0.145  1.00  0.00     0.001 A 
HETATM   11  C   LIG     1       4.866  -2.141   0.099  1.00  0.00     0.000 A 
HETATM   12  C   LIG     1       3.718  -2.928   0.031  1.00  0.00     0.001 A 
HETATM   13  C   LIG     1       2.457  -2.326   0.008  1.00  0.00     0.016 A 
ENDBRANCH   3   8
BRANCH   4  14
HETATM   14  C   LIG     1      -2.548  -0.097  -0.146  1.00  0.00     0.288 C 
BRANCH  14  15
HETATM   15  N   LIG     1      -3.083  -0.223   1.207  1.00  0.00    -0.074 N 
ATOM     16  HN3 LIG     1      -2.602  -0.939   1.751  1.00  0.00     0.274 HD
ATOM     17  HN2 LIG     1      -2.852   0.579   1.793  1.00  0.00     0.274 HD
ATOM     18  HN1 LIG     1      -4.088  -0.387   1.151  1.00  0.00     0.274 HD
ENDBRANCH  14  15
ENDBRANCH   4  14
TORSDOF 3
