REMARK  1 active torsions:
REMARK  status: ('A' for Active; 'I' for Inactive)
REMARK    1  A    between atoms: C_2  and  C_4 
ROOT
HETATM    1  C   LIG     1      -0.450   0.432  -0.064  1.00  0.00     0.093 A 
HETATM    2  C   LIG     1       0.502   1.437   0.034  1.00  0.00     0.074 A 
HETATM    3  O   LIG     1      -1.800   0.609  -0.228  1.00  0.00    -0.339 OA
HETATM    4  C   LIG     1      -0.084  -0.909  -0.044  1.00  0.00    -0.021 A 
HETATM    5  C   LIG     1      -2.394  -0.709  -0.074  1.00  0.00     0.064 C 
HETATM    6  C   LIG     1      -1.281  -1.766  -0.221  1.00  0.00     0.079 C 
HETATM    7  C   LIG     1       1.850   1.054   0.142  1.00  0.00     0.021 A 
HETATM    8  C   LIG     1       1.242  -1.296   0.066  1.00  0.00     0.010 A 
HETATM    9  C   LIG     1       2.215  -0.302   0.162  1.00  0.00     0.002 A 
HETATM   10  C   LIG     1      -3.455  -0.867  -1.163  1.00  0.00     0.046 C 
HETATM   11  C   LIG     1      -3.054  -0.766   1.310  1.00  0.00     0.046 C 
ENDROOT
BRANCH   2  12
HETATM   12  C   LIG     1       0.196   2.883   0.021  1.00  0.00     0.212 C 
HETATM   13  O   LIG     1       1.003   3.765  -0.216  1.00  0.00    -0.644 OA
HETATM   14  O   LIG     1      -1.064   3.179   0.376  1.00  0.00    -0.644 OA
ENDBRANCH   2  12
TORSDOF 1
