REMARK  2 active torsions:
REMARK  status: ('A' for Active; 'I' for Inactive)
REMARK    1  A    between atoms: C_5  and  C_8 
REMARK    2  A    between atoms: C_8  and  O_9 
ROOT
HETATM    1  C   LIG     1      -0.412   0.411  -0.076  1.00  0.00     0.084 A 
HETATM    2  O   LIG     1      -1.759   0.624  -0.226  1.00  0.00    -0.340 OA
HETATM    3  C   LIG     1      -0.066  -0.931  -0.053  1.00  0.00    -0.021 A 
HETATM    4  C   LIG     1      -2.371  -0.690  -0.091  1.00  0.00     0.064 C 
HETATM    5  C   LIG     1       0.534   1.418   0.037  1.00  0.00    -0.001 A 
HETATM    6  C   LIG     1      -1.274  -1.766  -0.248  1.00  0.00     0.079 C 
HETATM    7  C   LIG     1       1.254  -1.328   0.079  1.00  0.00     0.010 A 
HETATM    8  C   LIG     1       1.875   1.021   0.173  1.00  0.00     0.012 A 
HETATM    9  C   LIG     1      -3.432  -0.819  -1.185  1.00  0.00     0.046 C 
HETATM   10  C   LIG     1      -3.035  -0.755   1.290  1.00  0.00     0.046 C 
HETATM   11  C   LIG     1       2.230  -0.338   0.198  1.00  0.00     0.001 A 
ENDROOT
BRANCH   5  12
HETATM   12  C   LIG     1       0.164   2.871  -0.008  1.00  0.00     0.205 C 
BRANCH  12  13
HETATM   13  O   LIG     1       0.662   3.547   1.144  1.00  0.00    -0.396 OA
ATOM     14  HO  LIG     1       0.428   4.467   1.116  1.00  0.00     0.209 HD
ENDBRANCH  12  13
ENDBRANCH   5  12
TORSDOF 2
