REMARK  1 active torsions:
REMARK  status: ('A' for Active; 'I' for Inactive)
REMARK    1  A    between atoms: C_1  and  C_4 
ROOT
HETATM    1  O   LIG     1      -1.497  -1.459   1.525  1.00  0.00    -0.391 OA
HETATM    2  C   LIG     1       0.334  -0.850  -0.618  1.00  0.00     0.091 C 
HETATM    3  C   LIG     1      -1.526  -0.159   0.939  1.00  0.00     0.168 C 
HETATM    4  C   LIG     1      -0.175  -1.994   1.583  1.00  0.00     0.168 C 
HETATM    5  C   LIG     1      -1.057  -0.220  -0.509  1.00  0.00     0.041 C 
HETATM    6  C   LIG     1       0.399  -2.157   0.180  1.00  0.00     0.041 C 
ENDROOT
BRANCH   2   7
HETATM    7  C   LIG     1       1.411   0.119  -0.174  1.00  0.00     0.177 C 
HETATM    8  O   LIG     1       2.210  -0.032   0.734  1.00  0.00    -0.648 OA
HETATM    9  O   LIG     1       1.451   1.231  -0.934  1.00  0.00    -0.648 OA
ENDBRANCH   2   7
TORSDOF 1
