REMARK  3 active torsions:
REMARK  status: ('A' for Active; 'I' for Inactive)
REMARK    1  A    between atoms: C_3  and  C_7 
REMARK    2  A    between atoms: C_5  and  C_8 
REMARK    3  A    between atoms: C_8  and  O_10 
ROOT
HETATM    1  N   LIG     1       0.400  -0.596  -0.070  1.00  0.00    -0.353 N 
ATOM      2  HN  LIG     1       0.466  -1.611  -0.148  1.00  0.00     0.166 HD
HETATM    3  C   LIG     1       1.439   0.217  -0.022  1.00  0.00     0.085 A 
HETATM    4  S   LIG     1       1.013   1.884   0.107  1.00  0.00    -0.072 SA
HETATM    5  C   LIG     1      -0.649   1.480   0.099  1.00  0.00     0.030 A 
HETATM    6  C   LIG     1      -0.793   0.107   0.000  1.00  0.00     0.021 A 
HETATM    7  C   LIG     1      -2.071  -0.652  -0.046  1.00  0.00     0.069 C 
ENDROOT
BRANCH   3   8
HETATM    8  C   LIG     1       2.846  -0.234  -0.077  1.00  0.00    -0.002 A 
HETATM    9  C   LIG     1       3.945   0.641  -0.025  1.00  0.00     0.014 A 
HETATM   10  C   LIG     1       5.257   0.158  -0.082  1.00  0.00     0.001 A 
HETATM   11  C   LIG     1       5.496  -1.208  -0.191  1.00  0.00     0.000 A 
HETATM   12  C   LIG     1       4.425  -2.094  -0.244  1.00  0.00     0.001 A 
HETATM   13  C   LIG     1       3.114  -1.610  -0.187  1.00  0.00     0.014 A 
ENDBRANCH   3   8
BRANCH   5  14
HETATM   14  C   LIG     1      -1.690   2.537   0.199  1.00  0.00     0.212 C 
BRANCH  14  15
HETATM   15  O   LIG     1      -2.492   2.468  -0.973  1.00  0.00    -0.396 OA
ATOM     16  HO  LIG     1      -3.157   3.143  -0.909  1.00  0.00     0.209 HD
ENDBRANCH  14  15
ENDBRANCH   5  14
TORSDOF 3
