REMARK  3 active torsions:
REMARK  status: ('A' for Active; 'I' for Inactive)
REMARK    1  A    between atoms: C_3  and  C_7 
REMARK    2  A    between atoms: C_5  and  C_8 
REMARK    3  A    between atoms: C_8  and  N_9 
ROOT
HETATM    1  N   LIG     1       0.054  -0.876  -0.022  1.00  0.00    -0.353 N 
ATOM      2  HN  LIG     1      -0.130  -1.878  -0.078  1.00  0.00     0.166 HD
HETATM    3  C   LIG     1       1.259  -0.342   0.044  1.00  0.00     0.085 A 
HETATM    4  S   LIG     1       1.256   1.379   0.149  1.00  0.00    -0.072 SA
HETATM    5  C   LIG     1      -0.456   1.398   0.090  1.00  0.00     0.032 A 
HETATM    6  C   LIG     1      -0.931   0.102  -0.006  1.00  0.00     0.021 A 
HETATM    7  C   LIG     1      -2.352  -0.324  -0.091  1.00  0.00     0.069 C 
ENDROOT
BRANCH   3   8
HETATM    8  C   LIG     1       2.516  -1.122   0.022  1.00  0.00    -0.002 A 
HETATM    9  C   LIG     1       3.791  -0.535   0.106  1.00  0.00     0.014 A 
HETATM   10  C   LIG     1       4.952  -1.316   0.064  1.00  0.00     0.001 A 
HETATM   11  C   LIG     1       4.860  -2.698  -0.060  1.00  0.00     0.000 A 
HETATM   12  C   LIG     1       3.610  -3.304  -0.138  1.00  0.00     0.001 A 
HETATM   13  C   LIG     1       2.450  -2.521  -0.096  1.00  0.00     0.014 A 
ENDBRANCH   3   8
BRANCH   5  14
HETATM   14  C   LIG     1      -1.198   2.696   0.150  1.00  0.00     0.279 C 
BRANCH  14  15
HETATM   15  N   LIG     1      -1.406   3.228  -1.197  1.00  0.00    -0.075 N 
HETATM   16  C   LIG     1      -2.009   4.552  -1.144  1.00  0.00     0.267 C 
ATOM     17  HN2 LIG     1      -0.542   3.228  -1.740  1.00  0.00     0.277 HD
ATOM     18  HN1 LIG     1      -1.951   2.588  -1.775  1.00  0.00     0.277 HD
ENDBRANCH  14  15
ENDBRANCH   5  14
TORSDOF 3
