REMARK  2 active torsions:
REMARK  status: ('A' for Active; 'I' for Inactive)
REMARK    1  A    between atoms: C_6  and  C_9 
REMARK    2  A    between atoms: C_9  and  O_10 
ROOT
HETATM    1  N   LIG     1      -1.224   1.563   0.319  1.00  0.00    -0.380 N 
HETATM    2  O   LIG     1      -1.182  -1.335  -0.012  1.00  0.00    -0.340 OA
HETATM    3  C   LIG     1      -0.021   0.833   0.192  1.00  0.00     0.063 A 
HETATM    4  C   LIG     1      -0.034  -0.574   0.036  1.00  0.00     0.096 A 
HETATM    5  C   LIG     1      -2.376   0.797  -0.175  1.00  0.00     0.157 C 
HETATM    6  C   LIG     1      -2.359  -0.622   0.398  1.00  0.00     0.170 C 
HETATM    7  C   LIG     1      -1.212   2.980  -0.032  1.00  0.00     0.150 C 
HETATM    8  C   LIG     1       1.150  -1.307  -0.099  1.00  0.00     0.039 A 
HETATM    9  C   LIG     1       1.239   1.449   0.269  1.00  0.00     0.032 A 
HETATM   10  C   LIG     1       2.381  -0.662  -0.047  1.00  0.00     0.003 A 
HETATM   11  C   LIG     1       2.425   0.715   0.145  1.00  0.00     0.002 A 
ENDROOT
BRANCH   6  12
HETATM   12  C   LIG     1      -2.515  -0.688   1.924  1.00  0.00     0.198 C 
BRANCH  12  13
HETATM   13  O   LIG     1      -3.665   0.023   2.376  1.00  0.00    -0.398 OA
ATOM     14  HO  LIG     1      -3.762  -0.018   3.320  1.00  0.00     0.209 HD
ENDBRANCH  12  13
ENDBRANCH   6  12
TORSDOF 2
