REMARK  2 active torsions:
REMARK  status: ('A' for Active; 'I' for Inactive)
REMARK    1  A    between atoms: C_6  and  C_11 
REMARK    2  A    between atoms: O_8  and  C_11 
ROOT
HETATM    1  O   LIG     1      -1.168   1.333  -0.094  1.00  0.00    -0.340 OA
HETATM    2  N   LIG     1      -1.101  -1.557   0.367  1.00  0.00    -0.385 N 
ATOM      3  HN  LIG     1      -1.095  -2.577   0.360  1.00  0.00     0.159 HD
HETATM    4  C   LIG     1       0.005   0.623   0.007  1.00  0.00     0.095 A 
HETATM    5  C   LIG     1       0.055  -0.768   0.202  1.00  0.00     0.061 A 
HETATM    6  C   LIG     1      -2.320   0.504  -0.328  1.00  0.00     0.170 C 
HETATM    7  C   LIG     1      -2.312  -0.753   0.550  1.00  0.00     0.154 C 
HETATM    8  C   LIG     1       1.179   1.368  -0.116  1.00  0.00     0.039 A 
HETATM    9  C   LIG     1       1.304  -1.397   0.220  1.00  0.00     0.032 A 
HETATM   10  C   LIG     1       2.417   0.728  -0.079  1.00  0.00     0.003 A 
HETATM   11  C   LIG     1       2.479  -0.655   0.082  1.00  0.00     0.002 A 
ENDROOT
BRANCH   6  12
HETATM   12  C   LIG     1      -2.474   0.214  -1.826  1.00  0.00     0.198 C 
BRANCH  12  13
HETATM   13  O   LIG     1      -3.696  -0.469  -2.092  1.00  0.00    -0.398 OA
ATOM     14  HO  LIG     1      -3.791  -0.649  -3.020  1.00  0.00     0.209 HD
ENDBRANCH  12  13
ENDBRANCH   6  12
TORSDOF 2
