REMARK  3 active torsions:
REMARK  status: ('A' for Active; 'I' for Inactive)
REMARK    1  A    between atoms: C_1  and  C_7 
REMARK    2  A    between atoms: C_6  and  C_12 
REMARK    3  A    between atoms: N_8  and  C_12 
ROOT
HETATM    1  C   LIG     1      -0.460  -1.080   0.010  1.00  0.00     0.111 A 
HETATM    2  N   LIG     1       0.923   0.697   0.051  1.00  0.00    -0.263 N 
ATOM      3  HN  LIG     1       1.769   1.267   0.072  1.00  0.00     0.194 HD
HETATM    4  C   LIG     1      -1.252   0.044  -0.002  1.00  0.00     0.069 A 
HETATM    5  O   LIG     1       0.846  -0.684   0.044  1.00  0.00    -0.237 OA
HETATM    6  C   LIG     1      -0.344   1.130   0.025  1.00  0.00     0.060 A 
ENDROOT
BRANCH   1   7
HETATM    7  C   LIG     1      -0.708  -2.519  -0.007  1.00  0.00    -0.000 A 
HETATM    8  C   LIG     1       0.348  -3.443   0.017  1.00  0.00     0.014 A 
HETATM    9  C   LIG     1       0.101  -4.819  -0.003  1.00  0.00     0.001 A 
HETATM   10  C   LIG     1      -1.207  -5.293  -0.047  1.00  0.00     0.000 A 
HETATM   11  C   LIG     1      -2.268  -4.392  -0.070  1.00  0.00     0.001 A 
HETATM   12  C   LIG     1      -2.021  -3.015  -0.050  1.00  0.00     0.014 A 
ENDBRANCH   1   7
BRANCH   6  13
HETATM   13  C   LIG     1      -0.647   2.589   0.035  1.00  0.00     0.288 C 
BRANCH  13  14
HETATM   14  N   LIG     1      -1.399   2.947  -1.170  1.00  0.00    -0.074 N 
ATOM     15  HN3 LIG     1      -0.917   2.661  -2.022  1.00  0.00     0.274 HD
ATOM     16  HN2 LIG     1      -2.241   2.381  -1.279  1.00  0.00     0.274 HD
ATOM     17  HN1 LIG     1      -1.606   3.946  -1.163  1.00  0.00     0.274 HD
ENDBRANCH  13  14
ENDBRANCH   6  13
TORSDOF 3
