REMARK  2 active torsions:
REMARK  status: ('A' for Active; 'I' for Inactive)
REMARK    1  A    between atoms: CA_5  and  C_11 
REMARK    2  A    between atoms: C_11  and  O_12 
ROOT
HETATM    1  N   LIG     1      -1.641  -0.983   0.279  1.00  0.00    -0.343 N 
ATOM      2  HN  LIG     1      -1.998  -1.920   0.468  1.00  0.00     0.167 HD
HETATM    3  N   LIG     1      -0.269   0.748  -0.078  1.00  0.00    -0.317 N 
HETATM    4  C   LIG     1      -0.381  -0.615   0.177  1.00  0.00     0.111 A 
HETATM    5  CA  LIG     1      -2.378   0.169   0.076  1.00  0.00     0.050 A 
HETATM    6  C   LIG     1      -1.545   1.246  -0.146  1.00  0.00     0.125 A 
HETATM    7  C   LIG     1       0.950   1.407  -0.224  1.00  0.00     0.098 A 
HETATM    8  C   LIG     1       0.830  -1.356   0.286  1.00  0.00     0.049 A 
HETATM    9  C   LIG     1       2.091   0.703  -0.118  1.00  0.00     0.018 A 
HETATM   10  C   LIG     1       2.015  -0.727   0.145  1.00  0.00     0.005 A 
ENDROOT
BRANCH   5  11
HETATM   11  C   LIG     1      -3.865   0.114   0.134  1.00  0.00     0.222 C 
BRANCH  11  12
HETATM   12  O   LIG     1      -4.309  -0.855   1.081  1.00  0.00    -0.395 OA
ATOM     13  HO  LIG     1      -5.258  -0.890   1.118  1.00  0.00     0.209 HD
ENDBRANCH  11  12
ENDBRANCH   5  11
TORSDOF 2
