REMARK  1 active torsions:
REMARK  status: ('A' for Active; 'I' for Inactive)
REMARK    1  A    between atoms: C_1  and  C_2 
REMARK       I    between atoms: C_1  and  N_10 
ROOT
HETATM    1  C   LIG     1       0.458   1.004  -0.869  1.00  0.00     0.032 A 
HETATM    2  C   LIG     1      -0.498   0.668  -1.838  1.00  0.00     0.027 A 
HETATM    3  C   LIG     1      -1.123   1.671  -2.597  1.00  0.00    -0.024 A 
HETATM    4  C   LIG     1      -0.763   3.008  -2.391  1.00  0.00     0.075 A 
HETATM    5  O   LIG     1      -1.305   4.055  -3.088  1.00  0.00    -0.351 OA
HETATM    6  C   LIG     1       0.772   2.348  -0.644  1.00  0.00     0.020 A 
HETATM    7  C   LIG     1       0.164   3.347  -1.406  1.00  0.00     0.038 A 
HETATM    8  C   LIG     1      -2.148   1.304  -3.632  1.00  0.00     0.043 C 
HETATM    9  C   LIG     1      -1.986   3.684  -4.290  1.00  0.00     0.176 C 
HETATM   10  C   LIG     1      -2.945   2.528  -4.061  1.00  0.00     0.031 C 
ENDROOT
BRANCH   1  11
HETATM   11  C   LIG     1       1.148  -0.025  -0.046  1.00  0.00     0.249 C 
HETATM   12  O   LIG     1       1.647   0.245   1.039  1.00  0.00    -0.268 OA
HETATM   13  N   LIG     1       1.249  -1.285  -0.567  1.00  0.00    -0.366 N 
ATOM     14  HN2 LIG     1       0.833  -1.510  -1.471  1.00  0.00     0.159 HD
ATOM     15  HN1 LIG     1       1.722  -1.991  -0.003  1.00  0.00     0.159 HD
ENDBRANCH   1  11
TORSDOF 1
