REMARK  2 active torsions:
REMARK  status: ('A' for Active; 'I' for Inactive)
REMARK    1  A    between atoms: C_6  and  C_12 
REMARK    2  A    between atoms: N_8  and  C_12 
ROOT
HETATM    1  C   LIG     1      -0.297  -0.589  -0.078  1.00  0.00    -0.024 A 
HETATM    2  C   LIG     1      -0.388   0.804  -0.166  1.00  0.00     0.075 A 
HETATM    3  O   LIG     1      -1.574   1.488  -0.189  1.00  0.00    -0.351 OA
HETATM    4  C   LIG     1       0.970  -1.191  -0.059  1.00  0.00     0.018 A 
HETATM    5  C   LIG     1       0.768   1.582  -0.194  1.00  0.00     0.038 A 
HETATM    6  C   LIG     1       2.141  -0.417  -0.091  1.00  0.00    -0.032 A 
HETATM    7  C   LIG     1       2.026   0.978  -0.158  1.00  0.00     0.011 A 
HETATM    8  C   LIG     1      -1.534  -1.439  -0.025  1.00  0.00     0.043 C 
HETATM    9  C   LIG     1      -2.724   0.684  -0.467  1.00  0.00     0.176 C 
HETATM   10  C   LIG     1      -2.742  -0.595   0.353  1.00  0.00     0.031 C 
ENDROOT
BRANCH   6  11
HETATM   11  C   LIG     1       3.498  -1.080  -0.056  1.00  0.00     0.270 C 
BRANCH  11  12
HETATM   12  N   LIG     1       3.681  -1.841   1.181  1.00  0.00    -0.075 N 
HETATM   13  C   LIG     1       4.993  -2.467   1.225  1.00  0.00     0.267 C 
ATOM     14  HN2 LIG     1       3.514  -1.263   2.005  1.00  0.00     0.277 HD
ATOM     15  HN1 LIG     1       2.935  -2.524   1.315  1.00  0.00     0.277 HD
ENDBRANCH  11  12
ENDBRANCH   6  11
TORSDOF 2
