REMARK  2 active torsions:
REMARK  status: ('A' for Active; 'I' for Inactive)
REMARK    1  A    between atoms: C_6  and  C_13 
REMARK    2  A    between atoms: N_8  and  C_13 
ROOT
HETATM    1  C   LIG     1      -0.047  -0.760  -0.006  1.00  0.00    -0.024 A 
HETATM    2  C   LIG     1      -0.044   0.638  -0.056  1.00  0.00     0.075 A 
HETATM    3  O   LIG     1      -1.183   1.399  -0.048  1.00  0.00    -0.351 OA
HETATM    4  C   LIG     1       1.176  -1.449  -0.022  1.00  0.00     0.018 A 
HETATM    5  C   LIG     1       1.160   1.338  -0.080  1.00  0.00     0.038 A 
HETATM    6  C   LIG     1       2.394  -0.754  -0.055  1.00  0.00    -0.032 A 
HETATM    7  C   LIG     1       2.373   0.648  -0.083  1.00  0.00     0.011 A 
HETATM    8  C   LIG     1      -1.338  -1.525   0.033  1.00  0.00     0.043 C 
HETATM    9  C   LIG     1      -2.381   0.683  -0.360  1.00  0.00     0.176 C 
HETATM   10  C   LIG     1      -2.490  -0.613   0.427  1.00  0.00     0.031 C 
ENDROOT
BRANCH   6  11
HETATM   11  C   LIG     1       3.707  -1.495  -0.062  1.00  0.00     0.268 C 
BRANCH  11  12
HETATM   12  N   LIG     1       4.411  -1.318  -1.326  1.00  0.00    -0.075 N 
ATOM     13  HN3 LIG     1       3.828  -1.584  -2.119  1.00  0.00     0.274 HD
ATOM     14  HN2 LIG     1       4.538  -0.331  -1.548  1.00  0.00     0.274 HD
ATOM     15  HN1 LIG     1       5.299  -1.819  -1.331  1.00  0.00     0.274 HD
ENDBRANCH  11  12
ENDBRANCH   6  11
TORSDOF 2
