REMARK  2 active torsions:
REMARK  status: ('A' for Active; 'I' for Inactive)
REMARK    1  A    between atoms: C_6  and  C_11 
REMARK    2  A    between atoms: C_11  and  O_12 
ROOT
HETATM    1  N   LIG     1      -0.305   0.694  -0.055  1.00  0.00    -0.317 N 
HETATM    2  C   LIG     1      -0.327  -0.690   0.071  1.00  0.00     0.111 A 
HETATM    3  C   LIG     1       0.865   1.450  -0.089  1.00  0.00     0.107 A 
HETATM    4  N   LIG     1      -1.559  -1.152   0.078  1.00  0.00    -0.351 N 
ATOM      5  HN  LIG     1      -1.854  -2.125   0.159  1.00  0.00     0.166 HD
HETATM    6  C   LIG     1       2.060   0.831   0.004  1.00  0.00    -0.019 A 
HETATM    7  C   LIG     1       0.930  -1.350   0.167  1.00  0.00     0.050 A 
HETATM    8  C   LIG     1       2.068  -0.630   0.134  1.00  0.00     0.014 A 
HETATM    9  C   LIG     1      -2.362  -0.047  -0.047  1.00  0.00     0.107 A 
HETATM   10  C   LIG     1      -1.611   1.104  -0.131  1.00  0.00     0.115 A 
ENDROOT
BRANCH   6  11
HETATM   11  C   LIG     1       3.377   1.549  -0.032  1.00  0.00     0.204 C 
BRANCH  11  12
HETATM   12  O   LIG     1       4.089   1.320   1.176  1.00  0.00    -0.396 OA
ATOM     13  HO  LIG     1       4.923   1.775   1.153  1.00  0.00     0.209 HD
ENDBRANCH  11  12
ENDBRANCH   6  11
TORSDOF 2
