REMARK  2 active torsions:
REMARK  status: ('A' for Active; 'I' for Inactive)
REMARK    1  A    between atoms: C_6  and  C_14 
REMARK    2  A    between atoms: N_11  and  C_14 
ROOT
HETATM    1  N   LIG     1      -0.592   0.627   0.021  1.00  0.00    -0.317 N 
HETATM    2  C   LIG     1      -0.788  -0.747   0.103  1.00  0.00     0.111 A 
HETATM    3  C   LIG     1       0.662   1.231  -0.011  1.00  0.00     0.106 A 
HETATM    4  N   LIG     1      -2.069  -1.051   0.112  1.00  0.00    -0.351 N 
ATOM      5  HN  LIG     1      -2.484  -1.981   0.164  1.00  0.00     0.166 HD
HETATM    6  C   LIG     1       1.772   0.465   0.046  1.00  0.00    -0.017 A 
HETATM    7  C   LIG     1       0.376  -1.562   0.163  1.00  0.00     0.050 A 
HETATM    8  C   LIG     1       1.595  -0.989   0.134  1.00  0.00     0.014 A 
HETATM    9  C   LIG     1      -2.726   0.151   0.037  1.00  0.00     0.107 A 
HETATM   10  C   LIG     1      -1.838   1.200  -0.020  1.00  0.00     0.115 A 
ENDROOT
BRANCH   6  11
HETATM   11  C   LIG     1       3.172   1.024  -0.001  1.00  0.00     0.271 C 
BRANCH  11  12
HETATM   12  N   LIG     1       3.922   0.673   1.205  1.00  0.00    -0.075 N 
HETATM   13  C   LIG     1       5.273   1.213   1.158  1.00  0.00     0.267 C 
ATOM     14  HN2 LIG     1       3.431   0.963   2.050  1.00  0.00     0.277 HD
ATOM     15  HN1 LIG     1       3.926  -0.334   1.365  1.00  0.00     0.277 HD
ENDBRANCH  11  12
ENDBRANCH   6  11
TORSDOF 2
