REMARK  3 active torsions:
REMARK  status: ('A' for Active; 'I' for Inactive)
REMARK    1  A    between atoms: N_1  and  C_2 
REMARK    2  A    between atoms: N_7  and  C_13 
REMARK    3  A    between atoms: C_10  and  C_13 
ROOT
HETATM    1  C   LIG     1       1.221   2.120  -0.785  1.00  0.00     0.030 A 
HETATM    2  C   LIG     1       0.363   3.232  -0.710  1.00  0.00     0.030 A 
HETATM    3  C   LIG     1       2.236   2.204  -1.751  1.00  0.00     0.030 A 
HETATM    4  C   LIG     1       0.481   4.333  -1.573  1.00  0.00     0.011 A 
HETATM    5  C   LIG     1       2.363   3.298  -2.621  1.00  0.00     0.011 A 
HETATM    6  C   LIG     1       1.480   4.374  -2.549  1.00  0.00    -0.033 A 
ENDROOT
BRANCH   1   7
HETATM    7  N   LIG     1       1.087   1.035   0.091  1.00  0.00    -0.381 N 
HETATM    8  C   LIG     1       2.046  -0.082   0.043  1.00  0.00     0.123 C 
HETATM    9  C   LIG     1       1.626  -1.096  -1.025  1.00  0.00     0.020 C 
HETATM   10  C   LIG     1       0.189  -1.571  -0.804  1.00  0.00     0.003 C 
HETATM   11  C   LIG     1      -0.776  -0.396  -0.631  1.00  0.00     0.020 C 
HETATM   12  C   LIG     1      -0.272   0.578   0.437  1.00  0.00     0.123 C 
ENDBRANCH   1   7
BRANCH   6  13
HETATM   13  C   LIG     1       1.627   5.561  -3.470  1.00  0.00     0.270 C 
BRANCH  13  14
HETATM   14  N   LIG     1       0.429   5.757  -4.287  1.00  0.00    -0.075 N 
HETATM   15  C   LIG     1       0.594   6.882  -5.194  1.00  0.00     0.267 C 
ATOM     16  HN2 LIG     1       0.171   4.906  -4.787  1.00  0.00     0.277 HD
ATOM     17  HN1 LIG     1      -0.407   5.858  -3.711  1.00  0.00     0.277 HD
ENDBRANCH  13  14
ENDBRANCH   6  13
TORSDOF 3
