REMARK  1 active torsions:
REMARK  status: ('A' for Active; 'I' for Inactive)
REMARK    1  A    between atoms: N_1  and  C_3 
ROOT
HETATM    1  N   LIG     1       0.434   6.889  -1.794  1.00  0.00    -0.191 NA
HETATM    2  C   LIG     1       1.229   2.168  -0.915  1.00  0.00     0.031 A 
HETATM    3  C   LIG     1       0.783   5.783  -1.841  1.00  0.00     0.099 C 
HETATM    4  C   LIG     1       0.836   3.518  -0.895  1.00  0.00     0.052 A 
HETATM    5  C   LIG     1       1.210   4.417  -1.905  1.00  0.00     0.046 A 
HETATM    6  C   LIG     1       2.049   1.769  -1.981  1.00  0.00     0.029 A 
HETATM    7  C   LIG     1       2.427   2.656  -2.998  1.00  0.00     0.004 A 
HETATM    8  C   LIG     1       2.004   3.980  -2.963  1.00  0.00     0.023 A 
ENDROOT
BRANCH   2   9
HETATM    9  N   LIG     1       0.845   1.317   0.122  1.00  0.00    -0.377 N 
HETATM   10  C   LIG     1       1.477  -0.009   0.297  1.00  0.00     0.149 C 
HETATM   11  C   LIG     1       0.706  -1.095  -0.472  1.00  0.00     0.187 C 
HETATM   12  O   LIG     1      -0.681  -1.125  -0.094  1.00  0.00    -0.388 OA
HETATM   13  C   LIG     1      -1.296   0.152  -0.335  1.00  0.00     0.187 C 
HETATM   14  C   LIG     1      -0.599   1.271   0.460  1.00  0.00     0.149 C 
ENDBRANCH   2   9
TORSDOF 1
