REMARK  3 active torsions:
REMARK  status: ('A' for Active; 'I' for Inactive)
REMARK    1  A    between atoms: N_1  and  C_2 
REMARK    2  A    between atoms: C_5  and  C_14 
REMARK    3  A    between atoms: O_9  and  C_14 
ROOT
HETATM    1  C   LIG     1       1.140   2.259  -0.921  1.00  0.00     0.030 A 
HETATM    2  C   LIG     1       0.778   3.590  -0.646  1.00  0.00     0.038 A 
HETATM    3  C   LIG     1       1.091   4.650  -1.515  1.00  0.00    -0.033 A 
HETATM    4  C   LIG     1       1.851   2.028  -2.104  1.00  0.00     0.029 A 
HETATM    5  C   LIG     1       2.169   3.069  -2.984  1.00  0.00     0.003 A 
HETATM    6  C   LIG     1       1.795   4.377  -2.688  1.00  0.00     0.009 A 
ENDROOT
BRANCH   1   7
HETATM    7  N   LIG     1       0.825   1.261  -0.000  1.00  0.00    -0.377 N 
HETATM    8  C   LIG     1       1.543  -0.029   0.003  1.00  0.00     0.149 C 
HETATM    9  C   LIG     1       0.809  -1.086  -0.839  1.00  0.00     0.187 C 
HETATM   10  O   LIG     1      -0.560  -1.234  -0.427  1.00  0.00    -0.388 OA
HETATM   11  C   LIG     1      -1.253   0.021  -0.544  1.00  0.00     0.187 C 
HETATM   12  C   LIG     1      -0.608   1.102   0.340  1.00  0.00     0.149 C 
ENDBRANCH   1   7
BRANCH   3  13
HETATM   13  C   LIG     1       0.734   6.064  -1.147  1.00  0.00     0.203 C 
BRANCH  13  14
HETATM   14  O   LIG     1       1.753   6.645  -0.345  1.00  0.00    -0.396 OA
ATOM     15  HO  LIG     1       1.528   7.538  -0.113  1.00  0.00     0.209 HD
ENDBRANCH  13  14
ENDBRANCH   3  13
TORSDOF 3
