REMARK  1 active torsions:
REMARK  status: ('A' for Active; 'I' for Inactive)
REMARK    1  A    between atoms: C_1  and  C_3 
ROOT
HETATM    1  C   LIG     1      -0.801  -2.455  -0.042  1.00  0.00    -0.002 A 
HETATM    2  C   LIG     1       0.193  -3.430   0.112  1.00  0.00     0.016 A 
HETATM    3  C   LIG     1      -2.116  -2.889  -0.262  1.00  0.00     0.016 A 
HETATM    4  C   LIG     1      -1.417  -5.216  -0.253  1.00  0.00     0.046 A 
HETATM    5  N   LIG     1      -1.743  -6.576  -0.212  1.00  0.00    -0.102 NA
HETATM    6  C   LIG     1      -0.117  -4.794   0.029  1.00  0.00     0.027 A 
HETATM    7  C   LIG     1      -2.421  -4.253  -0.343  1.00  0.00     0.027 A 
ENDROOT
BRANCH   1   8
HETATM    8  C   LIG     1      -0.473  -1.034   0.044  1.00  0.00     0.085 A 
HETATM    9  O   LIG     1      -1.514  -0.157  -0.104  1.00  0.00    -0.322 OA
HETATM   10  C   LIG     1      -1.010   1.098   0.007  1.00  0.00     0.142 A 
HETATM   11  C   LIG     1       0.345   1.054   0.224  1.00  0.00     0.027 A 
HETATM   12  C   LIG     1       0.693  -0.319   0.249  1.00  0.00     0.040 A 
ENDBRANCH   1   8
TORSDOF 1
