REMARK  3 active torsions:
REMARK  status: ('A' for Active; 'I' for Inactive)
REMARK    1  A    between atoms: N_1  and  C_2 
REMARK    2  A    between atoms: C_4  and  C_13 
REMARK    3  A    between atoms: N_5  and  C_13 
ROOT
HETATM    1  C   LIG     1       1.212   2.213  -1.067  1.00  0.00     0.030 A 
HETATM    2  C   LIG     1       0.872   3.548  -0.775  1.00  0.00     0.038 A 
HETATM    3  C   LIG     1       1.211   4.626  -1.617  1.00  0.00    -0.031 A 
HETATM    4  C   LIG     1       1.970   2.014  -2.232  1.00  0.00     0.029 A 
HETATM    5  C   LIG     1       2.328   3.070  -3.079  1.00  0.00     0.003 A 
HETATM    6  C   LIG     1       1.942   4.370  -2.778  1.00  0.00     0.009 A 
ENDROOT
BRANCH   1   7
HETATM    7  N   LIG     1       0.846   1.172  -0.204  1.00  0.00    -0.381 N 
HETATM    8  C   LIG     1       1.330  -0.199  -0.435  1.00  0.00     0.123 C 
HETATM    9  C   LIG     1       0.388  -0.947  -1.383  1.00  0.00     0.020 C 
HETATM   10  C   LIG     1      -1.053  -0.915  -0.871  1.00  0.00     0.003 C 
HETATM   11  C   LIG     1      -1.499   0.511  -0.544  1.00  0.00     0.020 C 
HETATM   12  C   LIG     1      -0.502   1.199   0.392  1.00  0.00     0.123 C 
ENDBRANCH   1   7
BRANCH   3  13
HETATM   13  C   LIG     1       0.783   6.030  -1.275  1.00  0.00     0.268 C 
BRANCH  13  14
HETATM   14  N   LIG     1       1.928   6.912  -1.081  1.00  0.00    -0.075 N 
ATOM     15  HN3 LIG     1       2.570   6.539  -0.382  1.00  0.00     0.274 HD
ATOM     16  HN2 LIG     1       2.548   6.899  -1.891  1.00  0.00     0.274 HD
ATOM     17  HN1 LIG     1       1.638   7.862  -0.850  1.00  0.00     0.274 HD
ENDBRANCH  13  14
ENDBRANCH   3  13
TORSDOF 3
