REMARK  3 active torsions:
REMARK  status: ('A' for Active; 'I' for Inactive)
REMARK    1  A    between atoms: N_1  and  C_2 
REMARK    2  A    between atoms: C_4  and  C_12 
REMARK    3  A    between atoms: N_5  and  C_12 
ROOT
HETATM    1  C   LIG     1       1.237   2.041  -1.060  1.00  0.00     0.030 A 
HETATM    2  C   LIG     1       0.859   3.399  -1.091  1.00  0.00     0.038 A 
HETATM    3  C   LIG     1       1.493   4.351  -1.917  1.00  0.00    -0.031 A 
HETATM    4  C   LIG     1       2.329   1.694  -1.871  1.00  0.00     0.029 A 
HETATM    5  C   LIG     1       2.973   2.620  -2.702  1.00  0.00     0.003 A 
HETATM    6  C   LIG     1       2.549   3.942  -2.732  1.00  0.00     0.009 A 
ENDROOT
BRANCH   1   7
HETATM    7  N   LIG     1       0.585   1.123  -0.224  1.00  0.00    -0.381 N 
HETATM    8  C   LIG     1       1.024  -0.283  -0.183  1.00  0.00     0.123 C 
HETATM    9  C   LIG     1       0.372  -1.073  -1.322  1.00  0.00     0.020 C 
HETATM   10  C   LIG     1      -1.152  -0.939  -1.288  1.00  0.00     0.003 C 
HETATM   11  C   LIG     1      -1.593   0.523  -1.191  1.00  0.00     0.020 C 
HETATM   12  C   LIG     1      -0.875   1.242  -0.047  1.00  0.00     0.123 C 
ENDBRANCH   1   7
BRANCH   3  13
HETATM   13  C   LIG     1       1.034   5.792  -1.924  1.00  0.00     0.270 C 
BRANCH  13  14
HETATM   14  N   LIG     1       2.113   6.694  -1.518  1.00  0.00    -0.075 N 
HETATM   15  C   LIG     1       1.660   8.076  -1.490  1.00  0.00     0.267 C 
ATOM     16  HN2 LIG     1       2.520   6.414  -0.625  1.00  0.00     0.277 HD
ATOM     17  HN1 LIG     1       2.938   6.581  -2.107  1.00  0.00     0.277 HD
ENDBRANCH  13  14
ENDBRANCH   3  13
TORSDOF 3
