REMARK  2 active torsions:
REMARK  status: ('A' for Active; 'I' for Inactive)
REMARK    1  A    between atoms: N_1  and  C_3 
REMARK    2  A    between atoms: C_2  and  C_4 
ROOT
HETATM    1  C   LIG     1       0.961   1.676  -1.520  1.00  0.00     0.031 A 
HETATM    2  C   LIG     1       2.024   1.586  -3.741  1.00  0.00     0.043 A 
HETATM    3  C   LIG     1       1.816   1.060  -2.451  1.00  0.00     0.047 A 
HETATM    4  C   LIG     1       0.364   2.880  -1.941  1.00  0.00     0.029 A 
HETATM    5  C   LIG     1       1.388   2.766  -4.124  1.00  0.00     0.018 A 
HETATM    6  C   LIG     1       0.561   3.416  -3.219  1.00  0.00     0.003 A 
ENDROOT
BRANCH   1   7
HETATM    7  N   LIG     1       0.741   1.174  -0.232  1.00  0.00    -0.381 N 
HETATM    8  C   LIG     1       1.425  -0.045   0.234  1.00  0.00     0.123 C 
HETATM    9  C   LIG     1       0.621  -1.289  -0.157  1.00  0.00     0.020 C 
HETATM   10  C   LIG     1      -0.824  -1.198   0.339  1.00  0.00     0.003 C 
HETATM   11  C   LIG     1      -1.474   0.128  -0.061  1.00  0.00     0.020 C 
HETATM   12  C   LIG     1      -0.603   1.312   0.362  1.00  0.00     0.123 C 
ENDBRANCH   1   7
BRANCH   2  13
HETATM   13  C   LIG     1       2.921   0.854  -4.669  1.00  0.00     0.209 C 
HETATM   14  O   LIG     1       3.537  -0.164  -4.420  1.00  0.00    -0.644 OA
HETATM   15  O   LIG     1       2.990   1.432  -5.883  1.00  0.00    -0.644 OA
ENDBRANCH   2  13
TORSDOF 2
