REMARK  3 active torsions:
REMARK  status: ('A' for Active; 'I' for Inactive)
REMARK    1  A    between atoms: C_1  and  C_4 
REMARK    2  A    between atoms: C_9  and  C_14 
REMARK    3  A    between atoms: O_10  and  C_14 
ROOT
HETATM    1  C   LIG     1      -1.462  -0.091  -0.118  1.00  0.00    -0.026 A 
HETATM    2  C   LIG     1      -0.749   1.031   0.342  1.00  0.00     0.013 A 
HETATM    3  C   LIG     1      -0.707  -1.178  -0.592  1.00  0.00     0.013 A 
HETATM    4  C   LIG     1       0.651   1.071   0.317  1.00  0.00     0.010 A 
HETATM    5  C   LIG     1       0.693  -1.149  -0.606  1.00  0.00     0.010 A 
HETATM    6  C   LIG     1       1.384  -0.016  -0.167  1.00  0.00    -0.035 A 
ENDROOT
BRANCH   1   7
HETATM    7  C   LIG     1      -2.942  -0.126  -0.100  1.00  0.00    -0.023 A 
HETATM    8  C   LIG     1      -3.646  -1.302   0.199  1.00  0.00     0.029 A 
HETATM    9  C   LIG     1      -5.034  -1.286   0.200  1.00  0.00     0.088 A 
HETATM   10  N   LIG     1      -5.774  -0.193  -0.064  1.00  0.00    -0.375 N 
HETATM   11  C   LIG     1      -5.093   0.936  -0.348  1.00  0.00     0.088 A 
ATOM     12  HN  LIG     1      -6.794  -0.217  -0.050  1.00  0.00     0.164 HD
HETATM   13  C   LIG     1      -3.708   1.014  -0.381  1.00  0.00     0.029 A 
ENDBRANCH   1   7
BRANCH   6  14
HETATM   14  C   LIG     1       2.889   0.013  -0.170  1.00  0.00     0.202 C 
BRANCH  14  15
HETATM   15  O   LIG     1       3.404  -0.429   1.078  1.00  0.00    -0.396 OA
ATOM     16  HO  LIG     1       4.354  -0.411   1.076  1.00  0.00     0.209 HD
ENDBRANCH  14  15
ENDBRANCH   6  14
TORSDOF 3
