REMARK  3 active torsions:
REMARK  status: ('A' for Active; 'I' for Inactive)
REMARK    1  A    between atoms: C_1  and  C_5 
REMARK    2  A    between atoms: C_6  and  C_13 
REMARK    3  A    between atoms: O_7  and  C_13 
ROOT
HETATM    1  C   LIG     1      -1.405  -0.057  -0.120  1.00  0.00    -0.025 A 
HETATM    2  C   LIG     1      -0.706   1.162  -0.204  1.00  0.00     0.021 A 
HETATM    3  C   LIG     1       0.697   1.229  -0.116  1.00  0.00    -0.034 A 
HETATM    4  C   LIG     1      -0.635  -1.224   0.033  1.00  0.00     0.012 A 
HETATM    5  C   LIG     1       0.762  -1.176   0.095  1.00  0.00     0.002 A 
HETATM    6  C   LIG     1       1.425   0.045   0.025  1.00  0.00     0.009 A 
ENDROOT
BRANCH   1   7
HETATM    7  C   LIG     1      -2.886  -0.107  -0.181  1.00  0.00    -0.023 A 
HETATM    8  C   LIG     1      -3.566  -1.184  -0.764  1.00  0.00     0.029 A 
HETATM    9  C   LIG     1      -4.953  -1.190  -0.788  1.00  0.00     0.088 A 
HETATM   10  N   LIG     1      -5.718  -0.200  -0.284  1.00  0.00    -0.375 N 
HETATM   11  C   LIG     1      -5.061   0.836   0.270  1.00  0.00     0.088 A 
ATOM     12  HN  LIG     1      -6.737  -0.234  -0.321  1.00  0.00     0.164 HD
HETATM   13  C   LIG     1      -3.678   0.925   0.349  1.00  0.00     0.029 A 
ENDBRANCH   1   7
BRANCH   3  14
HETATM   14  C   LIG     1       1.392   2.563  -0.172  1.00  0.00     0.202 C 
BRANCH  14  15
HETATM   15  O   LIG     1       0.938   3.407   0.880  1.00  0.00    -0.396 OA
ATOM     16  HO  LIG     1       1.377   4.249   0.845  1.00  0.00     0.209 HD
ENDBRANCH  14  15
ENDBRANCH   3  14
TORSDOF 3
