REMARK  3 active torsions:
REMARK  status: ('A' for Active; 'I' for Inactive)
REMARK    1  A    between atoms: C_1  and  C_5 
REMARK    2  A    between atoms: C_6  and  C_14 
REMARK    3  A    between atoms: N_7  and  C_14 
ROOT
HETATM    1  C   LIG     1      -1.405  -0.103  -0.144  1.00  0.00    -0.025 A 
HETATM    2  C   LIG     1      -0.721   1.129  -0.139  1.00  0.00     0.021 A 
HETATM    3  C   LIG     1       0.684   1.204  -0.095  1.00  0.00    -0.032 A 
HETATM    4  C   LIG     1      -0.624  -1.271  -0.091  1.00  0.00     0.012 A 
HETATM    5  C   LIG     1       0.770  -1.213  -0.026  1.00  0.00     0.001 A 
HETATM    6  C   LIG     1       1.422   0.018  -0.030  1.00  0.00     0.009 A 
ENDROOT
BRANCH   1   7
HETATM    7  C   LIG     1      -2.883  -0.165  -0.209  1.00  0.00    -0.023 A 
HETATM    8  C   LIG     1      -3.609  -1.134   0.499  1.00  0.00     0.029 A 
HETATM    9  C   LIG     1      -4.994  -1.155   0.404  1.00  0.00     0.088 A 
HETATM   10  N   LIG     1      -5.710  -0.286  -0.335  1.00  0.00    -0.375 N 
HETATM   11  C   LIG     1      -5.007   0.645  -1.011  1.00  0.00     0.088 A 
ATOM     12  HN  LIG     1      -6.728  -0.330  -0.381  1.00  0.00     0.164 HD
HETATM   13  C   LIG     1      -3.623   0.739  -0.983  1.00  0.00     0.029 A 
ENDBRANCH   1   7
BRANCH   3  14
HETATM   14  C   LIG     1       1.379   2.547  -0.110  1.00  0.00     0.270 C 
BRANCH  14  15
HETATM   15  N   LIG     1       1.090   3.278  -1.346  1.00  0.00    -0.075 N 
HETATM   16  C   LIG     1       1.785   4.557  -1.372  1.00  0.00     0.267 C 
ATOM     17  HN2 LIG     1       1.302   2.718  -2.172  1.00  0.00     0.277 HD
ATOM     18  HN1 LIG     1       0.087   3.393  -1.489  1.00  0.00     0.277 HD
ENDBRANCH  14  15
ENDBRANCH   3  14
TORSDOF 3
