REMARK  3 active torsions:
REMARK  status: ('A' for Active; 'I' for Inactive)
REMARK    1  A    between atoms: N_1  and  C_2 
REMARK    2  A    between atoms: C_4  and  C_9 
REMARK    3  A    between atoms: C_9  and  O_11 
ROOT
HETATM    1  C   LIG     1       1.383   2.169  -0.111  1.00  0.00     0.019 A 
HETATM    2  C   LIG     1       1.156   3.407  -0.767  1.00  0.00    -0.013 A 
HETATM    3  C   LIG     1       2.486   2.079   0.756  1.00  0.00     0.024 A 
HETATM    4  C   LIG     1       2.020   4.493  -0.524  1.00  0.00     0.011 A 
HETATM    5  C   LIG     1       3.337   3.163   0.982  1.00  0.00     0.002 A 
HETATM    6  C   LIG     1       3.101   4.375   0.342  1.00  0.00     0.001 A 
ENDROOT
BRANCH   1   7
HETATM    7  N   LIG     1       0.522   1.075  -0.355  1.00  0.00    -0.280 NA
HETATM    8  C   LIG     1       1.120  -0.279  -0.250  1.00  0.00     0.126 C 
HETATM    9  C   LIG     1       0.094  -1.359  -0.679  1.00  0.00     0.286 C 
HETATM   10  N   LIG     1      -1.209  -1.309   0.024  1.00  0.00     0.086 N 
HETATM   11  C   LIG     1      -1.731   0.076  -0.034  1.00  0.00     0.286 C 
HETATM   12  C   LIG     1      -1.104  -1.781   1.403  1.00  0.00     0.310 C 
HETATM   13  C   LIG     1      -0.737   1.171   0.428  1.00  0.00     0.126 C 
ENDBRANCH   1   7
BRANCH   2  14
HETATM   14  C   LIG     1       0.043   3.601  -1.772  1.00  0.00     0.204 C 
BRANCH  14  15
HETATM   15  O   LIG     1       0.180   2.707  -2.868  1.00  0.00    -0.396 OA
ATOM     16  HO  LIG     1      -0.519   2.829  -3.499  1.00  0.00     0.209 HD
ENDBRANCH  14  15
ENDBRANCH   2  14
TORSDOF 3
