REMARK  1 active torsions:
REMARK  status: ('A' for Active; 'I' for Inactive)
REMARK    1  A    between atoms: N_1  and  C_3 
ROOT
HETATM    1  C   LIG     1       0.914   3.594  -0.629  1.00  0.00     0.140 A 
HETATM    2  C   LIG     1       1.174   2.276  -1.047  1.00  0.00     0.068 A 
HETATM    3  N   LIG     1      -0.890   4.184   1.150  1.00  0.00    -0.190 NA
HETATM    4  C   LIG     1      -0.081   3.926   0.355  1.00  0.00     0.120 C 
HETATM    5  N   LIG     1       1.607   4.691  -1.061  1.00  0.00    -0.356 N 
ATOM      6  HN  LIG     1       1.378   5.627  -0.726  1.00  0.00     0.166 HD
HETATM    7  C   LIG     1       2.233   2.141  -1.965  1.00  0.00     0.034 A 
HETATM    8  C   LIG     1       2.603   4.489  -1.945  1.00  0.00     0.089 A 
HETATM    9  C   LIG     1       2.953   3.243  -2.420  1.00  0.00     0.019 A 
ENDROOT
BRANCH   2  10
HETATM   10  N   LIG     1       0.516   1.095  -0.672  1.00  0.00    -0.378 N 
HETATM   11  C   LIG     1       1.291   0.254   0.258  1.00  0.00     0.123 C 
HETATM   12  C   LIG     1       0.775  -1.184   0.190  1.00  0.00     0.020 C 
HETATM   13  C   LIG     1      -0.732  -1.253   0.430  1.00  0.00     0.003 C 
HETATM   14  C   LIG     1      -1.478  -0.303  -0.506  1.00  0.00     0.020 C 
HETATM   15  C   LIG     1      -0.927   1.119  -0.393  1.00  0.00     0.123 C 
ENDBRANCH   2  10
TORSDOF 1
