REMARK  3 active torsions:
REMARK  status: ('A' for Active; 'I' for Inactive)
REMARK    1  A    between atoms: N_1  and  C_2 
REMARK    2  A    between atoms: C_4  and  C_11 
REMARK    3  A    between atoms: O_8  and  C_11 
ROOT
HETATM    1  C   LIG     1      -1.512  -2.116  -0.484  1.00  0.00     0.030 A 
HETATM    2  C   LIG     1      -1.222  -3.489  -0.415  1.00  0.00     0.038 A 
HETATM    3  C   LIG     1      -1.866  -4.443  -1.226  1.00  0.00    -0.033 A 
HETATM    4  C   LIG     1      -2.468  -1.733  -1.439  1.00  0.00     0.029 A 
HETATM    5  C   LIG     1      -3.108  -2.661  -2.267  1.00  0.00     0.003 A 
HETATM    6  C   LIG     1      -2.808  -4.014  -2.163  1.00  0.00     0.009 A 
ENDROOT
BRANCH   1   7
HETATM    7  N   LIG     1      -0.889  -1.199   0.329  1.00  0.00    -0.381 N 
HETATM    8  C   LIG     1      -1.114   0.243   0.262  1.00  0.00     0.123 C 
HETATM    9  C   LIG     1      -0.104   0.818   1.252  1.00  0.00     0.021 C 
HETATM   10  C   LIG     1      -0.009  -0.269   2.308  1.00  0.00     0.021 C 
HETATM   11  C   LIG     1      -0.071  -1.556   1.487  1.00  0.00     0.123 C 
ENDBRANCH   1   7
BRANCH   3  12
HETATM   12  C   LIG     1      -1.505  -5.900  -1.121  1.00  0.00     0.203 C 
BRANCH  12  13
HETATM   13  O   LIG     1      -0.467  -6.229  -2.034  1.00  0.00    -0.396 OA
ATOM     14  HO  LIG     1      -0.239  -7.149  -1.968  1.00  0.00     0.209 HD
ENDBRANCH  12  13
ENDBRANCH   3  12
TORSDOF 3
