REMARK  3 active torsions:
REMARK  status: ('A' for Active; 'I' for Inactive)
REMARK    1  A    between atoms: C_1  and  N_4 
REMARK    2  A    between atoms: C_5  and  C_14 
REMARK    3  A    between atoms: N_6  and  C_14 
ROOT
HETATM    1  C   LIG     1      -0.120  -1.375   0.275  1.00  0.00     0.082 A 
HETATM    2  N   LIG     1       0.580  -1.096   1.397  1.00  0.00    -0.349 N 
ATOM      3  HN  LIG     1       1.159  -1.810   1.839  1.00  0.00     0.167 HD
HETATM    4  C   LIG     1       0.497   0.153   1.924  1.00  0.00     0.035 A 
HETATM    5  C   LIG     1      -0.905  -0.405  -0.349  1.00  0.00     0.042 A 
HETATM    6  C   LIG     1      -0.973   0.877   0.186  1.00  0.00     0.005 A 
HETATM    7  C   LIG     1      -0.266   1.162   1.344  1.00  0.00     0.027 A 
ENDROOT
BRANCH   1   8
HETATM    8  N   LIG     1      -0.058  -2.663  -0.307  1.00  0.00    -0.269 NA
HETATM    9  C   LIG     1       1.185  -3.365   0.049  1.00  0.00     0.097 C 
HETATM   10  C   LIG     1       1.264  -4.668  -0.747  1.00  0.00     0.015 C 
HETATM   11  C   LIG     1       0.036  -5.539  -0.491  1.00  0.00     0.002 C 
HETATM   12  C   LIG     1      -1.250  -4.757  -0.750  1.00  0.00     0.015 C 
HETATM   13  C   LIG     1      -1.269  -3.434   0.020  1.00  0.00     0.097 C 
ENDBRANCH   1   8
BRANCH   4  14
HETATM   14  C   LIG     1       1.280   0.421   3.191  1.00  0.00     0.286 C 
BRANCH  14  15
HETATM   15  N   LIG     1       2.271   1.492   3.037  1.00  0.00    -0.074 N 
ATOM     16  HN3 LIG     1       2.898   1.299   2.256  1.00  0.00     0.274 HD
ATOM     17  HN2 LIG     1       1.833   2.346   2.692  1.00  0.00     0.274 HD
ATOM     18  HN1 LIG     1       2.799   1.673   3.891  1.00  0.00     0.274 HD
ENDBRANCH  14  15
ENDBRANCH   4  14
TORSDOF 3
