REMARK  1 active torsions:
REMARK  status: ('A' for Active; 'I' for Inactive)
REMARK    1  A    between atoms: C_1  and  C_5 
ROOT
HETATM    1  C   LIG     1      -1.363  -0.062  -0.161  1.00  0.00    -0.023 A 
HETATM    2  C   LIG     1      -0.706   1.172   0.007  1.00  0.00     0.038 A 
HETATM    3  C   LIG     1       0.691   1.266   0.034  1.00  0.00     0.047 A 
HETATM    4  N   LIG     1       1.310   2.487   0.328  1.00  0.00    -0.102 NA
HETATM    5  C   LIG     1      -0.574  -1.219  -0.258  1.00  0.00     0.012 A 
HETATM    6  C   LIG     1       0.816  -1.145  -0.169  1.00  0.00     0.003 A 
HETATM    7  C   LIG     1       1.441   0.090  -0.002  1.00  0.00     0.026 A 
ENDROOT
BRANCH   1   8
HETATM    8  C   LIG     1      -2.830  -0.136  -0.220  1.00  0.00    -0.011 A 
HETATM    9  C   LIG     1      -3.559  -1.014   0.585  1.00  0.00     0.099 A 
HETATM   10  N   LIG     1      -4.909  -1.137   0.577  1.00  0.00    -0.374 N 
HETATM   11  C   LIG     1      -5.582  -0.339  -0.278  1.00  0.00     0.087 A 
ATOM     12  HN  LIG     1      -5.391  -1.798   1.186  1.00  0.00     0.164 HD
HETATM   13  C   LIG     1      -4.968   0.571  -1.121  1.00  0.00     0.018 A 
HETATM   14  C   LIG     1      -3.578   0.670  -1.088  1.00  0.00     0.015 A 
ENDBRANCH   1   8
TORSDOF 1
