REMARK  3 active torsions:
REMARK  status: ('A' for Active; 'I' for Inactive)
REMARK    1  A    between atoms: C_3  and  C_6 
REMARK    2  A    between atoms: C_6  and  C_11 
REMARK    3  A    between atoms: O_7  and  C_11 
ROOT
HETATM    1  O   LIG     1       1.411   1.214   0.074  1.00  0.00    -0.321 OA
HETATM    2  C   LIG     1       2.206   0.114   0.083  1.00  0.00     0.150 A 
HETATM    3  C   LIG     1       1.456  -1.043   0.009  1.00  0.00    -0.021 A 
HETATM    4  C   LIG     1       0.094  -0.614  -0.063  1.00  0.00     0.006 A 
HETATM    5  C   LIG     1       0.127   0.775  -0.015  1.00  0.00     0.085 A 
HETATM    6  C   LIG     1      -1.158  -1.249  -0.157  1.00  0.00     0.015 A 
HETATM    7  C   LIG     1      -1.004   1.587  -0.049  1.00  0.00     0.038 A 
HETATM    8  C   LIG     1      -2.316  -0.459  -0.193  1.00  0.00     0.001 A 
HETATM    9  C   LIG     1      -2.238   0.935  -0.139  1.00  0.00     0.003 A 
ENDROOT
BRANCH   3  10
HETATM   10  C   LIG     1       1.970  -2.447   0.008  1.00  0.00     0.067 C 
BRANCH  10  11
HETATM   11  C   LIG     1       2.087  -3.033   1.416  1.00  0.00     0.168 C 
BRANCH  11  12
HETATM   12  O   LIG     1       0.803  -3.297   1.975  1.00  0.00    -0.401 OA
ATOM     13  HO  LIG     1       0.876  -3.661   2.850  1.00  0.00     0.209 HD
ENDBRANCH  11  12
ENDBRANCH  10  11
ENDBRANCH   3  10
TORSDOF 3
