REMARK  4 active torsions:
REMARK  status: ('A' for Active; 'I' for Inactive)
REMARK    1  A    between atoms: N_1  and  C_2 
REMARK    2  A    between atoms: C_2  and  C_4 
REMARK    3  A    between atoms: C_6  and  C_15 
REMARK    4  A    between atoms: O_9  and  C_15 
ROOT
HETATM    1  C   LIG     1       0.418  -0.233  -4.095  1.00  0.00    -0.030 A 
HETATM    2  C   LIG     1      -0.599  -0.594  -4.991  1.00  0.00     0.018 A 
HETATM    3  C   LIG     1      -0.590  -0.133  -6.318  1.00  0.00    -0.034 A 
HETATM    4  C   LIG     1       1.458   1.080  -5.854  1.00  0.00     0.001 A 
HETATM    5  C   LIG     1       1.441   0.615  -4.539  1.00  0.00     0.009 A 
HETATM    6  C   LIG     1       0.447   0.706  -6.740  1.00  0.00     0.009 A 
ENDROOT
BRANCH   1   7
HETATM    7  C   LIG     1       0.405  -0.740  -2.669  1.00  0.00     0.311 C 
BRANCH   7   8
HETATM    8  N   LIG     1       0.457  -2.208  -2.546  1.00  0.00     0.096 N 
HETATM    9  C   LIG     1       0.407  -2.614  -1.121  1.00  0.00     0.299 C 
HETATM   10  C   LIG     1       1.708  -2.329  -0.348  1.00  0.00     0.198 C 
HETATM   11  O   LIG     1       2.838  -2.945  -0.977  1.00  0.00    -0.388 OA
HETATM   12  C   LIG     1       2.961  -2.526  -2.343  1.00  0.00     0.198 C 
HETATM   13  C   LIG     1       1.675  -2.810  -3.135  1.00  0.00     0.299 C 
ENDBRANCH   7   8
ENDBRANCH   1   7
BRANCH   3  14
HETATM   14  C   LIG     1      -1.690  -0.541  -7.262  1.00  0.00     0.202 C 
BRANCH  14  15
HETATM   15  O   LIG     1      -1.731  -1.954  -7.419  1.00  0.00    -0.396 OA
ATOM     16  HO  LIG     1      -2.425  -2.211  -8.015  1.00  0.00     0.209 HD
ENDBRANCH  14  15
ENDBRANCH   3  14
TORSDOF 4
