REMARK  2 active torsions:
REMARK  status: ('A' for Active; 'I' for Inactive)
REMARK    1  A    between atoms: C_5  and  C_10 
REMARK    2  A    between atoms: C_10  and  O_11 
ROOT
HETATM    1  N   LIG     1      -1.315   1.066   0.015  1.00  0.00    -0.352 N 
HETATM    2  C   LIG     1      -0.020   0.593  -0.003  1.00  0.00     0.052 A 
HETATM    3  C   LIG     1      -0.060  -0.766  -0.102  1.00  0.00     0.033 A 
HETATM    4  C   LIG     1      -1.423  -1.170  -0.141  1.00  0.00     0.048 A 
HETATM    5  C   LIG     1      -2.174  -0.009  -0.058  1.00  0.00     0.036 A 
HETATM    6  S   LIG     1       1.520  -1.472  -0.139  1.00  0.00    -0.100 SA
HETATM    7  C   LIG     1       1.301   1.120   0.053  1.00  0.00     0.038 A 
HETATM    8  C   LIG     1       2.219   0.094  -0.012  1.00  0.00     0.053 A 
HETATM    9  C   LIG     1      -1.634   2.468   0.134  1.00  0.00     0.156 C 
ENDROOT
BRANCH   5  10
HETATM   10  C   LIG     1      -3.656   0.132  -0.043  1.00  0.00     0.221 C 
BRANCH  10  11
HETATM   11  O   LIG     1      -4.008   0.635   1.235  1.00  0.00    -0.395 OA
ATOM     12  HO  LIG     1      -4.954   0.725   1.245  1.00  0.00     0.209 HD
ENDBRANCH  10  11
ENDBRANCH   5  10
TORSDOF 2
