REMARK  2 active torsions:
REMARK  status: ('A' for Active; 'I' for Inactive)
REMARK    1  A    between atoms: C_1  and  C_2 
REMARK    2  A    between atoms: C_3  and  C_11 
ROOT
HETATM    1  C   LIG     1       0.256   1.229   0.194  1.00  0.00     0.040 A 
HETATM    2  C   LIG     1      -1.212   3.648   0.435  1.00  0.00    -0.025 A 
HETATM    3  C   LIG     1      -1.084   1.201   0.588  1.00  0.00     0.019 A 
HETATM    4  C   LIG     1       0.873   2.456  -0.055  1.00  0.00     0.019 A 
HETATM    5  C   LIG     1      -1.804   2.398   0.704  1.00  0.00     0.013 A 
HETATM    6  C   LIG     1       0.144   3.646   0.055  1.00  0.00     0.013 A 
ENDROOT
BRANCH   2   7
HETATM    7  C   LIG     1      -1.976   4.910   0.561  1.00  0.00    -0.011 A 
HETATM    8  C   LIG     1      -3.343   4.991   0.273  1.00  0.00     0.099 A 
HETATM    9  N   LIG     1      -4.105   6.110   0.373  1.00  0.00    -0.374 N 
HETATM   10  C   LIG     1      -3.478   7.232   0.776  1.00  0.00     0.087 A 
ATOM     11  HN  LIG     1      -5.101   6.102   0.154  1.00  0.00     0.164 HD
HETATM   12  C   LIG     1      -2.132   7.284   1.082  1.00  0.00     0.018 A 
HETATM   13  C   LIG     1      -1.382   6.112   0.978  1.00  0.00     0.015 A 
ENDBRANCH   2   7
BRANCH   1  14
HETATM   14  C   LIG     1       1.068  -0.005   0.077  1.00  0.00     0.209 C 
HETATM   15  O   LIG     1       2.257  -0.045   0.349  1.00  0.00    -0.644 OA
HETATM   16  O   LIG     1       0.381  -1.061  -0.405  1.00  0.00    -0.644 OA
ENDBRANCH   1  14
TORSDOF 2
