REMARK  4 active torsions:
REMARK  status: ('A' for Active; 'I' for Inactive)
REMARK    1  A    between atoms: N_1  and  C_2 
REMARK    2  A    between atoms: C_2  and  C_4 
REMARK    3  A    between atoms: N_6  and  C_15 
REMARK    4  A    between atoms: C_9  and  C_15 
ROOT
HETATM    1  C   LIG     1      -0.593  -0.565  -4.018  1.00  0.00    -0.030 A 
HETATM    2  C   LIG     1       0.308  -1.336  -3.260  1.00  0.00     0.017 A 
HETATM    3  C   LIG     1       0.218  -2.738  -3.207  1.00  0.00    -0.032 A 
HETATM    4  C   LIG     1      -1.696  -2.620  -4.694  1.00  0.00     0.001 A 
HETATM    5  C   LIG     1      -1.581  -1.231  -4.758  1.00  0.00     0.009 A 
HETATM    6  C   LIG     1      -0.816  -3.370  -3.913  1.00  0.00     0.009 A 
ENDROOT
BRANCH   1   7
HETATM    7  C   LIG     1      -0.504   0.954  -4.003  1.00  0.00     0.311 C 
BRANCH   7   8
HETATM    8  N   LIG     1      -0.247   1.554  -5.322  1.00  0.00     0.096 N 
HETATM    9  C   LIG     1       1.077   1.183  -5.869  1.00  0.00     0.299 C 
HETATM   10  C   LIG     1       2.255   1.904  -5.195  1.00  0.00     0.198 C 
HETATM   11  O   LIG     1       2.114   3.325  -5.300  1.00  0.00    -0.388 OA
HETATM   12  C   LIG     1       0.890   3.756  -4.694  1.00  0.00     0.198 C 
HETATM   13  C   LIG     1      -0.334   3.034  -5.293  1.00  0.00     0.299 C 
ENDBRANCH   7   8
ENDBRANCH   1   7
BRANCH   3  14
HETATM   14  C   LIG     1       1.212  -3.548  -2.401  1.00  0.00     0.270 C 
BRANCH  14  15
HETATM   15  N   LIG     1       2.567  -3.419  -2.945  1.00  0.00    -0.075 N 
HETATM   16  C   LIG     1       3.520  -4.219  -2.188  1.00  0.00     0.267 C 
ATOM     17  HN2 LIG     1       2.594  -3.646  -3.939  1.00  0.00     0.277 HD
ATOM     18  HN1 LIG     1       2.857  -2.443  -2.999  1.00  0.00     0.277 HD
ENDBRANCH  14  15
ENDBRANCH   3  14
TORSDOF 4
