REMARK  3 active torsions:
REMARK  status: ('A' for Active; 'I' for Inactive)
REMARK    1  A    between atoms: C_1  and  C_4 
REMARK    2  A    between atoms: C_9  and  C_14 
REMARK    3  A    between atoms: O_11  and  C_14 
ROOT
HETATM    1  C   LIG     1      -1.399  -0.082  -0.100  1.00  0.00    -0.025 A 
HETATM    2  C   LIG     1      -0.739   1.158  -0.033  1.00  0.00     0.013 A 
HETATM    3  C   LIG     1      -0.595  -1.234  -0.146  1.00  0.00     0.013 A 
HETATM    4  C   LIG     1       0.659   1.246  -0.022  1.00  0.00     0.010 A 
HETATM    5  C   LIG     1       0.803  -1.152  -0.128  1.00  0.00     0.010 A 
HETATM    6  C   LIG     1       1.443   0.091  -0.068  1.00  0.00    -0.035 A 
ENDROOT
BRANCH   1   7
HETATM    7  C   LIG     1      -2.874  -0.168  -0.130  1.00  0.00    -0.011 A 
HETATM    8  C   LIG     1      -3.577  -1.180   0.531  1.00  0.00     0.099 A 
HETATM    9  N   LIG     1      -4.927  -1.324   0.534  1.00  0.00    -0.374 N 
HETATM   10  C   LIG     1      -5.633  -0.405  -0.153  1.00  0.00     0.087 A 
ATOM     11  HN  LIG     1      -5.383  -2.089   1.031  1.00  0.00     0.164 HD
HETATM   12  C   LIG     1      -5.054   0.647  -0.840  1.00  0.00     0.018 A 
HETATM   13  C   LIG     1      -3.663   0.758  -0.827  1.00  0.00     0.015 A 
ENDBRANCH   1   7
BRANCH   6  14
HETATM   14  C   LIG     1       2.946   0.174  -0.066  1.00  0.00     0.202 C 
BRANCH  14  15
HETATM   15  O   LIG     1       3.486  -0.506   1.059  1.00  0.00    -0.396 OA
ATOM     16  HO  LIG     1       4.435  -0.454   1.060  1.00  0.00     0.209 HD
ENDBRANCH  14  15
ENDBRANCH   6  14
TORSDOF 3
