REMARK  3 active torsions:
REMARK  status: ('A' for Active; 'I' for Inactive)
REMARK    1  A    between atoms: C_1  and  C_5 
REMARK    2  A    between atoms: N_12  and  C_16 
REMARK    3  A    between atoms: C_15  and  C_16 
ROOT
HETATM    1  C   LIG     1       1.978  -1.229   0.054  1.00  0.00    -0.002 A 
HETATM    2  C   LIG     1       3.264  -0.692  -0.116  1.00  0.00     0.015 A 
HETATM    3  C   LIG     1       1.845  -2.627   0.005  1.00  0.00     0.015 A 
HETATM    4  C   LIG     1       2.951  -3.460  -0.203  1.00  0.00     0.010 A 
HETATM    5  C   LIG     1       4.372  -1.523  -0.323  1.00  0.00     0.010 A 
HETATM    6  C   LIG     1       4.228  -2.915  -0.368  1.00  0.00    -0.033 A 
ENDROOT
BRANCH   1   7
HETATM    7  C   LIG     1       0.771  -0.403   0.281  1.00  0.00     0.084 A 
HETATM    8  N   LIG     1      -0.447  -0.900   0.423  1.00  0.00    -0.359 N 
HETATM    9  C   LIG     1      -1.363   0.112   0.627  1.00  0.00     0.096 A 
ATOM     10  HN  LIG     1      -0.677  -1.893   0.387  1.00  0.00     0.166 HD
HETATM   11  C   LIG     1      -0.846   1.386   0.642  1.00  0.00     0.069 A 
HETATM   12  S   LIG     1       0.844   1.321   0.391  1.00  0.00    -0.082 SA
ENDBRANCH   1   7
BRANCH   6  13
HETATM   13  C   LIG     1       5.433  -3.801  -0.579  1.00  0.00     0.270 C 
BRANCH  13  14
HETATM   14  N   LIG     1       6.056  -3.543  -1.877  1.00  0.00    -0.075 N 
HETATM   15  C   LIG     1       7.201  -4.415  -2.090  1.00  0.00     0.267 C 
ATOM     16  HN2 LIG     1       5.381  -3.616  -2.639  1.00  0.00     0.277 HD
ATOM     17  HN1 LIG     1       6.307  -2.560  -1.985  1.00  0.00     0.277 HD
ENDBRANCH  13  14
ENDBRANCH   6  13
TORSDOF 3
