REMARK  1 active torsions:
REMARK  status: ('A' for Active; 'I' for Inactive)
REMARK    1  A    between atoms: C_6  and  C_7 
ROOT
HETATM    1  N   LIG     1      -1.604  -1.087   0.016  1.00  0.00    -0.360 N 
HETATM    2  C   LIG     1      -0.307   0.727   0.084  1.00  0.00    -0.007 A 
HETATM    3  C   LIG     1      -0.288  -0.669   0.004  1.00  0.00     0.044 A 
HETATM    4  C   LIG     1      -2.444  -0.007   0.092  1.00  0.00     0.091 A 
HETATM    5  C   LIG     1      -1.670   1.129   0.138  1.00  0.00     0.031 A 
HETATM    6  C   LIG     1       2.121   0.718   0.026  1.00  0.00     0.041 A 
HETATM    7  C   LIG     1       0.914   1.431   0.096  1.00  0.00     0.032 A 
HETATM    8  C   LIG     1       0.911  -1.394  -0.071  1.00  0.00     0.031 A 
HETATM    9  C   LIG     1       2.112  -0.677  -0.057  1.00  0.00     0.021 A 
HETATM   10  C   LIG     1      -2.045  -2.462  -0.047  1.00  0.00     0.155 C 
ENDROOT
BRANCH   6  11
HETATM   11  C   LIG     1       3.433   1.409   0.039  1.00  0.00     0.209 C 
HETATM   12  O   LIG     1       4.523   0.870  -0.016  1.00  0.00    -0.644 OA
HETATM   13  O   LIG     1       3.323   2.747   0.120  1.00  0.00    -0.644 OA
ENDBRANCH   6  11
TORSDOF 1
