REMARK  3 active torsions:
REMARK  status: ('A' for Active; 'I' for Inactive)
REMARK    1  A    between atoms: C_1  and  C_2 
REMARK    2  A    between atoms: C_9  and  C_16 
REMARK    3  A    between atoms: O_12  and  C_16 
ROOT
HETATM    1  C   LIG     1      -1.388  -0.140  -0.110  1.00  0.00    -0.023 A 
HETATM    2  C   LIG     1      -0.677   1.075  -0.072  1.00  0.00     0.021 A 
HETATM    3  C   LIG     1       0.729   1.114  -0.072  1.00  0.00    -0.034 A 
HETATM    4  C   LIG     1      -0.632  -1.326  -0.158  1.00  0.00     0.012 A 
HETATM    5  C   LIG     1       0.764  -1.301  -0.164  1.00  0.00     0.002 A 
HETATM    6  C   LIG     1       1.443  -0.087  -0.125  1.00  0.00     0.009 A 
ENDROOT
BRANCH   1   7
HETATM    7  C   LIG     1      -2.862  -0.170  -0.103  1.00  0.00     0.005 A 
HETATM    8  C   LIG     1      -3.605  -1.138   0.559  1.00  0.00     0.102 A 
HETATM    9  N   LIG     1      -4.954  -1.198   0.584  1.00  0.00    -0.361 N 
HETATM   10  C   LIG     1      -5.590  -0.230  -0.089  1.00  0.00     0.180 A 
ATOM     11  HN  LIG     1      -5.456  -1.933   1.083  1.00  0.00     0.166 HD
HETATM   12  N   LIG     1      -5.003   0.765  -0.767  1.00  0.00    -0.361 N 
HETATM   13  C   LIG     1      -3.652   0.765  -0.756  1.00  0.00     0.102 A 
ATOM     14  HN  LIG     1      -5.542   1.477  -1.260  1.00  0.00     0.166 HD
ENDBRANCH   1   7
BRANCH   3  15
HETATM   15  C   LIG     1       1.455   2.433  -0.064  1.00  0.00     0.202 C 
BRANCH  15  16
HETATM   16  O   LIG     1       1.705   2.870  -1.393  1.00  0.00    -0.396 OA
ATOM     17  HO  LIG     1       2.163   3.702  -1.388  1.00  0.00     0.209 HD
ENDBRANCH  15  16
ENDBRANCH   3  15
TORSDOF 3
