REMARK  3 active torsions:
REMARK  status: ('A' for Active; 'I' for Inactive)
REMARK    1  A    between atoms: C_3  and  C_4 
REMARK    2  A    between atoms: N_9  and  C_14 
REMARK    3  A    between atoms: C_12  and  C_14 
ROOT
HETATM    1  C   LIG     1      -1.235  -2.266  -0.218  1.00  0.00    -0.009 A 
HETATM    2  C   LIG     1      -0.534  -3.370   0.296  1.00  0.00     0.014 A 
HETATM    3  C   LIG     1      -2.397  -2.538  -0.963  1.00  0.00     0.014 A 
HETATM    4  C   LIG     1      -2.825  -3.850  -1.207  1.00  0.00     0.010 A 
HETATM    5  C   LIG     1      -0.957  -4.683   0.056  1.00  0.00     0.010 A 
HETATM    6  C   LIG     1      -2.103  -4.938  -0.707  1.00  0.00    -0.033 A 
ENDROOT
BRANCH   1   7
HETATM    7  C   LIG     1      -0.784  -0.875   0.010  1.00  0.00     0.042 A 
HETATM    8  N   LIG     1      -1.760   0.069   0.049  1.00  0.00    -0.365 N 
HETATM    9  C   LIG     1      -1.393   1.352   0.268  1.00  0.00     0.088 A 
ATOM     10  HN  LIG     1      -2.740  -0.182  -0.083  1.00  0.00     0.165 HD
HETATM   11  C   LIG     1      -0.085   1.762   0.447  1.00  0.00     0.017 A 
HETATM   12  C   LIG     1       0.911   0.798   0.392  1.00  0.00     0.004 A 
HETATM   13  C   LIG     1       0.561  -0.533   0.169  1.00  0.00     0.030 A 
ENDBRANCH   1   7
BRANCH   6  14
HETATM   14  C   LIG     1      -2.553  -6.358  -0.959  1.00  0.00     0.270 C 
BRANCH  14  15
HETATM   15  N   LIG     1      -1.519  -7.118  -1.664  1.00  0.00    -0.075 N 
HETATM   16  C   LIG     1      -1.949  -8.484  -1.918  1.00  0.00     0.267 C 
ATOM     17  HN2 LIG     1      -1.231  -6.650  -2.523  1.00  0.00     0.277 HD
ATOM     18  HN1 LIG     1      -0.630  -7.092  -1.165  1.00  0.00     0.277 HD
ENDBRANCH  14  15
ENDBRANCH   6  14
TORSDOF 3
