REMARK  4 active torsions:
REMARK  status: ('A' for Active; 'I' for Inactive)
REMARK    1  A    between atoms: C_1  and  C_7 
REMARK    2  A    between atoms: C_2  and  C_8 
REMARK    3  A    between atoms: C_7  and  O_10 
REMARK    4  A    between atoms: O_10  and  C_14 
ROOT
HETATM    1  C   LIG     1      -0.098  -1.185   0.031  1.00  0.00     0.109 A 
HETATM    2  C   LIG     1       1.184  -0.654   0.004  1.00  0.00     0.066 A 
HETATM    3  N   LIG     1       1.221   0.742   0.004  1.00  0.00    -0.352 N 
ATOM      4  HN  LIG     1       2.075   1.300   0.027  1.00  0.00     0.166 HD
HETATM    5  S   LIG     1      -1.253   0.087  -0.106  1.00  0.00    -0.069 SA
HETATM    6  C   LIG     1       0.007   1.238  -0.029  1.00  0.00     0.048 A 
HETATM    7  C   LIG     1      -0.315   2.689  -0.001  1.00  0.00     0.076 C 
ENDROOT
BRANCH   2   8
HETATM    8  C   LIG     1       2.455  -1.388  -0.014  1.00  0.00    -0.008 A 
HETATM    9  C   LIG     1       2.601  -2.651  -0.604  1.00  0.00     0.014 A 
HETATM   10  C   LIG     1       3.843  -3.296  -0.619  1.00  0.00     0.001 A 
HETATM   11  C   LIG     1       4.965  -2.673  -0.076  1.00  0.00     0.000 A 
HETATM   12  C   LIG     1       4.845  -1.406   0.487  1.00  0.00     0.001 A 
HETATM   13  C   LIG     1       3.600  -0.773   0.520  1.00  0.00     0.014 A 
ENDBRANCH   2   8
BRANCH   1  14
HETATM   14  C   LIG     1      -0.615  -2.520   0.184  1.00  0.00     0.302 C 
HETATM   15  O   LIG     1      -1.630  -2.964  -0.339  1.00  0.00    -0.259 OA
BRANCH  14  16
HETATM   16  O   LIG     1       0.146  -3.203   1.088  1.00  0.00    -0.317 OA
BRANCH  16  17
HETATM   17  C   LIG     1      -0.337  -4.501   1.461  1.00  0.00     0.174 C 
HETATM   18  C   LIG     1       0.007  -5.527   0.398  1.00  0.00     0.034 C 
ENDBRANCH  16  17
ENDBRANCH  14  16
ENDBRANCH   1  14
TORSDOF 4
