REMARK  2 active torsions:
REMARK  status: ('A' for Active; 'I' for Inactive)
REMARK    1  A    between atoms: N_3  and  C_7 
REMARK    2  A    between atoms: C_7  and  C_8 
ROOT
HETATM    1  C   LIG     1      -0.252  -3.360  -1.672  1.00  0.00    -0.040 A 
HETATM    2  C   LIG     1       0.117  -4.794  -4.078  1.00  0.00     0.046 A 
HETATM    3  N   LIG     1       0.429  -5.499  -5.247  1.00  0.00    -0.102 NA
HETATM    4  C   LIG     1       0.022  -5.464  -2.858  1.00  0.00     0.027 A 
HETATM    5  C   LIG     1       0.126  -3.398  -4.073  1.00  0.00     0.027 A 
HETATM    6  C   LIG     1      -0.177  -4.759  -1.667  1.00  0.00     0.011 A 
HETATM    7  C   LIG     1      -0.079  -2.684  -2.887  1.00  0.00     0.011 A 
ENDROOT
BRANCH   1   8
HETATM    8  C   LIG     1      -0.488  -2.595  -0.395  1.00  0.00     0.167 C 
BRANCH   8   9
HETATM    9  N   LIG     1      -1.782  -2.901   0.192  1.00  0.00    -0.347 N 
HETATM   10  C   LIG     1      -3.002  -2.620  -0.358  1.00  0.00     0.182 A 
HETATM   11  N   LIG     1      -3.982  -2.981   0.439  1.00  0.00    -0.361 N 
HETATM   12  C   LIG     1      -3.372  -3.519   1.542  1.00  0.00     0.106 A 
ATOM     13  HN  LIG     1      -4.983  -2.882   0.272  1.00  0.00     0.166 HD
HETATM   14  C   LIG     1      -2.004  -3.476   1.413  1.00  0.00     0.109 A 
ENDBRANCH   8   9
ENDBRANCH   1   8
TORSDOF 2
