REMARK  2 active torsions:
REMARK  status: ('A' for Active; 'I' for Inactive)
REMARK    1  A    between atoms: N_3  and  C_7 
REMARK    2  A    between atoms: C_7  and  C_8 
ROOT
HETATM    1  C   LIG     1      -0.235  -3.519  -1.881  1.00  0.00    -0.038 A 
HETATM    2  C   LIG     1       0.051  -2.754  -3.025  1.00  0.00     0.035 A 
HETATM    3  C   LIG     1       0.364  -3.363  -4.245  1.00  0.00     0.046 A 
HETATM    4  N   LIG     1       0.775  -2.585  -5.334  1.00  0.00    -0.102 NA
HETATM    5  C   LIG     1       0.208  -5.529  -3.162  1.00  0.00     0.002 A 
HETATM    6  C   LIG     1      -0.157  -4.916  -1.965  1.00  0.00     0.009 A 
HETATM    7  C   LIG     1       0.489  -4.753  -4.287  1.00  0.00     0.026 A 
ENDROOT
BRANCH   1   8
HETATM    8  C   LIG     1      -0.579  -2.840  -0.579  1.00  0.00     0.167 C 
BRANCH   8   9
HETATM    9  N   LIG     1      -1.901  -3.209  -0.101  1.00  0.00    -0.347 N 
HETATM   10  C   LIG     1      -3.088  -2.892  -0.698  1.00  0.00     0.182 A 
HETATM   11  N   LIG     1      -4.109  -3.337  -0.002  1.00  0.00    -0.361 N 
HETATM   12  C   LIG     1      -3.559  -3.965   1.086  1.00  0.00     0.106 A 
ATOM     13  HN  LIG     1      -5.100  -3.237  -0.223  1.00  0.00     0.166 HD
HETATM   14  C   LIG     1      -2.186  -3.890   1.051  1.00  0.00     0.109 A 
ENDBRANCH   8   9
ENDBRANCH   1   8
TORSDOF 2
