REMARK  3 active torsions:
REMARK  status: ('A' for Active; 'I' for Inactive)
REMARK    1  A    between atoms: C_1  and  N_2 
REMARK    2  A    between atoms: C_7  and  C_15 
REMARK    3  A    between atoms: O_11  and  C_15 
ROOT
HETATM    1  C   LIG     1      -1.869  -0.516  -0.953  1.00  0.00     0.082 A 
HETATM    2  N   LIG     1      -1.833  -1.573  -1.792  1.00  0.00    -0.357 N 
ATOM      3  HN  LIG     1      -2.607  -2.237  -1.826  1.00  0.00     0.166 HD
HETATM    4  C   LIG     1      -0.790   0.371  -0.892  1.00  0.00     0.051 A 
HETATM    5  C   LIG     1       0.321   0.205  -1.724  1.00  0.00    -0.030 A 
HETATM    6  C   LIG     1      -0.750  -1.734  -2.586  1.00  0.00     0.090 A 
HETATM    7  C   LIG     1       0.335  -0.880  -2.597  1.00  0.00     0.026 A 
ENDROOT
BRANCH   1   8
HETATM    8  N   LIG     1      -2.973  -0.333  -0.108  1.00  0.00    -0.265 NA
HETATM    9  C   LIG     1      -3.983  -1.417  -0.152  1.00  0.00     0.123 C 
HETATM   10  C   LIG     1      -4.956  -1.239  -1.331  1.00  0.00     0.182 C 
HETATM   11  O   LIG     1      -5.570   0.064  -1.322  1.00  0.00    -0.389 OA
HETATM   12  C   LIG     1      -4.563   1.087  -1.383  1.00  0.00     0.182 C 
HETATM   13  C   LIG     1      -3.614   0.999  -0.176  1.00  0.00     0.123 C 
ENDBRANCH   1   8
BRANCH   5  14
HETATM   14  C   LIG     1       1.472   1.170  -1.677  1.00  0.00     0.203 C 
BRANCH  14  15
HETATM   15  O   LIG     1       2.668   0.497  -1.315  1.00  0.00    -0.396 OA
ATOM     16  HO  LIG     1       3.396   1.107  -1.285  1.00  0.00     0.209 HD
ENDBRANCH  14  15
ENDBRANCH   5  14
TORSDOF 3
