REMARK  4 active torsions:
REMARK  status: ('A' for Active; 'I' for Inactive)
REMARK    1  A    between atoms: N_3  and  C_7 
REMARK    2  A    between atoms: C_7  and  C_8 
REMARK    3  A    between atoms: C_9  and  C_16 
REMARK    4  A    between atoms: O_14  and  C_16 
ROOT
HETATM    1  C   LIG     1      -0.157  -3.567  -1.836  1.00  0.00    -0.040 A 
HETATM    2  C   LIG     1       0.565  -4.617  -4.356  1.00  0.00    -0.035 A 
HETATM    3  C   LIG     1       0.440  -2.750  -2.807  1.00  0.00     0.009 A 
HETATM    4  C   LIG     1      -0.355  -4.923  -2.126  1.00  0.00     0.009 A 
HETATM    5  C   LIG     1      -0.001  -5.442  -3.375  1.00  0.00     0.010 A 
HETATM    6  C   LIG     1       0.795  -3.270  -4.055  1.00  0.00     0.010 A 
ENDROOT
BRANCH   1   7
HETATM    7  C   LIG     1      -0.577  -2.996  -0.507  1.00  0.00     0.167 C 
BRANCH   7   8
HETATM    8  N   LIG     1       0.483  -3.079   0.478  1.00  0.00    -0.347 N 
HETATM    9  C   LIG     1       0.650  -4.082   1.391  1.00  0.00     0.182 A 
HETATM   10  N   LIG     1       1.665  -3.841   2.190  1.00  0.00    -0.361 N 
HETATM   11  C   LIG     1       2.170  -2.634   1.778  1.00  0.00     0.106 A 
ATOM     12  HN  LIG     1       2.005  -4.426   2.953  1.00  0.00     0.166 HD
HETATM   13  C   LIG     1       1.444  -2.135   0.723  1.00  0.00     0.109 A 
ENDBRANCH   7   8
ENDBRANCH   1   7
BRANCH   2  14
HETATM   14  C   LIG     1       0.898  -5.173  -5.716  1.00  0.00     0.202 C 
BRANCH  14  15
HETATM   15  O   LIG     1       1.859  -6.214  -5.617  1.00  0.00    -0.396 OA
ATOM     16  HO  LIG     1       2.069  -6.565  -6.475  1.00  0.00     0.209 HD
ENDBRANCH  14  15
ENDBRANCH   2  14
TORSDOF 4
