REMARK  3 active torsions:
REMARK  status: ('A' for Active; 'I' for Inactive)
REMARK    1  A    between atoms: N_1  and  C_2 
REMARK    2  A    between atoms: C_3  and  C_6 
REMARK    3  A    between atoms: C_6  and  O_7 
ROOT
HETATM    1  C   LIG     1      -1.548  -1.701  -0.792  1.00  0.00     0.038 A 
HETATM    2  C   LIG     1      -2.564  -1.626  -1.781  1.00  0.00    -0.008 A 
HETATM    3  C   LIG     1      -1.184  -2.981  -0.338  1.00  0.00     0.030 A 
HETATM    4  C   LIG     1      -3.159  -2.805  -2.271  1.00  0.00     0.011 A 
HETATM    5  C   LIG     1      -1.783  -4.142  -0.832  1.00  0.00     0.002 A 
HETATM    6  C   LIG     1      -2.773  -4.055  -1.803  1.00  0.00     0.001 A 
ENDROOT
BRANCH   1   7
HETATM    7  N   LIG     1      -0.963  -0.538  -0.289  1.00  0.00    -0.380 N 
HETATM    8  C   LIG     1      -0.439  -0.481   1.083  1.00  0.00     0.123 C 
HETATM    9  C   LIG     1       0.450   0.758   1.064  1.00  0.00     0.021 C 
HETATM   10  C   LIG     1       1.111   0.643  -0.298  1.00  0.00     0.021 C 
HETATM   11  C   LIG     1      -0.024   0.152  -1.197  1.00  0.00     0.123 C 
ENDBRANCH   1   7
BRANCH   2  12
HETATM   12  C   LIG     1      -3.100  -0.308  -2.290  1.00  0.00     0.205 C 
BRANCH  12  13
HETATM   13  O   LIG     1      -3.708   0.437  -1.242  1.00  0.00    -0.396 OA
ATOM     14  HO  LIG     1      -4.045   1.266  -1.562  1.00  0.00     0.209 HD
ENDBRANCH  12  13
ENDBRANCH   2  12
TORSDOF 3
