REMARK  3 active torsions:
REMARK  status: ('A' for Active; 'I' for Inactive)
REMARK    1  A    between atoms: C_1  and  C_2 
REMARK    2  A    between atoms: C_12  and  C_17 
REMARK    3  A    between atoms: O_15  and  C_17 
ROOT
HETATM    1  C   LIG     1      -1.360   2.418  -0.079  1.00  0.00    -0.023 A 
HETATM    2  C   LIG     1      -2.761   2.446  -0.197  1.00  0.00     0.013 A 
HETATM    3  C   LIG     1      -0.688   3.653  -0.106  1.00  0.00     0.013 A 
HETATM    4  C   LIG     1      -1.383   4.862  -0.233  1.00  0.00     0.010 A 
HETATM    5  C   LIG     1      -3.459   3.653  -0.334  1.00  0.00     0.010 A 
HETATM    6  C   LIG     1      -2.776   4.872  -0.338  1.00  0.00    -0.035 A 
ENDROOT
BRANCH   1   7
HETATM    7  C   LIG     1      -0.626   1.147   0.063  1.00  0.00     0.005 A 
HETATM    8  C   LIG     1       0.498   0.999   0.861  1.00  0.00     0.102 A 
HETATM    9  N   LIG     1       1.199  -0.151   1.009  1.00  0.00    -0.361 N 
HETATM   10  C   LIG     1       0.734  -1.203   0.325  1.00  0.00     0.180 A 
ATOM     11  HN  LIG     1       2.026  -0.211   1.602  1.00  0.00     0.166 HD
HETATM   12  N   LIG     1      -0.338  -1.205  -0.476  1.00  0.00    -0.361 N 
HETATM   13  C   LIG     1      -0.988  -0.022  -0.587  1.00  0.00     0.102 A 
ATOM     14  HN  LIG     1      -0.645  -2.042  -0.970  1.00  0.00     0.166 HD
ENDBRANCH   1   7
BRANCH   6  15
HETATM   15  C   LIG     1      -3.525   6.168  -0.501  1.00  0.00     0.202 C 
BRANCH  15  16
HETATM   16  O   LIG     1      -3.611   6.531  -1.871  1.00  0.00    -0.396 OA
ATOM     17  HO  LIG     1      -4.084   7.349  -1.974  1.00  0.00     0.209 HD
ENDBRANCH  15  16
ENDBRANCH   6  15
TORSDOF 3
