REMARK  1 active torsions:
REMARK  status: ('A' for Active; 'I' for Inactive)
REMARK    1  A    between atoms: C_5  and  C_6 
ROOT
HETATM    1  C   LIG     1      -0.286  -0.675  -0.008  1.00  0.00     0.045 A 
HETATM    2  N   LIG     1      -1.605  -1.080   0.018  1.00  0.00    -0.360 N 
HETATM    3  C   LIG     1       0.908  -1.414  -0.080  1.00  0.00     0.049 A 
HETATM    4  C   LIG     1      -2.435   0.008   0.088  1.00  0.00     0.091 A 
HETATM    5  C   LIG     1       2.122  -0.709  -0.083  1.00  0.00     0.043 A 
HETATM    6  C   LIG     1      -1.649   1.137   0.113  1.00  0.00     0.031 A 
HETATM    7  C   LIG     1      -0.291   0.722   0.054  1.00  0.00    -0.008 A 
HETATM    8  C   LIG     1       2.134   0.688  -0.021  1.00  0.00     0.019 A 
HETATM    9  C   LIG     1       0.937   1.412   0.047  1.00  0.00     0.015 A 
HETATM   10  C   LIG     1      -2.057  -2.453  -0.026  1.00  0.00     0.155 C 
ENDROOT
BRANCH   5  11
HETATM   11  C   LIG     1       3.427  -1.413  -0.152  1.00  0.00     0.209 C 
HETATM   12  O   LIG     1       4.524  -0.886  -0.162  1.00  0.00    -0.644 OA
HETATM   13  O   LIG     1       3.300  -2.752  -0.202  1.00  0.00    -0.644 OA
ENDBRANCH   5  11
TORSDOF 1
