REMARK  3 active torsions:
REMARK  status: ('A' for Active; 'I' for Inactive)
REMARK    1  A    between atoms: C_1  and  C_3 
REMARK    2  A    between atoms: C_8  and  C_14 
REMARK    3  A    between atoms: N_9  and  C_14 
ROOT
HETATM    1  C   LIG     1      -0.715  -2.484  -0.076  1.00  0.00    -0.018 A 
HETATM    2  C   LIG     1       0.179  -3.528   0.225  1.00  0.00     0.021 A 
HETATM    3  C   LIG     1      -0.205  -4.877   0.129  1.00  0.00    -0.032 A 
HETATM    4  C   LIG     1      -2.019  -2.825  -0.468  1.00  0.00     0.013 A 
HETATM    5  C   LIG     1      -2.414  -4.162  -0.568  1.00  0.00     0.001 A 
HETATM    6  C   LIG     1      -1.510  -5.181  -0.277  1.00  0.00     0.009 A 
ENDROOT
BRANCH   1   7
HETATM    7  C   LIG     1      -0.320  -1.066   0.027  1.00  0.00     0.015 A 
HETATM    8  S   LIG     1       1.289  -0.567  -0.329  1.00  0.00    -0.101 SA
HETATM    9  C   LIG     1       0.941   1.071  -0.001  1.00  0.00     0.050 A 
HETATM   10  C   LIG     1      -0.373   1.256   0.353  1.00  0.00     0.008 A 
HETATM   11  C   LIG     1      -1.100   0.029   0.367  1.00  0.00     0.020 A 
ENDBRANCH   1   7
BRANCH   3  12
HETATM   12  C   LIG     1       0.780  -5.980   0.445  1.00  0.00     0.270 C 
BRANCH  12  13
HETATM   13  N   LIG     1       0.310  -6.805   1.558  1.00  0.00    -0.075 N 
HETATM   14  C   LIG     1       1.266  -7.859   1.867  1.00  0.00     0.267 C 
ATOM     15  HN2 LIG     1       0.094  -6.240   2.380  1.00  0.00     0.277 HD
ATOM     16  HN1 LIG     1      -0.621  -7.182   1.380  1.00  0.00     0.277 HD
ENDBRANCH  12  13
ENDBRANCH   3  12
TORSDOF 3
