REMARK  2 active torsions:
REMARK  status: ('A' for Active; 'I' for Inactive)
REMARK    1  A    between atoms: C_5  and  C_11 
REMARK    2  A    between atoms: C_11  and  O_13 
ROOT
HETATM    1  C   LIG     1       0.314  -0.680   0.037  1.00  0.00     0.018 A 
HETATM    2  N   LIG     1       1.582   1.198  -0.043  1.00  0.00    -0.298 N 
ATOM      3  HN  LIG     1       1.904   2.166  -0.067  1.00  0.00     0.187 HD
HETATM    4  N   LIG     1       2.339   0.081  -0.051  1.00  0.00    -0.297 N 
HETATM    5  C   LIG     1       1.625  -1.093   0.010  1.00  0.00     0.064 A 
HETATM    6  C   LIG     1       0.315   0.761   0.004  1.00  0.00     0.060 A 
HETATM    7  C   LIG     1      -0.804  -1.509   0.090  1.00  0.00     0.016 A 
HETATM    8  C   LIG     1      -0.889   1.483   0.024  1.00  0.00     0.032 A 
HETATM    9  C   LIG     1      -1.998  -0.760   0.109  1.00  0.00     0.001 A 
HETATM   10  C   LIG     1      -2.042   0.669   0.077  1.00  0.00     0.002 A 
HETATM   11  C   LIG     1       3.777   0.226  -0.113  1.00  0.00     0.177 C 
ENDROOT
BRANCH   5  12
HETATM   12  C   LIG     1       2.242  -2.439   0.008  1.00  0.00     0.223 C 
BRANCH  12  13
HETATM   13  O   LIG     1       1.864  -3.092   1.211  1.00  0.00    -0.395 OA
ATOM     14  HO  LIG     1       2.260  -3.956   1.210  1.00  0.00     0.209 HD
ENDBRANCH  12  13
ENDBRANCH   5  12
TORSDOF 2
