REMARK  4 active torsions:
REMARK  status: ('A' for Active; 'I' for Inactive)
REMARK    1  A    between atoms: N_1  and  C_3 
REMARK    2  A    between atoms: C_3  and  C_8 
REMARK    3  A    between atoms: C_9  and  C_19 
REMARK    4  A    between atoms: N_10  and  C_19 
ROOT
HETATM    1  C   LIG     1       0.358  -0.077  -3.172  1.00  0.00    -0.030 A 
HETATM    2  C   LIG     1      -0.071  -1.109  -5.773  1.00  0.00    -0.033 A 
HETATM    3  C   LIG     1       1.438  -0.479  -3.968  1.00  0.00     0.009 A 
HETATM    4  C   LIG     1      -0.939  -0.200  -3.690  1.00  0.00     0.009 A 
HETATM    5  C   LIG     1       1.228  -0.987  -5.255  1.00  0.00     0.009 A 
HETATM    6  C   LIG     1      -1.148  -0.710  -4.975  1.00  0.00     0.009 A 
ENDROOT
BRANCH   1   7
HETATM    7  C   LIG     1       0.582   0.495  -1.787  1.00  0.00     0.311 C 
BRANCH   7   8
HETATM    8  N   LIG     1      -0.075  -0.269  -0.706  1.00  0.00     0.096 N 
HETATM    9  C   LIG     1       0.113   0.397   0.602  1.00  0.00     0.303 C 
HETATM   10  C   LIG     1       1.564   0.352   1.144  1.00  0.00     0.302 C 
HETATM   11  N   LIG     1       2.180  -0.990   1.182  1.00  0.00     0.087 N 
HETATM   12  C   LIG     1       1.915  -1.722  -0.075  1.00  0.00     0.302 C 
HETATM   13  C   LIG     1       1.718  -1.752   2.341  1.00  0.00     0.310 C 
HETATM   14  C   LIG     1       0.459  -1.643  -0.593  1.00  0.00     0.303 C 
ENDBRANCH   7   8
ENDBRANCH   1   7
BRANCH   2  15
HETATM   15  C   LIG     1      -0.288  -1.624  -7.175  1.00  0.00     0.268 C 
BRANCH  15  16
HETATM   16  N   LIG     1      -1.106  -2.831  -7.201  1.00  0.00    -0.075 N 
ATOM     17  HN3 LIG     1      -0.713  -3.555  -6.599  1.00  0.00     0.274 HD
ATOM     18  HN2 LIG     1      -1.994  -2.684  -6.721  1.00  0.00     0.274 HD
ATOM     19  HN1 LIG     1      -1.253  -3.179  -8.148  1.00  0.00     0.274 HD
ENDBRANCH  15  16
ENDBRANCH   2  15
TORSDOF 4
