REMARK  4 active torsions:
REMARK  status: ('A' for Active; 'I' for Inactive)
REMARK    1  A    between atoms: C_1  and  C_3 
REMARK    2  A    between atoms: C_1  and  O_9 
REMARK    3  A    between atoms: N_2  and  C_5 
REMARK    4  A    between atoms: C_5  and  C_8 
ROOT
HETATM    1  C   LIG     1       1.068   4.951   5.670  1.00  0.00     0.039 A 
HETATM    2  C   LIG     1       0.471   5.777   4.712  1.00  0.00     0.018 A 
HETATM    3  C   LIG     1       0.910   3.562   5.582  1.00  0.00     0.018 A 
HETATM    4  C   LIG     1      -0.446   3.822   3.582  1.00  0.00    -0.030 A 
HETATM    5  C   LIG     1      -0.285   5.215   3.679  1.00  0.00     0.010 A 
HETATM    6  C   LIG     1       0.159   3.003   4.545  1.00  0.00     0.010 A 
ENDROOT
BRANCH   4   7
HETATM    7  C   LIG     1      -1.278   3.221   2.465  1.00  0.00     0.311 C 
BRANCH   7   8
HETATM    8  N   LIG     1      -0.541   2.314   1.563  1.00  0.00     0.092 N 
HETATM    9  C   LIG     1       0.580   2.964   0.865  1.00  0.00     0.272 C 
HETATM   10  C   LIG     1       0.149   4.009  -0.167  1.00  0.00     0.030 C 
HETATM   11  C   LIG     1      -0.902   3.479  -1.141  1.00  0.00     0.003 C 
HETATM   12  C   LIG     1      -2.013   2.707  -0.436  1.00  0.00     0.030 C 
HETATM   13  C   LIG     1      -1.436   1.700   0.564  1.00  0.00     0.272 C 
ENDBRANCH   7   8
ENDBRANCH   4   7
BRANCH   1  14
HETATM   14  C   LIG     1       1.881   5.570   6.749  1.00  0.00     0.292 C 
HETATM   15  O   LIG     1       2.434   6.650   6.651  1.00  0.00    -0.259 OA
BRANCH  14  16
HETATM   16  O   LIG     1       1.871   4.762   7.839  1.00  0.00    -0.323 OA
HETATM   17  C   LIG     1       2.628   5.239   8.952  1.00  0.00     0.213 C 
ENDBRANCH  14  16
ENDBRANCH   1  14
TORSDOF 4
