REMARK  4 active torsions:
REMARK  status: ('A' for Active; 'I' for Inactive)
REMARK    1  A    between atoms: N_1  and  C_3 
REMARK    2  A    between atoms: C_3  and  C_8 
REMARK    3  A    between atoms: C_9  and  C_17 
REMARK    4  A    between atoms: O_15  and  C_17 
ROOT
HETATM    1  C   LIG     1       0.654  -0.041  -3.110  1.00  0.00    -0.030 A 
HETATM    2  C   LIG     1       0.577  -1.037  -5.753  1.00  0.00    -0.035 A 
HETATM    3  C   LIG     1      -0.568  -0.198  -3.779  1.00  0.00     0.009 A 
HETATM    4  C   LIG     1       1.837  -0.372  -3.783  1.00  0.00     0.009 A 
HETATM    5  C   LIG     1      -0.604  -0.692  -5.088  1.00  0.00     0.010 A 
HETATM    6  C   LIG     1       1.801  -0.870  -5.088  1.00  0.00     0.010 A 
ENDROOT
BRANCH   1   7
HETATM    7  C   LIG     1       0.695   0.494  -1.692  1.00  0.00     0.311 C 
BRANCH   7   8
HETATM    8  N   LIG     1      -0.023  -0.344  -0.712  1.00  0.00     0.096 N 
HETATM    9  C   LIG     1      -0.093   0.334   0.601  1.00  0.00     0.303 C 
HETATM   10  C   LIG     1       1.251   0.402   1.370  1.00  0.00     0.302 C 
HETATM   11  N   LIG     1       1.958  -0.885   1.521  1.00  0.00     0.087 N 
HETATM   12  C   LIG     1       1.972  -1.618   0.238  1.00  0.00     0.302 C 
HETATM   13  C   LIG     1       1.371  -1.693   2.589  1.00  0.00     0.310 C 
HETATM   14  C   LIG     1       0.617  -1.663  -0.510  1.00  0.00     0.303 C 
ENDBRANCH   7   8
ENDBRANCH   1   7
BRANCH   2  15
HETATM   15  C   LIG     1       0.541  -1.605  -7.147  1.00  0.00     0.202 C 
BRANCH  15  16
HETATM   16  O   LIG     1       1.266  -0.777  -8.046  1.00  0.00    -0.396 OA
ATOM     17  HO  LIG     1       1.243  -1.135  -8.926  1.00  0.00     0.209 HD
ENDBRANCH  15  16
ENDBRANCH   2  15
TORSDOF 4
