REMARK  4 active torsions:
REMARK  status: ('A' for Active; 'I' for Inactive)
REMARK    1  A    between atoms: N_1  and  C_3 
REMARK    2  A    between atoms: C_3  and  C_4 
REMARK    3  A    between atoms: C_10  and  C_16 
REMARK    4  A    between atoms: O_12  and  C_16 
ROOT
HETATM    1  C   LIG     1       0.257   0.024  -2.759  1.00  0.00    -0.030 A 
HETATM    2  C   LIG     1       1.117  -0.642  -3.647  1.00  0.00     0.018 A 
HETATM    3  C   LIG     1       0.612  -1.395  -4.716  1.00  0.00    -0.034 A 
HETATM    4  C   LIG     1      -1.640  -0.818  -4.018  1.00  0.00     0.001 A 
HETATM    5  C   LIG     1      -1.128  -0.072  -2.957  1.00  0.00     0.009 A 
HETATM    6  C   LIG     1      -0.777  -1.474  -4.894  1.00  0.00     0.009 A 
ENDROOT
BRANCH   1   7
HETATM    7  C   LIG     1       0.817   0.864  -1.629  1.00  0.00     0.311 C 
BRANCH   7   8
HETATM    8  N   LIG     1       0.353   0.460  -0.288  1.00  0.00     0.096 N 
HETATM    9  C   LIG     1       0.812   1.428   0.731  1.00  0.00     0.303 C 
HETATM   10  C   LIG     1       2.329   1.375   1.040  1.00  0.00     0.302 C 
HETATM   11  N   LIG     1       2.857   0.037   1.371  1.00  0.00     0.087 N 
HETATM   12  C   LIG     1       2.347  -0.970   0.418  1.00  0.00     0.302 C 
HETATM   13  C   LIG     1       2.548  -0.329   2.752  1.00  0.00     0.310 C 
HETATM   14  C   LIG     1       0.833  -0.883   0.103  1.00  0.00     0.303 C 
ENDBRANCH   7   8
ENDBRANCH   1   7
BRANCH   3  15
HETATM   15  C   LIG     1       1.536  -2.105  -5.669  1.00  0.00     0.202 C 
BRANCH  15  16
HETATM   16  O   LIG     1       1.303  -3.507  -5.652  1.00  0.00    -0.396 OA
ATOM     17  HO  LIG     1       1.886  -3.955  -6.253  1.00  0.00     0.209 HD
ENDBRANCH  15  16
ENDBRANCH   3  15
TORSDOF 4
