REMARK  3 active torsions:
REMARK  status: ('A' for Active; 'I' for Inactive)
REMARK    1  A    between atoms: C_3  and  C_7 
REMARK    2  A    between atoms: C_5  and  C_11 
REMARK    3  A    between atoms: C_11  and  O_12 
ROOT
HETATM    1  N   UNK     1       0.072  -0.220   0.081  1.00  0.00    -0.351 N 
ATOM      2  HN  UNK     1       0.800  -0.934   0.058  1.00  0.00     0.166 HD
HETATM    3  C   UNK     1       0.297   1.084   0.041  1.00  0.00     0.084 A 
HETATM    4  S   UNK     1      -1.138   2.045   0.093  1.00  0.00    -0.081 SA
HETATM    5  C   UNK     1      -1.292  -0.485   0.159  1.00  0.00     0.040 A 
HETATM    6  C   UNK     1      -2.097   0.635   0.177  1.00  0.00     0.079 A 
ENDROOT
BRANCH   3   7
HETATM    7  C   UNK     1       1.644   1.690  -0.041  1.00  0.00    -0.001 A 
HETATM    8  C   UNK     1       1.867   3.078  -0.060  1.00  0.00     0.038 A 
HETATM    9  C   UNK     1       3.165   3.592  -0.136  1.00  0.00     0.035 A 
HETATM   10 CL   UNK     1       3.404   5.297  -0.157  1.00  0.00    -0.084 Cl
HETATM   11  C   UNK     1       4.265   2.742  -0.194  1.00  0.00     0.024 A 
HETATM   12  C   UNK     1       4.067   1.365  -0.176  1.00  0.00     0.003 A 
HETATM   13  C   UNK     1       2.770   0.847  -0.099  1.00  0.00     0.014 A 
ENDBRANCH   3   7
BRANCH   5  14
HETATM   14  C   UNK     1      -1.743  -1.909   0.219  1.00  0.00     0.221 C 
BRANCH  14  15
HETATM   15  O   UNK     1      -0.842  -2.775  -0.468  1.00  0.00    -0.395 OA
ATOM     16  HO  UNK     1      -1.129  -3.680  -0.430  1.00  0.00     0.209 HD
ENDBRANCH  14  15
ENDBRANCH   5  14
TORSDOF 3
