REMARK  3 active torsions:
REMARK  status: ('A' for Active; 'I' for Inactive)
REMARK    1  A    between atoms: C_1  and  C_2 
REMARK    2  A    between atoms: C_7  and  C_12 
REMARK    3  A    between atoms: N_8  and  C_12 
ROOT
HETATM    1  C   LIG     1      -0.965  -2.223  -0.174  1.00  0.00     0.006 A 
HETATM    2  C   LIG     1      -2.107  -2.869  -0.705  1.00  0.00    -0.020 A 
HETATM    3  C   LIG     1       0.039  -3.009   0.431  1.00  0.00     0.015 A 
HETATM    4  C   LIG     1      -2.216  -4.271  -0.560  1.00  0.00     0.010 A 
HETATM    5  C   LIG     1      -0.075  -4.396   0.529  1.00  0.00     0.001 A 
HETATM    6  C   LIG     1      -1.207  -5.027   0.036  1.00  0.00     0.001 A 
ENDROOT
BRANCH   1   7
HETATM    7  C   LIG     1      -0.738  -0.776  -0.225  1.00  0.00     0.085 A 
HETATM    8  O   LIG     1      -1.830   0.037  -0.097  1.00  0.00    -0.322 OA
HETATM    9  C   LIG     1      -1.388   1.320  -0.148  1.00  0.00     0.142 A 
HETATM   10  C   LIG     1      -0.020   1.354  -0.288  1.00  0.00     0.027 A 
HETATM   11  C   LIG     1       0.399   0.003  -0.330  1.00  0.00     0.040 A 
ENDBRANCH   1   7
BRANCH   2  12
HETATM   12  C   LIG     1      -3.233  -2.105  -1.374  1.00  0.00     0.269 C 
BRANCH  12  13
HETATM   13  N   LIG     1      -3.951  -2.888  -2.388  1.00  0.00    -0.075 N 
ATOM     14  HN3 LIG     1      -3.303  -3.259  -3.083  1.00  0.00     0.274 HD
ATOM     15  HN2 LIG     1      -4.294  -3.763  -1.992  1.00  0.00     0.274 HD
ATOM     16  HN1 LIG     1      -4.708  -2.374  -2.838  1.00  0.00     0.274 HD
ENDBRANCH  12  13
ENDBRANCH   2  12
TORSDOF 3
