REMARK  2 active torsions:
REMARK  status: ('A' for Active; 'I' for Inactive)
REMARK    1  A    between atoms: C_1  and  C_3 
REMARK    2  A    between atoms: C_2  and  C_4 
ROOT
HETATM    1  C   LIG     1      -1.263  -1.238   0.080  1.00  0.00     0.015 A 
HETATM    2  C   LIG     1      -1.724   0.087  -0.041  1.00  0.00     0.053 A 
HETATM    3  C   LIG     1      -0.807   1.156  -0.113  1.00  0.00     0.019 A 
HETATM    4  C   LIG     1       0.133  -1.442   0.125  1.00  0.00     0.015 A 
HETATM    5  C   LIG     1       1.036  -0.378   0.054  1.00  0.00     0.001 A 
HETATM    6  C   LIG     1       0.566   0.923  -0.067  1.00  0.00     0.001 A 
ENDROOT
BRANCH   1   7
HETATM    7  C   LIG     1      -2.131  -2.416   0.118  1.00  0.00     0.086 A 
HETATM    8  O   LIG     1      -1.649  -3.477   0.841  1.00  0.00    -0.322 OA
HETATM    9  C   LIG     1      -2.562  -4.476   0.762  1.00  0.00     0.142 A 
HETATM   10  C   LIG     1      -3.630  -4.089  -0.010  1.00  0.00     0.027 A 
HETATM   11  C   LIG     1      -3.350  -2.765  -0.432  1.00  0.00     0.040 A 
ENDBRANCH   1   7
BRANCH   2  12
HETATM   12  C   LIG     1      -3.163   0.436  -0.032  1.00  0.00     0.210 C 
HETATM   13  O   LIG     1      -4.040  -0.041   0.661  1.00  0.00    -0.644 OA
HETATM   14  O   LIG     1      -3.434   1.401  -0.933  1.00  0.00    -0.644 OA
ENDBRANCH   2  12
TORSDOF 2
