REMARK  3 active torsions:
REMARK  status: ('A' for Active; 'I' for Inactive)
REMARK    1  A    between atoms: C_4  and  C_8 
REMARK    2  A    between atoms: C_6  and  C_7 
REMARK    3  A    between atoms: C_8  and  O_10 
ROOT
HETATM    1  N   LIG     1       0.873  -0.775   0.033  1.00  0.00    -0.298 N 
ATOM      2  HN  LIG     1       1.653  -1.431   0.072  1.00  0.00     0.187 HD
HETATM    3  N   LIG     1       0.937   0.567  -0.004  1.00  0.00    -0.298 N 
HETATM    4  C   LIG     1      -0.291   1.170  -0.045  1.00  0.00     0.053 A 
HETATM    5  C   LIG     1      -1.200   0.133  -0.040  1.00  0.00     0.060 A 
HETATM    6  C   LIG     1      -0.438  -1.067   0.007  1.00  0.00     0.060 A 
HETATM    7  C   LIG     1       2.229   1.214   0.030  1.00  0.00     0.177 C 
ENDROOT
BRANCH   6   8
HETATM    8  C   LIG     1      -0.924  -2.454   0.028  1.00  0.00    -0.008 A 
HETATM    9  C   LIG     1      -2.297  -2.744  -0.000  1.00  0.00     0.014 A 
HETATM   10  C   LIG     1      -2.752  -4.067   0.019  1.00  0.00     0.001 A 
HETATM   11  C   LIG     1      -1.841  -5.118   0.067  1.00  0.00     0.000 A 
HETATM   12  C   LIG     1      -0.475  -4.849   0.095  1.00  0.00     0.001 A 
HETATM   13  C   LIG     1      -0.021  -3.527   0.076  1.00  0.00     0.014 A 
ENDBRANCH   6   8
BRANCH   4  14
HETATM   14  C   LIG     1      -0.493   2.633  -0.100  1.00  0.00     0.222 C 
BRANCH  14  15
HETATM   15  O   LIG     1       0.058   3.178   1.087  1.00  0.00    -0.395 OA
ATOM     16  HO  LIG     1      -0.072   4.118   1.052  1.00  0.00     0.209 HD
ENDBRANCH  14  15
ENDBRANCH   4  14
TORSDOF 3
