REMARK  3 active torsions:
REMARK  status: ('A' for Active; 'I' for Inactive)
REMARK    1  A    between atoms: C_4  and  C_8 
REMARK    2  A    between atoms: C_6  and  C_7 
REMARK    3  A    between atoms: C_8  and  N_10 
ROOT
HETATM    1  N   LIG     1       0.967  -0.772   0.035  1.00  0.00    -0.298 N 
ATOM      2  HN  LIG     1       1.769  -1.403   0.037  1.00  0.00     0.187 HD
HETATM    3  N   LIG     1       0.985   0.574   0.027  1.00  0.00    -0.299 N 
HETATM    4  C   LIG     1      -0.263   1.138   0.032  1.00  0.00     0.056 A 
HETATM    5  C   LIG     1      -1.135   0.070   0.031  1.00  0.00     0.060 A 
HETATM    6  C   LIG     1      -0.333  -1.105   0.040  1.00  0.00     0.060 A 
HETATM    7  C   LIG     1       2.258   1.257   0.008  1.00  0.00     0.177 C 
ENDROOT
BRANCH   6   8
HETATM    8  C   LIG     1      -0.778  -2.505   0.044  1.00  0.00    -0.008 A 
HETATM    9  C   LIG     1      -2.142  -2.830   0.030  1.00  0.00     0.014 A 
HETATM   10  C   LIG     1      -2.562  -4.163   0.026  1.00  0.00     0.001 A 
HETATM   11  C   LIG     1      -1.622  -5.191   0.040  1.00  0.00     0.000 A 
HETATM   12  C   LIG     1      -0.262  -4.887   0.058  1.00  0.00     0.001 A 
HETATM   13  C   LIG     1       0.156  -3.553   0.060  1.00  0.00     0.014 A 
ENDBRANCH   6   8
BRANCH   4  14
HETATM   14  C   LIG     1      -0.530   2.599   0.012  1.00  0.00     0.290 C 
BRANCH  14  15
HETATM   15  N   LIG     1       0.026   3.222   1.209  1.00  0.00    -0.074 N 
HETATM   16  C   LIG     1      -0.235   4.654   1.226  1.00  0.00     0.267 C 
ATOM     17  HN2 LIG     1      -0.311   2.769   2.059  1.00  0.00     0.277 HD
ATOM     18  HN1 LIG     1       1.021   3.021   1.309  1.00  0.00     0.277 HD
ENDBRANCH  14  15
ENDBRANCH   4  14
TORSDOF 3
