REMARK  3 active torsions:
REMARK  status: ('A' for Active; 'I' for Inactive)
REMARK    1  A    between atoms: C_1  and  C_2 
REMARK    2  A    between atoms: C_8  and  C_14 
REMARK    3  A    between atoms: N_9  and  C_14 
ROOT
HETATM    1  C   LIG     1      -0.948  -2.218  -0.053  1.00  0.00    -0.002 A 
HETATM    2  C   LIG     1      -0.115  -3.308   0.244  1.00  0.00     0.023 A 
HETATM    3  C   LIG     1      -0.585  -4.633   0.178  1.00  0.00    -0.032 A 
HETATM    4  C   LIG     1      -2.277  -2.482  -0.417  1.00  0.00     0.014 A 
HETATM    5  C   LIG     1      -2.759  -3.791  -0.480  1.00  0.00     0.002 A 
HETATM    6  C   LIG     1      -1.918  -4.861  -0.183  1.00  0.00     0.009 A 
ENDROOT
BRANCH   1   7
HETATM    7  C   LIG     1      -0.443  -0.848   0.019  1.00  0.00     0.085 A 
HETATM    8  O   LIG     1      -1.329   0.146  -0.302  1.00  0.00    -0.322 OA
HETATM    9  C   LIG     1      -0.680   1.330  -0.175  1.00  0.00     0.142 A 
HETATM   10  C   LIG     1       0.618   1.125   0.226  1.00  0.00     0.027 A 
HETATM   11  C   LIG     1       0.773  -0.278   0.350  1.00  0.00     0.040 A 
ENDBRANCH   1   7
BRANCH   3  12
HETATM   12  C   LIG     1       0.333  -5.787   0.510  1.00  0.00     0.270 C 
BRANCH  12  13
HETATM   13  N   LIG     1       1.489  -5.816  -0.387  1.00  0.00    -0.075 N 
HETATM   14  C   LIG     1       2.359  -6.942  -0.086  1.00  0.00     0.267 C 
ATOM     15  HN2 LIG     1       1.204  -5.813  -1.366  1.00  0.00     0.277 HD
ATOM     16  HN1 LIG     1       1.999  -4.933  -0.370  1.00  0.00     0.277 HD
ENDBRANCH  12  13
ENDBRANCH   3  12
TORSDOF 3
