REMARK  3 active torsions:
REMARK  status: ('A' for Active; 'I' for Inactive)
REMARK    1  A    between atoms: C_4  and  C_7 
REMARK    2  A    between atoms: C_6  and  C_9 
REMARK    3  A    between atoms: C_9  and  N_10 
ROOT
HETATM    1  N   LIG     1       1.003  -0.566  -0.177  1.00  0.00    -0.296 N 
HETATM    2  N   LIG     1       0.959   0.783  -0.140  1.00  0.00    -0.301 N 
ATOM      3  HN  LIG     1       1.732   1.438  -0.255  1.00  0.00     0.187 HD
HETATM    4  C   LIG     1      -0.214  -1.171   0.056  1.00  0.00     0.062 A 
HETATM    5  C   LIG     1      -1.098  -0.113   0.209  1.00  0.00     0.060 A 
HETATM    6  C   LIG     1      -0.330   1.064   0.082  1.00  0.00     0.053 A 
HETATM    7  C   LIG     1       2.268  -1.189  -0.491  1.00  0.00     0.178 C 
ENDROOT
BRANCH   4   8
HETATM    8  C   LIG     1      -0.494  -2.611   0.065  1.00  0.00    -0.008 A 
HETATM    9  C   LIG     1       0.365  -3.533   0.679  1.00  0.00     0.014 A 
HETATM   10  C   LIG     1       0.070  -4.900   0.672  1.00  0.00     0.001 A 
HETATM   11  C   LIG     1      -1.099  -5.361   0.072  1.00  0.00     0.000 A 
HETATM   12  C   LIG     1      -1.975  -4.456  -0.521  1.00  0.00     0.001 A 
HETATM   13  C   LIG     1      -1.672  -3.092  -0.525  1.00  0.00     0.014 A 
ENDBRANCH   4   8
BRANCH   6  14
HETATM   14  C   LIG     1      -0.807   2.480   0.137  1.00  0.00     0.288 C 
BRANCH  14  15
HETATM   15  N   LIG     1      -1.112   2.931  -1.222  1.00  0.00    -0.074 N 
ATOM     16  HN3 LIG     1      -0.324   2.811  -1.858  1.00  0.00     0.274 HD
ATOM     17  HN2 LIG     1      -1.773   2.316  -1.697  1.00  0.00     0.274 HD
ATOM     18  HN1 LIG     1      -1.437   3.897  -1.184  1.00  0.00     0.274 HD
ENDBRANCH  14  15
ENDBRANCH   6  14
TORSDOF 3
