REMARK  3 active torsions:
REMARK  status: ('A' for Active; 'I' for Inactive)
REMARK    1  A    between atoms: C_3  and  C_7 
REMARK    2  A    between atoms: C_6  and  C_12 
REMARK    3  A    between atoms: C_12  and  N_14 
ROOT
HETATM    1  N   LIG     1       0.940  -0.827   0.006  1.00  0.00    -0.297 N 
ATOM      2  HN  LIG     1       1.671  -1.538   0.028  1.00  0.00     0.187 HD
HETATM    3  C   LIG     1      -0.387  -1.014  -0.028  1.00  0.00     0.067 A 
HETATM    4  N   LIG     1       1.089   0.512   0.005  1.00  0.00    -0.299 N 
HETATM    5  C   LIG     1      -1.076   0.219  -0.055  1.00  0.00     0.060 A 
HETATM    6  C   LIG     1      -0.100   1.195  -0.029  1.00  0.00     0.055 A 
HETATM    7  C   LIG     1       2.422   1.068   0.053  1.00  0.00     0.177 C 
ENDROOT
BRANCH   3   8
HETATM    8  C   LIG     1      -0.991  -2.386  -0.037  1.00  0.00     0.033 A 
HETATM    9  S   LIG     1      -2.669  -2.709  -0.079  1.00  0.00    -0.100 SA
HETATM   10  C   LIG     1      -2.410  -4.400  -0.065  1.00  0.00     0.050 A 
HETATM   11  C   LIG     1      -1.070  -4.717  -0.030  1.00  0.00     0.008 A 
HETATM   12  C   LIG     1      -0.250  -3.551  -0.013  1.00  0.00     0.021 A 
ENDBRANCH   3   8
BRANCH   6  13
HETATM   13  C   LIG     1      -0.208   2.673  -0.054  1.00  0.00     0.288 C 
BRANCH  13  14
HETATM   14  N   LIG     1       0.385   3.240   1.146  1.00  0.00    -0.074 N 
ATOM     15  HN3 LIG     1      -0.018   2.843   1.995  1.00  0.00     0.274 HD
ATOM     16  HN2 LIG     1       1.348   2.930   1.278  1.00  0.00     0.274 HD
ATOM     17  HN1 LIG     1       0.311   4.257   1.129  1.00  0.00     0.274 HD
ENDBRANCH  13  14
ENDBRANCH   6  13
TORSDOF 3
