REMARK  2 active torsions:
REMARK  status: ('A' for Active; 'I' for Inactive)
REMARK    1  A    between atoms: C_3  and  C_8 
REMARK    2  A    between atoms: C_8  and  O_9 
ROOT
HETATM    1  C   LIG     1       0.290   0.645   0.023  1.00  0.00     0.117 A 
HETATM    2  C   LIG     1       0.210  -0.753  -0.189  1.00  0.00     0.109 A 
HETATM    3  C   LIG     1       1.584   1.115   0.031  1.00  0.00     0.042 A 
HETATM    4  S   LIG     1       2.694  -0.164  -0.276  1.00  0.00    -0.099 SA
HETATM    5  C   LIG     1       1.438  -1.328  -0.394  1.00  0.00     0.090 A 
HETATM    6  O   LIG     1      -0.782   1.450   0.229  1.00  0.00    -0.345 OA
HETATM    7  O   LIG     1      -0.944  -1.462  -0.210  1.00  0.00    -0.346 OA
HETATM    8  C   LIG     1      -1.994   0.767  -0.146  1.00  0.00     0.202 C 
HETATM    9  C   LIG     1      -2.014  -0.684   0.355  1.00  0.00     0.202 C 
ENDROOT
BRANCH   3  10
HETATM   10  C   LIG     1       2.069   2.509   0.230  1.00  0.00     0.213 C 
BRANCH  10  11
HETATM   11  O   LIG     1       1.678   2.928   1.533  1.00  0.00    -0.396 OA
ATOM     12  HO  LIG     1       1.987   3.817   1.660  1.00  0.00     0.209 HD
ENDBRANCH  10  11
ENDBRANCH   3  10
TORSDOF 2
