REMARK  2 active torsions:
REMARK  status: ('A' for Active; 'I' for Inactive)
REMARK    1  A    between atoms: N_1  and  C_4 
REMARK    2  A    between atoms: C_2  and  C_4 
ROOT
HETATM    1  C   LIG     1      -0.036  -0.447  -0.835  1.00  0.00     0.313 C 
ENDROOT
BRANCH   1   2
HETATM    2  N   LIG     1      -0.472   0.508   0.207  1.00  0.00     0.096 N 
HETATM    3  C   LIG     1       0.381   0.374   1.412  1.00  0.00     0.303 C 
HETATM    4  C   LIG     1       0.101  -0.869   2.299  1.00  0.00     0.302 C 
HETATM    5  N   LIG     1      -1.316  -1.080   2.657  1.00  0.00     0.087 N 
HETATM    6  C   LIG     1      -2.154  -0.959   1.448  1.00  0.00     0.302 C 
HETATM    7  C   LIG     1      -1.748  -0.149   3.700  1.00  0.00     0.310 C 
HETATM    8  C   LIG     1      -1.884   0.307   0.602  1.00  0.00     0.303 C 
ENDBRANCH   1   2
BRANCH   1   9
HETATM    9  C   LIG     1      -0.780  -0.342  -2.157  1.00  0.00    -0.006 A 
HETATM   10  C   LIG     1      -0.780   0.835  -2.931  1.00  0.00     0.054 A 
HETATM   11  N   LIG     1      -0.050   1.969  -2.529  1.00  0.00    -0.102 NA
HETATM   12  C   LIG     1      -1.334   0.804  -4.218  1.00  0.00     0.027 A 
HETATM   13  C   LIG     1      -1.981  -0.337  -4.695  1.00  0.00     0.002 A 
HETATM   14  C   LIG     1      -2.059  -1.472  -3.897  1.00  0.00     0.001 A 
HETATM   15  C   LIG     1      -1.455  -1.479  -2.641  1.00  0.00     0.011 A 
ENDBRANCH   1   9
TORSDOF 2
