REMARK  2 active torsions:
REMARK  status: ('A' for Active; 'I' for Inactive)
REMARK    1  A    between atoms: C_6  and  C_13 
REMARK    2  A    between atoms: C_13  and  O_14 
ROOT
HETATM    1  C   LIG     1      -0.138  -1.180  -0.040  1.00  0.00     0.069 A 
HETATM    2  N   LIG     1       1.042  -0.474  -0.002  1.00  0.00    -0.295 N 
HETATM    3  N   LIG     1       0.872   0.867  -0.005  1.00  0.00    -0.300 N 
ATOM      4  HN  LIG     1       1.591   1.591  -0.004  1.00  0.00     0.187 HD
HETATM    5  C   LIG     1      -1.130  -0.213  -0.023  1.00  0.00     0.061 A 
HETATM    6  C   LIG     1      -0.458   1.026  -0.009  1.00  0.00     0.051 A 
HETATM    7  C   LIG     1      -0.281  -2.612  -0.078  1.00  0.00     0.033 A 
HETATM    8  S   LIG     1      -1.612  -3.384   0.690  1.00  0.00    -0.100 SA
HETATM    9  C   LIG     1       0.528  -3.543  -0.705  1.00  0.00     0.021 A 
HETATM   10  C   LIG     1      -1.099  -4.935   0.193  1.00  0.00     0.050 A 
HETATM   11  C   LIG     1       0.062  -4.881  -0.542  1.00  0.00     0.008 A 
HETATM   12  C   LIG     1       2.392  -0.985   0.073  1.00  0.00     0.178 C 
ENDROOT
BRANCH   6  13
HETATM   13  C   LIG     1      -1.055   2.398  -0.004  1.00  0.00     0.222 C 
BRANCH  13  14
HETATM   14  O   LIG     1      -0.056   3.421   0.011  1.00  0.00    -0.395 OA
ATOM     15  HO  LIG     1      -0.435   4.292   0.014  1.00  0.00     0.209 HD
ENDBRANCH  13  14
ENDBRANCH   6  13
TORSDOF 2
