REMARK  2 active torsions:
REMARK  status: ('A' for Active; 'I' for Inactive)
REMARK    1  A    between atoms: C_2  and  C_4 
REMARK    2  A    between atoms: C_3  and  C_7 
ROOT
HETATM    1  S   LIG     1       1.391  -1.145   0.011  1.00  0.00    -0.081 SA
HETATM    2  C   LIG     1       1.218   0.559   0.022  1.00  0.00     0.039 A 
HETATM    3  C   LIG     1      -0.300  -1.404   0.039  1.00  0.00     0.082 A 
HETATM    4  C   LIG     1      -0.988  -0.206   0.052  1.00  0.00     0.027 A 
HETATM    5  C   LIG     1      -0.114   0.922   0.038  1.00  0.00     0.023 A 
ENDROOT
BRANCH   2   6
HETATM    6  C   LIG     1       2.345   1.455   0.013  1.00  0.00     0.092 A 
HETATM    7  O   LIG     1       2.189   2.822   0.009  1.00  0.00    -0.321 OA
HETATM    8  C   LIG     1       3.422   3.386  -0.002  1.00  0.00     0.142 A 
HETATM    9  C   LIG     1       4.392   2.417  -0.002  1.00  0.00     0.027 A 
HETATM   10  C   LIG     1       3.705   1.179   0.009  1.00  0.00     0.040 A 
ENDBRANCH   2   6
BRANCH   3  11
HETATM   11  C   LIG     1      -0.810  -2.755   0.048  1.00  0.00     0.216 C 
HETATM   12  O   LIG     1      -0.193  -3.810   0.017  1.00  0.00    -0.643 OA
HETATM   13  O   LIG     1      -2.162  -2.773   0.105  1.00  0.00    -0.643 OA
ENDBRANCH   3  11
TORSDOF 2
