REMARK  3 active torsions:
REMARK  status: ('A' for Active; 'I' for Inactive)
REMARK    1  A    between atoms: C_1  and  C_3 
REMARK    2  A    between atoms: C_5  and  C_14 
REMARK    3  A    between atoms: N_11  and  C_14 
ROOT
HETATM    1  C   LIG     1      -0.228  -1.512   0.155  1.00  0.00     0.039 A 
HETATM    2  S   LIG     1       1.370  -0.941   0.389  1.00  0.00    -0.090 SA
HETATM    3  C   LIG     1      -1.085  -0.474  -0.154  1.00  0.00     0.023 A 
HETATM    4  C   LIG     1       0.925   0.683   0.080  1.00  0.00     0.009 A 
HETATM    5  C   LIG     1      -0.424   0.789  -0.194  1.00  0.00     0.017 A 
ENDROOT
BRANCH   1   6
HETATM    6  C   LIG     1      -0.579  -2.903   0.274  1.00  0.00     0.092 A 
HETATM    7  O   LIG     1      -1.862  -3.354   0.067  1.00  0.00    -0.321 OA
HETATM    8  C   LIG     1      -1.870  -4.697   0.251  1.00  0.00     0.142 A 
HETATM    9  C   LIG     1      -0.615  -5.145   0.576  1.00  0.00     0.027 A 
HETATM   10  C   LIG     1       0.214  -3.997   0.592  1.00  0.00     0.040 A 
ENDBRANCH   1   6
BRANCH   4  11
HETATM   11  C   LIG     1       1.953   1.775   0.142  1.00  0.00     0.277 C 
BRANCH  11  12
HETATM   12  N   LIG     1       2.027   2.471  -1.144  1.00  0.00    -0.075 N 
HETATM   13  C   LIG     1       3.030   3.524  -1.109  1.00  0.00     0.267 C 
ATOM     14  HN2 LIG     1       2.189   1.822  -1.914  1.00  0.00     0.277 HD
ATOM     15  HN1 LIG     1       1.116   2.828  -1.432  1.00  0.00     0.277 HD
ENDBRANCH  11  12
ENDBRANCH   4  11
TORSDOF 3
