REMARK  2 active torsions:
REMARK  status: ('A' for Active; 'I' for Inactive)
REMARK    1  A    between atoms: C_1  and  C_4 
REMARK    2  A    between atoms: C_2  and  C_3 
ROOT
HETATM    1  C   LIG     1      -0.180   4.821   0.208  1.00  0.00     0.041 A 
HETATM    2  C   LIG     1      -0.764   2.465  -0.018  1.00  0.00    -0.024 A 
HETATM    3  C   LIG     1       0.163   3.466   0.312  1.00  0.00     0.030 A 
HETATM    4  C   LIG     1      -1.459   5.184  -0.228  1.00  0.00     0.018 A 
HETATM    5  C   LIG     1      -2.041   2.849  -0.456  1.00  0.00     0.012 A 
HETATM    6  C   LIG     1      -2.388   4.199  -0.557  1.00  0.00     0.002 A 
ENDROOT
BRANCH   2   7
HETATM    7  C   LIG     1      -0.383   1.053   0.081  1.00  0.00    -0.019 A 
HETATM    8  C   LIG     1      -1.291   0.058   0.397  1.00  0.00     0.061 A 
HETATM    9  S   LIG     1      -0.585  -1.501   0.452  1.00  0.00    -0.113 SA
HETATM   10  C   LIG     1       0.955  -0.873   0.070  1.00  0.00     0.050 A 
HETATM   11  C   LIG     1       0.927   0.493  -0.100  1.00  0.00     0.020 A 
ENDBRANCH   2   7
BRANCH   1  12
HETATM   12  C   LIG     1       0.777   5.901   0.549  1.00  0.00     0.209 C 
HETATM   13  O   LIG     1       0.557   7.097   0.480  1.00  0.00    -0.644 OA
HETATM   14  O   LIG     1       1.967   5.434   0.964  1.00  0.00    -0.644 OA
ENDBRANCH   1  12
TORSDOF 2
