REMARK  4 active torsions:
REMARK  status: ('A' for Active; 'I' for Inactive)
REMARK    1  A    between atoms: C_1  and  O_4 
REMARK    2  A    between atoms: O_4  and  C_5 
REMARK    3  A    between atoms: C_6  and  C_15 
REMARK    4  A    between atoms: O_11  and  C_15 
ROOT
HETATM    1  C   LIG     1      -4.544  -2.781  -0.387  1.00  0.00     0.077 A 
HETATM    2  C   LIG     1      -7.141  -3.253  -1.362  1.00  0.00    -0.035 A 
HETATM    3  C   LIG     1      -5.301  -3.844   0.110  1.00  0.00     0.038 A 
HETATM    4  C   LIG     1      -5.105  -1.925  -1.336  1.00  0.00     0.038 A 
HETATM    5  C   LIG     1      -6.387  -2.173  -1.837  1.00  0.00     0.012 A 
HETATM    6  C   LIG     1      -6.589  -4.086  -0.380  1.00  0.00     0.012 A 
ENDROOT
BRANCH   1   7
HETATM    7  O   LIG     1      -3.299  -2.597   0.169  1.00  0.00    -0.294 OA
BRANCH   7   8
HETATM    8  C   LIG     1      -2.271  -2.106  -0.632  1.00  0.00     0.147 A 
HETATM    9  N   LIG     1      -2.260  -2.364  -1.962  1.00  0.00    -0.347 N 
HETATM   10  C   LIG     1      -1.222  -1.864  -2.667  1.00  0.00     0.090 A 
ATOM     11  HN  LIG     1      -2.998  -2.908  -2.408  1.00  0.00     0.167 HD
HETATM   12  C   LIG     1      -0.185  -1.136  -2.107  1.00  0.00     0.017 A 
HETATM   13  C   LIG     1      -0.207  -0.910  -0.735  1.00  0.00     0.006 A 
HETATM   14  C   LIG     1      -1.266  -1.409   0.019  1.00  0.00     0.056 A 
ENDBRANCH   7   8
ENDBRANCH   1   7
BRANCH   2  15
HETATM   15  C   LIG     1      -8.503  -3.534  -1.940  1.00  0.00     0.202 C 
BRANCH  15  16
HETATM   16  O   LIG     1      -8.403  -4.366  -3.088  1.00  0.00    -0.396 OA
ATOM     17  HO  LIG     1      -9.262  -4.543  -3.453  1.00  0.00     0.209 HD
ENDBRANCH  15  16
ENDBRANCH   2  15
TORSDOF 4
