REMARK  3 active torsions:
REMARK  status: ('A' for Active; 'I' for Inactive)
REMARK    1  A    between atoms: N_1  and  C_7 
REMARK    2  A    between atoms: C_4  and  C_8 
REMARK    3  A    between atoms: C_8  and  O_11 
ROOT
HETATM    1  N   LIG     1      -0.655  -1.087   0.227  1.00  0.00    -0.260 N 
HETATM    2  N   LIG     1       0.689  -0.907   0.354  1.00  0.00    -0.298 N 
ATOM      3  HN  LIG     1       1.391  -1.624   0.540  1.00  0.00     0.187 HD
HETATM    4  C   LIG     1      -0.311   1.109   0.032  1.00  0.00     0.013 A 
HETATM    5  C   LIG     1      -1.302   0.138   0.086  1.00  0.00     0.041 A 
HETATM    6  C   LIG     1       0.899   0.400   0.185  1.00  0.00     0.033 A 
HETATM    7  C   LIG     1      -2.775   0.350   0.080  1.00  0.00     0.071 C 
HETATM    8  C   LIG     1       2.281   0.943   0.210  1.00  0.00     0.070 C 
ENDROOT
BRANCH   1   9
HETATM    9  C   LIG     1      -1.175  -2.419   0.247  1.00  0.00     0.056 A 
HETATM   10  C   LIG     1      -0.392  -3.444   0.806  1.00  0.00     0.031 A 
HETATM   11  C   LIG     1      -0.854  -4.764   0.830  1.00  0.00     0.002 A 
HETATM   12  C   LIG     1      -2.090  -5.079   0.273  1.00  0.00     0.000 A 
HETATM   13  C   LIG     1      -2.869  -4.074  -0.296  1.00  0.00     0.002 A 
HETATM   14  C   LIG     1      -2.418  -2.749  -0.305  1.00  0.00     0.031 A 
ENDBRANCH   1   9
BRANCH   4  15
HETATM   15  C   LIG     1      -0.487   2.580  -0.118  1.00  0.00     0.207 C 
BRANCH  15  16
HETATM   16  O   LIG     1      -1.183   2.900  -1.317  1.00  0.00    -0.396 OA
ATOM     17  HO  LIG     1      -1.295   3.838  -1.413  1.00  0.00     0.209 HD
ENDBRANCH  15  16
ENDBRANCH   4  15
TORSDOF 3
