REMARK  3 active torsions:
REMARK  status: ('A' for Active; 'I' for Inactive)
REMARK    1  A    between atoms: C_1  and  C_3 
REMARK    2  A    between atoms: C_11  and  C_16 
REMARK    3  A    between atoms: N_12  and  C_16 
ROOT
HETATM    1  C   LIG     1      -0.790   2.404  -0.043  1.00  0.00    -0.025 A 
HETATM    2  C   LIG     1      -2.067   2.722  -0.528  1.00  0.00     0.013 A 
HETATM    3  C   LIG     1       0.080   3.453   0.278  1.00  0.00     0.013 A 
HETATM    4  C   LIG     1      -0.311   4.786   0.110  1.00  0.00     0.010 A 
HETATM    5  C   LIG     1      -2.458   4.056  -0.699  1.00  0.00     0.010 A 
HETATM    6  C   LIG     1      -1.584   5.102  -0.382  1.00  0.00    -0.033 A 
ENDROOT
BRANCH   1   7
HETATM    7  C   LIG     1      -0.367   1.013   0.139  1.00  0.00    -0.019 A 
HETATM    8  C   LIG     1      -0.806  -0.010  -0.682  1.00  0.00     0.061 A 
HETATM    9  S   LIG     1      -0.153  -1.535  -0.260  1.00  0.00    -0.113 SA
HETATM   10  C   LIG     1       0.747  -0.853   1.021  1.00  0.00     0.050 A 
HETATM   11  C   LIG     1       0.546   0.506   1.125  1.00  0.00     0.020 A 
ENDBRANCH   1   7
BRANCH   6  12
HETATM   12  C   LIG     1      -1.992   6.540  -0.582  1.00  0.00     0.268 C 
BRANCH  12  13
HETATM   13  N   LIG     1      -1.976   7.282   0.673  1.00  0.00    -0.075 N 
ATOM     14  HN3 LIG     1      -2.551   6.827   1.382  1.00  0.00     0.274 HD
ATOM     15  HN2 LIG     1      -1.069   7.213   1.135  1.00  0.00     0.274 HD
ATOM     16  HN1 LIG     1      -2.252   8.255   0.538  1.00  0.00     0.274 HD
ENDBRANCH  12  13
ENDBRANCH   6  12
TORSDOF 3
