REMARK  3 active torsions:
REMARK  status: ('A' for Active; 'I' for Inactive)
REMARK    1  A    between atoms: C_1  and  C_2 
REMARK    2  A    between atoms: C_8  and  C_14 
REMARK    3  A    between atoms: N_9  and  C_14 
ROOT
HETATM    1  C   LIG     1      -0.669   2.374  -0.016  1.00  0.00    -0.025 A 
HETATM    2  C   LIG     1      -1.914   2.802  -0.508  1.00  0.00     0.021 A 
HETATM    3  C   LIG     1      -2.235   4.168  -0.606  1.00  0.00    -0.032 A 
HETATM    4  C   LIG     1       0.254   3.343   0.393  1.00  0.00     0.012 A 
HETATM    5  C   LIG     1      -0.053   4.704   0.304  1.00  0.00     0.001 A 
HETATM    6  C   LIG     1      -1.291   5.114  -0.195  1.00  0.00     0.009 A 
ENDROOT
BRANCH   1   7
HETATM    7  C   LIG     1      -0.343   0.948   0.078  1.00  0.00    -0.019 A 
HETATM    8  C   LIG     1      -0.851   0.014  -0.808  1.00  0.00     0.061 A 
HETATM    9  S   LIG     1      -0.323  -1.581  -0.483  1.00  0.00    -0.113 SA
HETATM   10  C   LIG     1       0.611  -1.054   0.845  1.00  0.00     0.050 A 
HETATM   11  C   LIG     1       0.517   0.309   1.034  1.00  0.00     0.020 A 
ENDBRANCH   1   7
BRANCH   3  12
HETATM   12  C   LIG     1      -3.591   4.597  -1.115  1.00  0.00     0.270 C 
BRANCH  12  13
HETATM   13  N   LIG     1      -3.824   4.121  -2.479  1.00  0.00    -0.075 N 
HETATM   14  C   LIG     1      -5.128   4.548  -2.964  1.00  0.00     0.267 C 
ATOM     15  HN2 LIG     1      -3.076   4.407  -3.110  1.00  0.00     0.277 HD
ATOM     16  HN1 LIG     1      -3.709   3.110  -2.550  1.00  0.00     0.277 HD
ENDBRANCH  12  13
ENDBRANCH   3  12
TORSDOF 3
