REMARK  3 active torsions:
REMARK  status: ('A' for Active; 'I' for Inactive)
REMARK    1  A    between atoms: C_1  and  C_6 
REMARK    2  A    between atoms: C_2  and  C_7 
REMARK    3  A    between atoms: C_7  and  O_8 
ROOT
HETATM    1  C   LIG     1       0.718  -1.113   0.011  1.00  0.00     0.094 A 
HETATM    2  C   LIG     1      -0.660  -1.278   0.038  1.00  0.00     0.002 A 
HETATM    3  O   LIG     1       1.019   0.220  -0.052  1.00  0.00    -0.314 OA
HETATM    4  C   LIG     1      -1.212   0.038  -0.029  1.00  0.00     0.044 A 
HETATM    5  C   LIG     1      -0.150   0.911  -0.080  1.00  0.00     0.050 A 
HETATM    6  C   LIG     1      -0.037   2.380  -0.152  1.00  0.00     0.076 C 
ENDROOT
BRANCH   1   7
HETATM    7  C   LIG     1       1.878  -2.003   0.035  1.00  0.00    -0.002 A 
HETATM    8  C   LIG     1       3.089  -1.579   0.606  1.00  0.00     0.014 A 
HETATM    9  C   LIG     1       4.205  -2.419   0.638  1.00  0.00     0.001 A 
HETATM   10  C   LIG     1       4.127  -3.699   0.097  1.00  0.00     0.000 A 
HETATM   11  C   LIG     1       2.936  -4.136  -0.479  1.00  0.00     0.001 A 
HETATM   12  C   LIG     1       1.821  -3.293  -0.512  1.00  0.00     0.014 A 
ENDBRANCH   1   7
BRANCH   2  13
HETATM   13  C   LIG     1      -1.438  -2.539   0.138  1.00  0.00     0.205 C 
BRANCH  13  14
HETATM   14  O   LIG     1      -1.715  -3.087  -1.146  1.00  0.00    -0.396 OA
ATOM     15  HO  LIG     1      -2.213  -3.894  -1.082  1.00  0.00     0.209 HD
ENDBRANCH  13  14
ENDBRANCH   2  13
TORSDOF 3
