REMARK  2 active torsions:
REMARK  status: ('A' for Active; 'I' for Inactive)
REMARK    1  A    between atoms: C_1  and  C_5 
REMARK    2  A    between atoms: C_2  and  C_7 
ROOT
HETATM    1  C   LIG     1      -0.575  -1.346   0.018  1.00  0.00     0.077 A 
HETATM    2  C   LIG     1       0.780  -1.033   0.001  1.00  0.00     0.103 A 
HETATM    3  O   LIG     1       0.931   0.332  -0.018  1.00  0.00    -0.314 OA
HETATM    4  C   LIG     1      -1.262  -0.091   0.046  1.00  0.00     0.053 A 
HETATM    5  C   LIG     1      -0.305   0.893   0.013  1.00  0.00     0.051 A 
HETATM    6  C   LIG     1      -0.362   2.367   0.006  1.00  0.00     0.077 C 
ENDROOT
BRANCH   2   7
HETATM    7  C   LIG     1       2.044  -1.773   0.019  1.00  0.00    -0.001 A 
HETATM    8  C   LIG     1       2.170  -2.988   0.706  1.00  0.00     0.014 A 
HETATM    9  C   LIG     1       3.378  -3.691   0.717  1.00  0.00     0.001 A 
HETATM   10  C   LIG     1       4.491  -3.177   0.060  1.00  0.00     0.000 A 
HETATM   11  C   LIG     1       4.396  -1.961  -0.610  1.00  0.00     0.001 A 
HETATM   12  C   LIG     1       3.181  -1.266  -0.631  1.00  0.00     0.014 A 
ENDBRANCH   2   7
BRANCH   1  13
HETATM   13  C   LIG     1      -1.184  -2.658  -0.006  1.00  0.00     0.212 C 
HETATM   14  O   LIG     1      -0.622  -3.735  -0.121  1.00  0.00    -0.644 OA
HETATM   15  O   LIG     1      -2.533  -2.633   0.110  1.00  0.00    -0.644 OA
ENDBRANCH   1  13
TORSDOF 2
