REMARK  4 active torsions:
REMARK  status: ('A' for Active; 'I' for Inactive)
REMARK    1  A    between atoms: C_1  and  O_2 
REMARK    2  A    between atoms: O_2  and  C_4 
REMARK    3  A    between atoms: C_3  and  C_5 
REMARK    4  A    between atoms: C_5  and  O_6 
ROOT
HETATM    1  C   LIG     1       1.814  -1.958  -0.107  1.00  0.00     0.084 C 
HETATM    2  C   LIG     1       2.902  -2.879  -0.030  1.00  0.00    -0.001 C 
HETATM    3  C   LIG     1       2.176  -0.596  -0.254  1.00  0.00     0.038 C 
HETATM    4  C   LIG     1       4.226  -2.416   0.092  1.00  0.00     0.012 C 
HETATM    5  C   LIG     1       4.542  -1.079   0.048  1.00  0.00     0.001 C 
HETATM    6  C   LIG     1       3.522  -0.163  -0.160  1.00  0.00     0.003 C 
ENDROOT
BRANCH   1   7
HETATM    7  O   LIG     1       0.420  -2.238  -0.122  1.00  0.00    -0.310 OA
BRANCH   7   8
HETATM    8  C   LIG     1      -0.189  -3.153   0.711  1.00  0.00     0.076 C 
HETATM    9  C   LIG     1      -1.452  -3.105   1.176  1.00  0.00     0.037 C 
HETATM   10  C   LIG     1      -1.980  -4.176   1.958  1.00  0.00     0.003 C 
HETATM   11  C   LIG     1      -1.213  -5.321   2.304  1.00  0.00     0.000 C 
HETATM   12  C   LIG     1       0.015  -5.413   1.811  1.00  0.00     0.003 C 
HETATM   13  C   LIG     1       0.356  -4.416   0.917  1.00  0.00     0.037 C 
ENDBRANCH   7   8
ENDBRANCH   1   7
BRANCH   2  14
HETATM   14  C   LIG     1       2.881  -4.373  -0.052  1.00  0.00     0.205 C 
BRANCH  14  15
HETATM   15  O   LIG     1       2.267  -4.807  -1.262  1.00  0.00    -0.396 OA
ATOM     16  HO  LIG     1       2.254  -5.757  -1.276  1.00  0.00     0.209 HD
ENDBRANCH  14  15
ENDBRANCH   2  14
TORSDOF 4
