REMARK  3 active torsions:
REMARK  status: ('A' for Active; 'I' for Inactive)
REMARK    1  A    between atoms: C_1  and  N_2 
REMARK    2  A    between atoms: C_6  and  C_13 
REMARK    3  A    between atoms: N_8  and  C_13 
ROOT
HETATM    1  C   LIG     1      -1.580   0.629   0.061  1.00  0.00     0.103 A 
HETATM    2  N   LIG     1      -1.414  -0.697   0.264  1.00  0.00    -0.352 N 
ATOM      3  HN  LIG     1      -2.222  -1.306   0.395  1.00  0.00     0.166 HD
HETATM    4  C   LIG     1      -0.458   1.452  -0.078  1.00  0.00     0.057 A 
HETATM    5  C   LIG     1       0.839   0.921  -0.065  1.00  0.00    -0.028 A 
HETATM    6  C   LIG     1      -0.160  -1.204   0.291  1.00  0.00     0.090 A 
HETATM    7  C   LIG     1       0.985  -0.450   0.123  1.00  0.00     0.026 A 
ENDROOT
BRANCH   1   8
HETATM    8  N   LIG     1      -2.875   1.167   0.028  1.00  0.00    -0.367 N 
HETATM    9  C   LIG     1      -3.973   0.197   0.176  1.00  0.00     0.124 C 
HETATM   10  C   LIG     1      -4.286  -0.484  -1.161  1.00  0.00     0.020 C 
HETATM   11  C   LIG     1      -4.534   0.542  -2.268  1.00  0.00     0.003 C 
HETATM   12  C   LIG     1      -3.413   1.580  -2.337  1.00  0.00     0.020 C 
HETATM   13  C   LIG     1      -3.164   2.209  -0.966  1.00  0.00     0.124 C 
ENDBRANCH   1   8
BRANCH   5  14
HETATM   14  C   LIG     1       2.034   1.816  -0.272  1.00  0.00     0.270 C 
BRANCH  14  15
HETATM   15  N   LIG     1       2.936   1.778   0.878  1.00  0.00    -0.075 N 
HETATM   16  C   LIG     1       4.068   2.671   0.681  1.00  0.00     0.267 C 
ATOM     17  HN2 LIG     1       2.445   1.979   1.749  1.00  0.00     0.277 HD
ATOM     18  HN1 LIG     1       3.239   0.827   1.088  1.00  0.00     0.277 HD
ENDBRANCH  14  15
ENDBRANCH   5  14
TORSDOF 3
