REMARK  4 active torsions:
REMARK  status: ('A' for Active; 'I' for Inactive)
REMARK    1  A    between atoms: C_1  and  O_4 
REMARK    2  A    between atoms: O_4  and  C_5 
REMARK    3  A    between atoms: C_7  and  C_14 
REMARK    4  A    between atoms: O_8  and  C_14 
ROOT
HETATM    1  C   LIG     1      -4.068  -2.573  -1.323  1.00  0.00     0.078 A 
HETATM    2  C   LIG     1      -4.330  -3.831  -0.770  1.00  0.00     0.046 A 
HETATM    3  C   LIG     1      -5.454  -4.567  -1.168  1.00  0.00    -0.032 A 
HETATM    4  C   LIG     1      -6.138  -2.709  -2.569  1.00  0.00     0.003 A 
HETATM    5  C   LIG     1      -4.984  -2.009  -2.211  1.00  0.00     0.037 A 
HETATM    6  C   LIG     1      -6.371  -3.985  -2.052  1.00  0.00     0.009 A 
ENDROOT
BRANCH   1   7
HETATM    7  O   LIG     1      -2.977  -1.801  -0.993  1.00  0.00    -0.294 OA
BRANCH   7   8
HETATM    8  C   LIG     1      -1.774  -2.430  -0.690  1.00  0.00     0.147 A 
HETATM    9  N   LIG     1      -1.478  -3.634  -1.234  1.00  0.00    -0.347 N 
HETATM   10  C   LIG     1      -0.298  -4.187  -0.885  1.00  0.00     0.090 A 
ATOM     11  HN  LIG     1      -2.117  -4.101  -1.877  1.00  0.00     0.167 HD
HETATM   12  C   LIG     1       0.615  -3.582  -0.039  1.00  0.00     0.017 A 
HETATM   13  C   LIG     1       0.303  -2.329   0.481  1.00  0.00     0.006 A 
HETATM   14  C   LIG     1      -0.913  -1.739   0.147  1.00  0.00     0.056 A 
ENDBRANCH   7   8
ENDBRANCH   1   7
BRANCH   3  15
HETATM   15  C   LIG     1      -5.657  -5.965  -0.648  1.00  0.00     0.203 C 
BRANCH  15  16
HETATM   16  O   LIG     1      -6.385  -5.966   0.570  1.00  0.00    -0.396 OA
ATOM     17  HO  LIG     1      -6.513  -6.848   0.898  1.00  0.00     0.209 HD
ENDBRANCH  15  16
ENDBRANCH   3  15
TORSDOF 4
