REMARK  3 active torsions:
REMARK  status: ('A' for Active; 'I' for Inactive)
REMARK    1  A    between atoms: C_8  and  C_12 
REMARK    2  A    between atoms: O_10  and  C_13 
REMARK    3  A    between atoms: C_12  and  C_13 
ROOT
HETATM    1  C   LIG     1      -0.698  -0.597  -0.121  1.00  0.00     0.105 A 
HETATM    2  C   LIG     1      -0.898   0.731   0.164  1.00  0.00     0.105 A 
HETATM    3  O   LIG     1      -1.868  -1.279  -0.253  1.00  0.00    -0.323 OA
HETATM    4  O   LIG     1      -2.215   1.056   0.245  1.00  0.00    -0.323 OA
HETATM    5  C   LIG     1      -2.825  -0.223  -0.029  1.00  0.00     0.352 A 
HETATM    6  C   LIG     1       0.568  -1.136  -0.246  1.00  0.00     0.047 A 
HETATM    7  C   LIG     1       0.157   1.601   0.343  1.00  0.00     0.040 A 
HETATM    8  C   LIG     1       1.670  -0.283  -0.065  1.00  0.00    -0.053 A 
HETATM    9  C   LIG     1       1.450   1.083   0.226  1.00  0.00     0.010 A 
ENDROOT
BRANCH   8  10
HETATM   10  C   LIG     1       3.083  -0.813  -0.174  1.00  0.00     0.064 C 
BRANCH  10  11
HETATM   11  C   LIG     1       3.649  -0.778  -1.594  1.00  0.00     0.168 C 
BRANCH  11  12
HETATM   12  O   LIG     1       3.803   0.559  -2.061  1.00  0.00    -0.401 OA
ATOM     13  HO  LIG     1       4.155   0.581  -2.943  1.00  0.00     0.209 HD
ENDBRANCH  11  12
ENDBRANCH  10  11
ENDBRANCH   8  10
TORSDOF 3
