REMARK  6 active torsions:
REMARK  status: ('A' for Active; 'I' for Inactive)
REMARK    1  A    between atoms: N_1  and  C_13 
REMARK    2  A    between atoms: C_2  and  O_11 
REMARK    3  A    between atoms: N_3  and  C_14 
REMARK    4  A    between atoms: C_6  and  C_14 
REMARK    5  A    between atoms: O_11  and  C_12 
REMARK    6  A    between atoms: C_12  and  C_13 
ROOT
HETATM    1  C   LIG     1       2.437  -3.544  -1.465  1.00  0.00     0.068 A 
HETATM    2  C   LIG     1       3.046  -5.906  -0.036  1.00  0.00    -0.033 A 
HETATM    3  C   LIG     1       2.570  -3.515  -0.076  1.00  0.00     0.037 A 
HETATM    4  C   LIG     1       2.629  -4.757  -2.133  1.00  0.00     0.037 A 
HETATM    5  C   LIG     1       2.870  -4.686   0.632  1.00  0.00     0.011 A 
HETATM    6  C   LIG     1       2.930  -5.926  -1.430  1.00  0.00     0.011 A 
ENDROOT
BRANCH   1   7
HETATM    7  O   LIG     1       2.116  -2.351  -2.071  1.00  0.00    -0.349 OA
BRANCH   7   8
HETATM    8  C   LIG     1       1.886  -2.433  -3.485  1.00  0.00     0.206 C 
BRANCH   8   9
HETATM    9  C   LIG     1       1.443  -1.075  -4.059  1.00  0.00     0.297 C 
BRANCH   9  10
HETATM   10  N   LIG     1       1.240  -1.097  -5.526  1.00  0.00     0.082 N 
HETATM   11  C   LIG     1       0.160  -2.001  -5.929  1.00  0.00     0.309 C 
HETATM   12  C   LIG     1       0.956   0.251  -6.028  1.00  0.00     0.309 C 
ENDBRANCH   9  10
ENDBRANCH   8   9
ENDBRANCH   7   8
ENDBRANCH   1   7
BRANCH   2  13
HETATM   13  C   LIG     1       3.324  -7.185   0.719  1.00  0.00     0.270 C 
BRANCH  13  14
HETATM   14  N   LIG     1       4.570  -7.097   1.478  1.00  0.00    -0.075 N 
HETATM   15  C   LIG     1       4.839  -8.341   2.184  1.00  0.00     0.267 C 
ATOM     16  HN2 LIG     1       5.354  -6.824   0.885  1.00  0.00     0.277 HD
ATOM     17  HN1 LIG     1       4.569  -6.297   2.111  1.00  0.00     0.277 HD
ENDBRANCH  13  14
ENDBRANCH   2  13
TORSDOF 6
