REMARK  4 active torsions:
REMARK  status: ('A' for Active; 'I' for Inactive)
REMARK    1  A    between atoms: O_1  and  C_2 
REMARK    2  A    between atoms: O_1  and  C_6 
REMARK    3  A    between atoms: N_3  and  C_12 
REMARK    4  A    between atoms: C_7  and  C_12 
ROOT
HETATM    1  C   LIG     1      -1.267   1.962  -0.129  1.00  0.00     0.076 C 
HETATM    2  C   LIG     1      -2.982   4.181   0.218  1.00  0.00    -0.033 C 
HETATM    3  C   LIG     1      -0.887   3.016   0.701  1.00  0.00     0.038 C 
HETATM    4  C   LIG     1      -2.563   1.949  -0.656  1.00  0.00     0.038 C 
HETATM    5  C   LIG     1      -3.405   3.052  -0.494  1.00  0.00     0.011 C 
HETATM    6  C   LIG     1      -1.735   4.124   0.865  1.00  0.00     0.011 C 
ENDROOT
BRANCH   1   7
HETATM    7  O   LIG     1      -0.340   0.964  -0.389  1.00  0.00    -0.311 OA
BRANCH   7   8
HETATM    8  C   LIG     1      -0.344   0.388  -1.648  1.00  0.00     0.076 A 
HETATM    9  C   LIG     1      -0.062  -0.983  -1.734  1.00  0.00     0.037 A 
HETATM   10  C   LIG     1      -0.150  -1.637  -2.966  1.00  0.00     0.003 A 
HETATM   11  C   LIG     1      -0.521  -0.932  -4.114  1.00  0.00     0.000 A 
HETATM   12  C   LIG     1      -0.732   0.443  -4.039  1.00  0.00     0.003 A 
HETATM   13  C   LIG     1      -0.603   1.108  -2.821  1.00  0.00     0.037 A 
ENDBRANCH   7   8
ENDBRANCH   1   7
BRANCH   2  14
HETATM   14  C   LIG     1      -3.856   5.412   0.362  1.00  0.00     0.270 C 
BRANCH  14  15
HETATM   15  N   LIG     1      -4.692   5.663  -0.819  1.00  0.00    -0.075 N 
HETATM   16  C   LIG     1      -5.471   6.885  -0.668  1.00  0.00     0.267 C 
ATOM     17  HN2 LIG     1      -4.136   5.677  -1.674  1.00  0.00     0.277 HD
ATOM     18  HN1 LIG     1      -5.288   4.863  -1.032  1.00  0.00     0.277 HD
ENDBRANCH  14  15
ENDBRANCH   2  14
TORSDOF 4
