REMARK  3 active torsions:
REMARK  status: ('A' for Active; 'I' for Inactive)
REMARK    1  A    between atoms: C_1  and  N_3 
REMARK    2  A    between atoms: C_5  and  C_10 
REMARK    3  A    between atoms: C_10  and  O_11 
ROOT
HETATM    1  C   LIG     1      -0.806  -1.182   0.212  1.00  0.00     0.072 A 
HETATM    2  S   LIG     1       0.107  -0.594   1.560  1.00  0.00    -0.075 SA
HETATM    3  C   LIG     1      -1.345  -0.099  -0.469  1.00  0.00     0.038 A 
HETATM    4  C   LIG     1      -0.258   1.040   1.241  1.00  0.00     0.008 A 
HETATM    5  C   LIG     1      -1.045   1.164   0.119  1.00  0.00     0.019 A 
ENDROOT
BRANCH   1   6
HETATM    6  N   LIG     1      -0.906  -2.521  -0.110  1.00  0.00    -0.371 N 
HETATM    7  C   LIG     1      -0.825  -3.525   0.980  1.00  0.00     0.149 C 
HETATM    8  C   LIG     1      -0.614  -4.938   0.416  1.00  0.00     0.187 C 
HETATM    9  O   LIG     1      -1.627  -5.287  -0.536  1.00  0.00    -0.388 OA
HETATM   10  C   LIG     1      -1.588  -4.366  -1.634  1.00  0.00     0.187 C 
HETATM   11  C   LIG     1      -1.853  -2.925  -1.175  1.00  0.00     0.149 C 
ENDBRANCH   1   6
BRANCH   4  12
HETATM   12  C   LIG     1       0.265   2.120   2.126  1.00  0.00     0.210 C 
BRANCH  12  13
HETATM   13  O   LIG     1       1.103   2.952   1.333  1.00  0.00    -0.396 OA
ATOM     14  HO  LIG     1       1.436   3.640   1.897  1.00  0.00     0.209 HD
ENDBRANCH  12  13
ENDBRANCH   4  12
TORSDOF 3
