REMARK  3 active torsions:
REMARK  status: ('A' for Active; 'I' for Inactive)
REMARK    1  A    between atoms: C_5  and  C_7 
REMARK    2  A    between atoms: C_7  and  C_11 
REMARK    3  A    between atoms: O_8  and  C_11 
ROOT
HETATM    1  N   LIG     1       0.941  -0.479  -0.090  1.00  0.00    -0.357 N 
ATOM      2  HN  LIG     1       1.741  -1.105  -0.184  1.00  0.00     0.166 HD
HETATM    3  C   LIG     1       1.017   0.830   0.009  1.00  0.00     0.046 A 
HETATM    4  S   LIG     1      -0.486   1.648   0.166  1.00  0.00    -0.087 SA
HETATM    5  C   LIG     1      -0.387  -0.887  -0.048  1.00  0.00     0.018 A 
HETATM    6  C   LIG     1      -1.298   0.141   0.100  1.00  0.00     0.076 A 
HETATM    7  C   LIG     1       2.288   1.605  -0.007  1.00  0.00     0.076 C 
ENDROOT
BRANCH   5   8
HETATM    8  C   LIG     1      -0.705  -2.351  -0.126  1.00  0.00     0.083 C 
BRANCH   8   9
HETATM    9  C   LIG     1       0.286  -3.140  -0.981  1.00  0.00     0.170 C 
BRANCH   9  10
HETATM   10  O   LIG     1       1.572  -3.187  -0.368  1.00  0.00    -0.400 OA
ATOM     11  HO  LIG     1       2.188  -3.677  -0.899  1.00  0.00     0.209 HD
ENDBRANCH   9  10
ENDBRANCH   8   9
ENDBRANCH   5   8
TORSDOF 3
