REMARK  1 active torsions:
REMARK  status: ('A' for Active; 'I' for Inactive)
REMARK    1  A    between atoms: C_1  and  C_5 
ROOT
HETATM    1  N   LIG     1      -1.904  -2.820  -0.221  1.00  0.00    -0.363 N 
ATOM      2  HN  LIG     1      -2.555  -2.045  -0.350  1.00  0.00     0.165 HD
HETATM    3  C   LIG     1      -0.595  -2.601   0.052  1.00  0.00     0.049 A 
HETATM    4  C   LIG     1       0.298  -3.650   0.250  1.00  0.00     0.033 A 
HETATM    5  C   LIG     1      -2.315  -4.109  -0.316  1.00  0.00     0.114 A 
HETATM    6  C   LIG     1      -1.485  -5.220  -0.205  1.00  0.00     0.061 A 
HETATM    7  N   LIG     1      -1.986  -6.526  -0.192  1.00  0.00    -0.101 NA
HETATM    8  C   LIG     1      -0.161  -4.966   0.139  1.00  0.00     0.030 A 
ENDROOT
BRANCH   3   9
HETATM    9  C   LIG     1      -0.234  -1.173   0.139  1.00  0.00     0.031 A 
HETATM   10  S   LIG     1       1.399  -0.649   0.279  1.00  0.00    -0.100 SA
HETATM   11  C   LIG     1       0.957   1.000   0.308  1.00  0.00     0.050 A 
HETATM   12  C   LIG     1      -0.404   1.169   0.210  1.00  0.00     0.008 A 
HETATM   13  C   LIG     1      -1.085  -0.078   0.109  1.00  0.00     0.021 A 
ENDBRANCH   3   9
TORSDOF 1
