REMARK  3 active torsions:
REMARK  status: ('A' for Active; 'I' for Inactive)
REMARK    1  A    between atoms: C_5  and  C_7 
REMARK    2  A    between atoms: C_7  and  C_13 
REMARK    3  A    between atoms: N_8  and  C_13 
ROOT
HETATM    1  N   LIG     1       0.917  -0.542  -0.036  1.00  0.00    -0.357 N 
ATOM      2  HN  LIG     1       1.720  -1.171  -0.047  1.00  0.00     0.166 HD
HETATM    3  C   LIG     1       0.988   0.773  -0.039  1.00  0.00     0.046 A 
HETATM    4  S   LIG     1      -0.521   1.595  -0.041  1.00  0.00    -0.087 SA
HETATM    5  C   LIG     1      -0.409  -0.947  -0.016  1.00  0.00     0.018 A 
HETATM    6  C   LIG     1      -1.328   0.085  -0.020  1.00  0.00     0.076 A 
HETATM    7  C   LIG     1       2.258   1.548  -0.036  1.00  0.00     0.076 C 
ENDROOT
BRANCH   5   8
HETATM    8  C   LIG     1      -0.712  -2.411   0.016  1.00  0.00     0.084 C 
BRANCH   8   9
HETATM    9  C   LIG     1      -0.830  -3.004  -1.391  1.00  0.00     0.235 C 
BRANCH   9  10
HETATM   10  N   LIG     1      -1.132  -4.437  -1.345  1.00  0.00    -0.079 N 
ATOM     11  HN3 LIG     1      -0.450  -4.945  -0.782  1.00  0.00     0.274 HD
ATOM     12  HN2 LIG     1      -1.966  -4.625  -0.789  1.00  0.00     0.274 HD
ATOM     13  HN1 LIG     1      -1.211  -4.832  -2.282  1.00  0.00     0.274 HD
ENDBRANCH   9  10
ENDBRANCH   8   9
ENDBRANCH   5   8
TORSDOF 3
