REMARK  0 active torsions:
REMARK  status: ('A' for Active; 'I' for Inactive)
ROOT
HETATM    1  N   LIG     1       1.583   1.040   0.038  1.00  0.00    -0.353 N 
ATOM      2  HN  LIG     1       1.828   2.030   0.068  1.00  0.00     0.166 HD
HETATM    3  S   LIG     1       1.771  -1.528  -0.022  1.00  0.00    -0.075 SA
HETATM    4  C   LIG     1       2.446   0.049   0.016  1.00  0.00     0.048 A 
HETATM    5  C   LIG     1       0.188  -0.850  -0.014  1.00  0.00     0.035 A 
HETATM    6  C   LIG     1       0.291   0.541   0.015  1.00  0.00     0.050 A 
HETATM    7  C   LIG     1      -1.058  -1.502  -0.044  1.00  0.00     0.047 A 
HETATM    8  C   LIG     1      -0.891   1.304   0.000  1.00  0.00     0.033 A 
HETATM    9  C   LIG     1      -2.227  -0.733  -0.000  1.00  0.00     0.047 A 
HETATM   10  N   LIG     1      -3.474  -1.353  -0.160  1.00  0.00    -0.102 NA
HETATM   11  C   LIG     1      -2.134   0.658  -0.031  1.00  0.00     0.029 A 
HETATM   12  C   LIG     1       3.924   0.224   0.015  1.00  0.00     0.076 C 
ENDROOT
TORSDOF 0
