REMARK  4 active torsions:
REMARK  status: ('A' for Active; 'I' for Inactive)
REMARK    1  A    between atoms: N_1  and  C_2 
REMARK    2  A    between atoms: C_2  and  C_3 
REMARK    3  A    between atoms: C_5  and  C_14 
REMARK    4  A    between atoms: N_6  and  C_14 
ROOT
HETATM    1  C   LIG     1      -0.779  -1.890   3.004  1.00  0.00    -0.030 A 
HETATM    2  C   LIG     1      -0.959  -0.583   3.489  1.00  0.00     0.017 A 
HETATM    3  C   LIG     1      -0.502  -0.215   4.766  1.00  0.00    -0.033 A 
HETATM    4  C   LIG     1       0.313  -2.476   5.096  1.00  0.00     0.001 A 
HETATM    5  C   LIG     1      -0.155  -2.833   3.832  1.00  0.00     0.009 A 
HETATM    6  C   LIG     1       0.145  -1.170   5.558  1.00  0.00     0.009 A 
ENDROOT
BRANCH   1   7
HETATM    7  C   LIG     1      -1.271  -2.280   1.623  1.00  0.00     0.311 C 
BRANCH   7   8
HETATM    8  N   LIG     1      -0.675  -1.506   0.525  1.00  0.00     0.092 N 
HETATM    9  C   LIG     1      -1.230  -1.893  -0.780  1.00  0.00     0.273 C 
HETATM   10  C   LIG     1      -0.108  -1.680  -1.793  1.00  0.00     0.032 C 
HETATM   11  C   LIG     1       1.047  -1.124  -0.981  1.00  0.00     0.032 C 
HETATM   12  C   LIG     1       0.778  -1.661   0.413  1.00  0.00     0.273 C 
ENDBRANCH   7   8
ENDBRANCH   1   7
BRANCH   3  13
HETATM   13  C   LIG     1      -0.679   1.196   5.269  1.00  0.00     0.268 C 
BRANCH  13  14
HETATM   14  N   LIG     1      -1.425   1.231   6.524  1.00  0.00    -0.075 N 
ATOM     15  HN3 LIG     1      -2.321   0.751   6.438  1.00  0.00     0.274 HD
ATOM     16  HN2 LIG     1      -0.993   0.635   7.230  1.00  0.00     0.274 HD
ATOM     17  HN1 LIG     1      -1.545   2.185   6.864  1.00  0.00     0.274 HD
ENDBRANCH  13  14
ENDBRANCH   3  13
TORSDOF 4
