REMARK  4 active torsions:
REMARK  status: ('A' for Active; 'I' for Inactive)
REMARK    1  A    between atoms: N_1  and  C_3 
REMARK    2  A    between atoms: C_3  and  C_7 
REMARK    3  A    between atoms: C_8  and  C_20 
REMARK    4  A    between atoms: N_11  and  C_20 
ROOT
HETATM    1  C   LIG     1      -2.829   2.542  -0.624  1.00  0.00    -0.030 A 
HETATM    2  C   LIG     1      -3.535   5.268  -0.408  1.00  0.00    -0.033 A 
HETATM    3  C   LIG     1      -2.735   3.393  -1.733  1.00  0.00     0.009 A 
HETATM    4  C   LIG     1      -3.281   3.067   0.594  1.00  0.00     0.009 A 
HETATM    5  C   LIG     1      -3.631   4.416   0.700  1.00  0.00     0.009 A 
HETATM    6  C   LIG     1      -3.083   4.742  -1.625  1.00  0.00     0.009 A 
ENDROOT
BRANCH   1   7
HETATM    7  C   LIG     1      -2.476   1.076  -0.753  1.00  0.00     0.311 C 
BRANCH   7   8
HETATM    8  N   LIG     1      -1.363   0.627   0.116  1.00  0.00     0.094 N 
HETATM    9  C   LIG     1      -0.095   1.269  -0.288  1.00  0.00     0.303 C 
HETATM   10  C   LIG     1       1.054   1.047   0.720  1.00  0.00     0.302 C 
HETATM   11  N   LIG     1       1.922  -0.105   0.430  1.00  0.00     0.086 N 
HETATM   12  C   LIG     1       1.202  -1.345   0.125  1.00  0.00     0.273 C 
HETATM   13  C   LIG     1       2.883  -0.299   1.515  1.00  0.00     0.309 C 
HETATM   14  C   LIG     1      -0.156  -1.539   0.801  1.00  0.00     0.060 C 
HETATM   15  C   LIG     1      -1.303  -0.844   0.057  1.00  0.00     0.274 C 
ENDBRANCH   7   8
ENDBRANCH   1   7
BRANCH   2  16
HETATM   16  C   LIG     1      -3.922   6.721  -0.302  1.00  0.00     0.268 C 
BRANCH  16  17
HETATM   17  N   LIG     1      -2.797   7.599  -0.603  1.00  0.00    -0.075 N 
ATOM     18  HN3 LIG     1      -1.990   7.385  -0.017  1.00  0.00     0.274 HD
ATOM     19  HN2 LIG     1      -2.392   7.387  -1.515  1.00  0.00     0.274 HD
ATOM     20  HN1 LIG     1      -3.059   8.582  -0.531  1.00  0.00     0.274 HD
ENDBRANCH  16  17
ENDBRANCH   2  16
TORSDOF 4
