REMARK  2 active torsions:
REMARK  status: ('A' for Active; 'I' for Inactive)
REMARK    1  A    between atoms: N_1  and  C_2 
REMARK    2  A    between atoms: C_2  and  C_3 
ROOT
HETATM    1  C   LIG     1      -0.565  -1.125   2.933  1.00  0.00    -0.028 A 
HETATM    2  C   LIG     1      -0.806  -0.046   3.802  1.00  0.00     0.035 A 
HETATM    3  C   LIG     1      -0.437  -0.104   5.150  1.00  0.00     0.046 A 
HETATM    4  N   LIG     1      -0.805   0.928   6.024  1.00  0.00    -0.102 NA
HETATM    5  C   LIG     1       0.329  -2.381   4.804  1.00  0.00     0.002 A 
HETATM    6  C   LIG     1       0.009  -2.292   3.450  1.00  0.00     0.009 A 
HETATM    7  C   LIG     1       0.087  -1.296   5.651  1.00  0.00     0.026 A 
ENDROOT
BRANCH   1   8
HETATM    8  C   LIG     1      -0.946  -1.032   1.470  1.00  0.00     0.311 C 
BRANCH   8   9
HETATM    9  N   LIG     1      -0.277   0.063   0.758  1.00  0.00     0.092 N 
HETATM   10  C   LIG     1      -0.705   0.145  -0.641  1.00  0.00     0.273 C 
HETATM   11  C   LIG     1       0.419   0.896  -1.347  1.00  0.00     0.032 C 
HETATM   12  C   LIG     1       1.564   0.939  -0.345  1.00  0.00     0.032 C 
HETATM   13  C   LIG     1       1.179  -0.083   0.708  1.00  0.00     0.273 C 
ENDBRANCH   8   9
ENDBRANCH   1   8
TORSDOF 2
