REMARK  2 active torsions:
REMARK  status: ('A' for Active; 'I' for Inactive)
REMARK    1  A    between atoms: N_1  and  C_7 
REMARK    2  A    between atoms: C_7  and  C_8 
ROOT
HETATM    1  C   LIG     1       3.001  -0.893  -1.592  1.00  0.00    -0.038 A 
HETATM    2  C   LIG     1       4.181  -0.708  -4.152  1.00  0.00     0.046 A 
HETATM    3  N   LIG     1       4.897  -0.617  -5.351  1.00  0.00    -0.102 NA
HETATM    4  C   LIG     1       3.957  -1.952  -3.558  1.00  0.00     0.027 A 
HETATM    5  C   LIG     1       3.891   0.443  -3.417  1.00  0.00     0.027 A 
HETATM    6  C   LIG     1       3.355  -2.048  -2.300  1.00  0.00     0.011 A 
HETATM    7  C   LIG     1       3.290   0.356  -2.158  1.00  0.00     0.011 A 
ENDROOT
BRANCH   1   8
HETATM    8  C   LIG     1       2.358  -0.991  -0.230  1.00  0.00     0.186 C 
BRANCH   8   9
HETATM    9  N   LIG     1       1.040  -0.369  -0.197  1.00  0.00    -0.299 N 
HETATM   10  N   LIG     1       0.792   0.644   0.660  1.00  0.00    -0.310 N 
HETATM   11  C   LIG     1      -0.489   0.944   0.434  1.00  0.00     0.108 A 
ATOM     12  HN  LIG     1       1.433   1.078   1.324  1.00  0.00     0.186 HD
HETATM   13  C   LIG     1      -1.068   0.124  -0.551  1.00  0.00     0.037 A 
HETATM   14  C   LIG     1      -0.058  -0.727  -0.932  1.00  0.00     0.112 A 
ENDBRANCH   8   9
ENDBRANCH   1   8
TORSDOF 2
