REMARK  4 active torsions:
REMARK  status: ('A' for Active; 'I' for Inactive)
REMARK    1  A    between atoms: C_1  and  C_5 
REMARK    2  A    between atoms: C_2  and  C_13 
REMARK    3  A    between atoms: C_3  and  N_4 
REMARK    4  A    between atoms: C_13  and  N_14 
ROOT
HETATM    1  C   LIG     1       0.534   2.942  -2.415  1.00  0.00    -0.011 A 
HETATM    2  C   LIG     1       0.179   2.310  -3.636  1.00  0.00     0.018 A 
HETATM    3  C   LIG     1       0.452   0.786  -1.237  1.00  0.00     0.048 A 
HETATM    4  C   LIG     1       0.647   2.170  -1.236  1.00  0.00     0.027 A 
HETATM    5  C   LIG     1      -0.032   0.921  -3.610  1.00  0.00     0.025 A 
HETATM    6  C   LIG     1       0.107   0.167  -2.441  1.00  0.00     0.018 A 
ENDROOT
BRANCH   2   7
HETATM    7  N   LIG     1       0.073   3.061  -4.830  1.00  0.00    -0.279 NA
HETATM    8  C   LIG     1       0.397   2.340  -6.089  1.00  0.00     0.122 C 
HETATM    9  C   LIG     1       0.338   3.306  -7.281  1.00  0.00     0.182 C 
HETATM   10  O   LIG     1      -0.958   3.920  -7.382  1.00  0.00    -0.389 OA
HETATM   11  C   LIG     1      -1.251   4.654  -6.182  1.00  0.00     0.182 C 
HETATM   12  C   LIG     1      -1.243   3.743  -4.941  1.00  0.00     0.122 C 
ENDBRANCH   2   7
BRANCH   1  13
HETATM   13  C   LIG     1       0.886   4.416  -2.315  1.00  0.00     0.272 C 
BRANCH  13  14
HETATM   14  N   LIG     1       1.983   4.840  -3.190  1.00  0.00    -0.075 N 
HETATM   15  C   LIG     1       3.225   4.135  -2.892  1.00  0.00     0.267 C 
ATOM     16  HN2 LIG     1       1.730   4.744  -4.173  1.00  0.00     0.277 HD
ATOM     17  HN1 LIG     1       2.114   5.851  -3.155  1.00  0.00     0.277 HD
ENDBRANCH  13  14
ENDBRANCH   1  13
BRANCH   3  18
HETATM   18  C   LIG     1       0.632  -0.040   0.011  1.00  0.00     0.417 C 
HETATM   19  F   LIG     1       0.978   0.693   1.106  1.00  0.00    -0.166 F 
HETATM   20  F   LIG     1       1.606  -0.983  -0.127  1.00  0.00    -0.166 F 
HETATM   21  F   LIG     1      -0.496  -0.718   0.357  1.00  0.00    -0.166 F 
ENDBRANCH   3  18
TORSDOF 4
