REMARK  4 active torsions:
REMARK  status: ('A' for Active; 'I' for Inactive)
REMARK    1  A    between atoms: N_1  and  C_2 
REMARK    2  A    between atoms: C_5  and  C_8 
REMARK    3  A    between atoms: C_5  and  O_16 
REMARK    4  A    between atoms: O_16  and  C_19 
ROOT
HETATM    1  N   LIG     1       0.754   1.411  -0.563  1.00  0.00    -0.268 NA
HETATM    2  C   LIG     1      -0.697  -0.933   0.276  1.00  0.00     0.088 C 
HETATM    3  C   LIG     1       1.499   0.238  -0.079  1.00  0.00     0.098 C 
HETATM    4  C   LIG     1      -0.564   1.578   0.070  1.00  0.00     0.098 C 
HETATM    5  C   LIG     1       0.691  -1.026  -0.367  1.00  0.00     0.029 C 
HETATM    6  C   LIG     1      -1.416   0.336  -0.185  1.00  0.00     0.029 C 
ENDROOT
BRANCH   1   7
HETATM    7  C   LIG     1       1.509   2.602  -0.415  1.00  0.00     0.098 A 
HETATM    8  N   LIG     1       2.450   2.708   0.552  1.00  0.00    -0.348 N 
HETATM    9  C   LIG     1       3.118   3.888   0.641  1.00  0.00     0.022 A 
ATOM     10  HN  LIG     1       2.649   1.935   1.187  1.00  0.00     0.167 HD
HETATM   11  C   LIG     1       2.852   4.944  -0.222  1.00  0.00     0.112 A 
HETATM   12  C   LIG     1       4.157   4.027   1.709  1.00  0.00     0.069 C 
HETATM   13  N   LIG     1       1.924   4.872  -1.198  1.00  0.00    -0.370 N 
HETATM   14  C   LIG     1       1.271   3.685  -1.271  1.00  0.00     0.130 A 
ATOM     15  HN  LIG     1       1.729   5.648  -1.831  1.00  0.00     0.164 HD
ENDBRANCH   1   7
BRANCH   2  16
HETATM   16  C   LIG     1      -1.546  -2.131  -0.080  1.00  0.00     0.263 C 
HETATM   17  O   LIG     1      -1.449  -2.777  -1.116  1.00  0.00    -0.265 OA
BRANCH  16  18
HETATM   18  O   LIG     1      -2.472  -2.350   0.895  1.00  0.00    -0.322 OA
BRANCH  18  19
HETATM   19  C   LIG     1      -3.391  -3.425   0.648  1.00  0.00     0.174 C 
HETATM   20  C   LIG     1      -4.555  -2.933  -0.193  1.00  0.00     0.034 C 
ENDBRANCH  18  19
ENDBRANCH  16  18
ENDBRANCH   2  16
TORSDOF 4
