REMARK  0 active torsions:
REMARK  status: ('A' for Active; 'I' for Inactive)
ROOT
HETATM    1  C   LIG     1      -0.021   0.695   0.122  1.00  0.00     0.135 A 
HETATM    2  N   LIG     1      -1.207   1.425   0.240  1.00  0.00    -0.372 N 
ATOM      3  HN  LIG     1      -1.267   2.357   0.651  1.00  0.00     0.161 HD
HETATM    4  N   LIG     1       1.121   1.407   0.088  1.00  0.00    -0.350 N 
ATOM      5  HN  LIG     1       1.114   2.426   0.120  1.00  0.00     0.166 HD
HETATM    6  C   LIG     1      -0.039  -0.709   0.070  1.00  0.00     0.112 A 
HETATM    7  O   LIG     1      -1.189  -1.463   0.040  1.00  0.00    -0.346 OA
HETATM    8  C   LIG     1      -2.342   0.697  -0.292  1.00  0.00     0.148 C 
HETATM    9  C   LIG     1       2.278   0.711   0.009  1.00  0.00     0.090 A 
HETATM   10  C   LIG     1      -2.366  -0.697   0.346  1.00  0.00     0.195 C 
HETATM   11  C   LIG     1       1.166  -1.395  -0.028  1.00  0.00     0.042 A 
HETATM   12  C   LIG     1       2.352  -0.672  -0.051  1.00  0.00     0.020 A 
ENDROOT
TORSDOF 0
