REMARK  3 active torsions:
REMARK  status: ('A' for Active; 'I' for Inactive)
REMARK    1  A    between atoms: C_3  and  C_7 
REMARK    2  A    between atoms: C_9  and  C_17 
REMARK    3  A    between atoms: N_10  and  C_17 
ROOT
HETATM    1  C   LIG     1      -0.732  -2.461  -0.043  1.00  0.00    -0.007 A 
HETATM    2  C   LIG     1       0.184  -3.491   0.219  1.00  0.00     0.022 A 
HETATM    3  C   LIG     1      -0.190  -4.845   0.140  1.00  0.00    -0.032 A 
HETATM    4  C   LIG     1      -2.045  -2.812  -0.386  1.00  0.00     0.014 A 
HETATM    5  C   LIG     1      -2.431  -4.152  -0.469  1.00  0.00     0.002 A 
HETATM    6  C   LIG     1      -1.508  -5.164  -0.207  1.00  0.00     0.009 A 
ENDROOT
BRANCH   1   7
HETATM    7  C   LIG     1      -0.334  -1.049   0.045  1.00  0.00     0.059 A 
HETATM    8  N   LIG     1      -1.208  -0.051  -0.178  1.00  0.00    -0.299 N 
HETATM    9  N   LIG     1      -0.498   1.074  -0.001  1.00  0.00    -0.307 N 
ATOM     10  HN  LIG     1      -2.194  -0.132  -0.427  1.00  0.00     0.187 HD
HETATM   11  C   LIG     1       0.804   0.853   0.323  1.00  0.00     0.112 A 
HETATM   12  C   LIG     1      -1.133   2.361  -0.149  1.00  0.00     0.177 C 
HETATM   13  C   LIG     1       0.947  -0.512   0.361  1.00  0.00     0.050 A 
ENDBRANCH   1   7
BRANCH   3  14
HETATM   14  C   LIG     1       0.810  -5.929   0.453  1.00  0.00     0.268 C 
BRANCH  14  15
HETATM   15  N   LIG     1       1.967  -5.867  -0.432  1.00  0.00    -0.075 N 
ATOM     16  HN3 LIG     1       1.687  -5.891  -1.413  1.00  0.00     0.274 HD
ATOM     17  HN2 LIG     1       2.401  -4.944  -0.413  1.00  0.00     0.274 HD
ATOM     18  HN1 LIG     1       2.644  -6.600  -0.220  1.00  0.00     0.274 HD
ENDBRANCH  14  15
ENDBRANCH   3  14
TORSDOF 3
