REMARK  0 active torsions:
REMARK  status: ('A' for Active; 'I' for Inactive)
ROOT
HETATM    1  N   LIG     1       0.945  -0.070  -0.045  1.00  0.00    -0.197 NA
HETATM    2  C   LIG     1       2.096  -0.070  -0.045  1.00  0.00     0.064 C 
HETATM    3  S   LIG     1       4.417  -0.465   3.042  1.00  0.00    -0.169 SA
HETATM    4  C   LIG     1       3.540  -0.070  -0.045  1.00  0.00     0.094 C 
HETATM    5  C   LIG     1       3.726  -1.715   1.923  1.00  0.00     0.075 C 
HETATM    6  C   LIG     1       3.727   1.026   2.273  1.00  0.00     0.075 C 
HETATM    7  C   LIG     1       4.074  -1.418   0.465  1.00  0.00     0.029 C 
HETATM    8  C   LIG     1       4.076   1.105   0.788  1.00  0.00     0.029 C 
ENDROOT
TORSDOF 0
