REMARK  1 active torsions:
REMARK  status: ('A' for Active; 'I' for Inactive)
REMARK    1  A    between atoms: C_2  and  O_5 
ROOT
HETATM    1  S   LIG     1       0.872   1.496  -0.342  1.00  0.00    -0.169 SA
HETATM    2  C   LIG     1      -0.717  -1.224   0.229  1.00  0.00     0.119 C 
HETATM    3  C   LIG     1       0.735  -1.267  -0.242  1.00  0.00     0.042 C 
HETATM    4  C   LIG     1      -1.463   0.022  -0.243  1.00  0.00     0.042 C 
HETATM    5  C   LIG     1       1.551  -0.081   0.250  1.00  0.00     0.076 C 
HETATM    6  C   LIG     1      -0.831   1.310   0.260  1.00  0.00     0.076 C 
ENDROOT
BRANCH   2   7
HETATM    7  O   LIG     1      -1.396  -2.383  -0.254  1.00  0.00    -0.396 OA
ATOM      8  HO  LIG     1      -2.299  -2.356   0.039  1.00  0.00     0.210 HD
ENDBRANCH   2   7
TORSDOF 1
