REMARK  1 active torsions:
REMARK  status: ('A' for Active; 'I' for Inactive)
REMARK    1  A    between atoms: C_2  and  C_8 
ROOT
HETATM    1  C   LIG     1       1.123   0.747   0.163  1.00  0.00     0.147 A 
HETATM    2  C   LIG     1      -1.081  -0.258   0.486  1.00  0.00     0.100 A 
HETATM    3  S   LIG     1      -0.357   1.226   0.926  1.00  0.00    -0.046 SA
HETATM    4  N   LIG     1       1.089  -0.465  -0.349  1.00  0.00    -0.345 N 
ATOM      5  HN  LIG     1       1.877  -0.923  -0.806  1.00  0.00     0.167 HD
HETATM    6  C   LIG     1      -0.159  -1.031  -0.183  1.00  0.00     0.116 A 
HETATM    7  N   LIG     1       2.226   1.539   0.124  1.00  0.00    -0.361 N 
HETATM    8  C   LIG     1       3.420   1.077  -0.572  1.00  0.00     0.125 C 
HETATM    9  C   LIG     1       2.174   2.993   0.194  1.00  0.00     0.125 C 
HETATM   10  C   LIG     1       3.358   3.450  -0.659  1.00  0.00     0.021 C 
HETATM   11  C   LIG     1       4.339   2.295  -0.544  1.00  0.00     0.021 C 
ENDROOT
BRANCH   2  12
HETATM   12  C   LIG     1      -2.448  -0.537   0.816  1.00  0.00     0.218 C 
HETATM   13  O   LIG     1      -3.256   0.167   1.402  1.00  0.00    -0.643 OA
HETATM   14  O   LIG     1      -2.820  -1.762   0.378  1.00  0.00    -0.643 OA
ENDBRANCH   2  12
TORSDOF 1
