REMARK  3 active torsions:
REMARK  status: ('A' for Active; 'I' for Inactive)
REMARK    1  A    between atoms: C_3  and  C_7 
REMARK    2  A    between atoms: C_6  and  C_8 
REMARK    3  A    between atoms: C_8  and  N_9 
ROOT
HETATM    1  N   LIG     1       0.883  -0.707   0.055  1.00  0.00    -0.260 N 
ATOM      2  HN  LIG     1       1.701  -1.316   0.070  1.00  0.00     0.195 HD
HETATM    3  C   LIG     1      -0.405  -1.093   0.024  1.00  0.00     0.067 A 
HETATM    4  C   LIG     1      -1.247   0.051   0.015  1.00  0.00     0.069 A 
HETATM    5  O   LIG     1       0.883   0.672   0.063  1.00  0.00    -0.240 OA
HETATM    6  C   LIG     1      -0.395   1.127   0.032  1.00  0.00     0.104 A 
ENDROOT
BRANCH   3   7
HETATM    7  C   LIG     1      -0.791  -2.509   0.003  1.00  0.00    -0.007 A 
HETATM    8  C   LIG     1      -2.142  -2.891  -0.035  1.00  0.00     0.014 A 
HETATM    9  C   LIG     1      -2.505  -4.241  -0.055  1.00  0.00     0.001 A 
HETATM   10  C   LIG     1      -1.525  -5.229  -0.037  1.00  0.00     0.000 A 
HETATM   11  C   LIG     1      -0.180  -4.869   0.001  1.00  0.00     0.001 A 
HETATM   12  C   LIG     1       0.184  -3.519   0.020  1.00  0.00     0.014 A 
ENDBRANCH   3   7
BRANCH   6  13
HETATM   13  C   LIG     1      -0.576   2.596   0.039  1.00  0.00     0.296 C 
BRANCH  13  14
HETATM   14  N   LIG     1      -1.783   2.988  -0.687  1.00  0.00    -0.073 N 
ATOM     15  HN3 LIG     1      -1.786   2.616  -1.637  1.00  0.00     0.274 HD
ATOM     16  HN2 LIG     1      -2.608   2.508  -0.327  1.00  0.00     0.274 HD
ATOM     17  HN1 LIG     1      -1.908   4.000  -0.682  1.00  0.00     0.274 HD
ENDBRANCH  13  14
ENDBRANCH   6  13
TORSDOF 3
