REMARK  3 active torsions:
REMARK  status: ('A' for Active; 'I' for Inactive)
REMARK    1  A    between atoms: C_1  and  C_2 
REMARK    2  A    between atoms: C_5  and  C_6 
REMARK    3  A    between atoms: C_8  and  C_9 
ROOT
HETATM    1  C   LIG     1      -0.144   1.301  -0.525  1.00  0.00     0.063 A 
HETATM    2  N   LIG     1       0.306   2.737  -2.420  1.00  0.00    -0.364 N 
ATOM      3  HN  LIG     1       0.610   2.837  -3.389  1.00  0.00     0.165 HD
HETATM    4  C   LIG     1      -0.048   3.826  -1.688  1.00  0.00     0.042 A 
HETATM    5  C   LIG     1       0.247   1.515  -1.835  1.00  0.00     0.104 A 
HETATM    6  C   LIG     1      -0.495   2.425   0.224  1.00  0.00     0.020 A 
HETATM    7  C   LIG     1      -0.447   3.694  -0.358  1.00  0.00     0.031 A 
ENDROOT
BRANCH   4   8
HETATM    8  C   LIG     1       0.030   5.128  -2.390  1.00  0.00    -0.009 A 
HETATM    9  C   LIG     1      -0.811   6.211  -2.068  1.00  0.00     0.032 A 
HETATM   10  C   LIG     1      -0.730   7.435  -2.757  1.00  0.00     0.041 A 
HETATM   11  C   LIG     1       0.204   7.596  -3.784  1.00  0.00     0.018 A 
HETATM   12  C   LIG     1       1.046   6.541  -4.121  1.00  0.00     0.002 A 
HETATM   13  C   LIG     1       0.955   5.325  -3.435  1.00  0.00     0.014 A 
BRANCH  10  14
HETATM   14  C   LIG     1      -1.660   8.525  -2.373  1.00  0.00     0.209 C 
HETATM   15  O   LIG     1      -2.487   8.473  -1.480  1.00  0.00    -0.644 OA
HETATM   16  O   LIG     1      -1.514   9.629  -3.127  1.00  0.00    -0.644 OA
ENDBRANCH  10  14
ENDBRANCH   4   8
BRANCH   1  17
HETATM   17  C   LIG     1      -0.184  -0.077   0.059  1.00  0.00     0.418 C 
HETATM   18  F   LIG     1       0.193  -1.054  -0.812  1.00  0.00    -0.166 F 
HETATM   19  F   LIG     1      -1.428  -0.423   0.491  1.00  0.00    -0.166 F 
HETATM   20  F   LIG     1       0.634  -0.207   1.140  1.00  0.00    -0.166 F 
ENDBRANCH   1  17
TORSDOF 3
