REMARK  4 active torsions:
REMARK  status: ('A' for Active; 'I' for Inactive)
REMARK    1  A    between atoms: C_1  and  C_4 
REMARK    2  A    between atoms: C_1  and  O_5 
REMARK    3  A    between atoms: C_4  and  C_6 
REMARK    4  A    between atoms: O_5  and  C_9 
ROOT
HETATM    1  O   LIG     1       0.754  -3.437   3.418  1.00  0.00    -0.391 OA
HETATM    2  C   LIG     1       0.837  -0.756   2.299  1.00  0.00    -0.001 C 
HETATM    3  C   LIG     1      -0.464  -2.709   3.272  1.00  0.00     0.168 C 
HETATM    4  C   LIG     1       1.695  -3.145   2.388  1.00  0.00     0.168 C 
HETATM    5  C   LIG     1       2.071  -1.666   2.397  1.00  0.00     0.031 C 
HETATM    6  C   LIG     1      -0.202  -1.209   3.338  1.00  0.00     0.031 C 
ENDROOT
BRANCH   2   7
HETATM    7  C   LIG     1       0.291  -0.728   0.858  1.00  0.00     0.115 C 
BRANCH   7   8
HETATM    8  C   LIG     1      -0.901   0.184   0.695  1.00  0.00     0.259 C 
HETATM    9  O   LIG     1      -1.992  -0.187   0.289  1.00  0.00    -0.265 OA
BRANCH   8  10
HETATM   10  O   LIG     1      -0.586   1.451   1.079  1.00  0.00    -0.322 OA
BRANCH  10  11
HETATM   11  C   LIG     1      -1.677   2.382   1.115  1.00  0.00     0.174 C 
HETATM   12  C   LIG     1      -2.450   2.215   2.412  1.00  0.00     0.034 C 
ENDBRANCH  10  11
ENDBRANCH   8  10
ENDBRANCH   7   8
ENDBRANCH   2   7
TORSDOF 4
