REMARK  3 active torsions:
REMARK  status: ('A' for Active; 'I' for Inactive)
REMARK    1  A    between atoms: O_2  and  C_7 
REMARK    2  A    between atoms: C_4  and  C_8 
REMARK    3  A    between atoms: C_7  and  C_8 
ROOT
HETATM    1  O   LIG     1       0.895   1.402  -0.018  1.00  0.00    -0.391 OA
HETATM    2  C   LIG     1      -0.573  -1.086   0.160  1.00  0.00    -0.009 C 
HETATM    3  C   LIG     1       1.558   0.234   0.462  1.00  0.00     0.168 C 
HETATM    4  C   LIG     1      -0.479   1.428   0.366  1.00  0.00     0.168 C 
HETATM    5  C   LIG     1       0.935  -1.021  -0.134  1.00  0.00     0.031 C 
HETATM    6  C   LIG     1      -1.231   0.245  -0.233  1.00  0.00     0.031 C 
ENDROOT
BRANCH   2   7
HETATM    7  C   LIG     1      -1.201  -2.294  -0.561  1.00  0.00     0.031 C 
BRANCH   7   8
HETATM    8  C   LIG     1      -2.688  -2.493  -0.282  1.00  0.00     0.164 C 
BRANCH   8   9
HETATM    9  O   LIG     1      -2.922  -2.656   1.110  1.00  0.00    -0.401 OA
ATOM     10  HO  LIG     1      -3.848  -2.780   1.284  1.00  0.00     0.209 HD
ENDBRANCH   8   9
ENDBRANCH   7   8
ENDBRANCH   2   7
TORSDOF 3
