REMARK  3 active torsions:
REMARK  status: ('A' for Active; 'I' for Inactive)
REMARK    1  A    between atoms: C_1  and  C_7 
REMARK    2  A    between atoms: C_2  and  O_6 
REMARK    3  A    between atoms: C_7  and  N_8 
ROOT
HETATM    1  C   LIG     1       1.079  -0.515   0.012  1.00  0.00     0.041 A 
HETATM    2  C   LIG     1      -0.225  -0.972  -0.039  1.00  0.00     0.083 A 
HETATM    3  S   LIG     1       1.146   1.198   0.083  1.00  0.00    -0.102 SA
HETATM    4  C   LIG     1      -1.169   0.100  -0.021  1.00  0.00     0.045 A 
HETATM    5  C   LIG     1      -0.555   1.331   0.039  1.00  0.00     0.053 A 
ENDROOT
BRANCH   1   6
HETATM    6  C   LIG     1       2.346  -1.313   0.021  1.00  0.00     0.278 C 
BRANCH   6   7
HETATM    7  N   LIG     1       2.832  -1.531  -1.340  1.00  0.00    -0.075 N 
ATOM      8  HN3 LIG     1       2.120  -1.960  -1.931  1.00  0.00     0.274 HD
ATOM      9  HN2 LIG     1       2.943  -0.653  -1.846  1.00  0.00     0.274 HD
ATOM     10  HN1 LIG     1       3.695  -2.075  -1.334  1.00  0.00     0.274 HD
ENDBRANCH   6   7
ENDBRANCH   1   6
BRANCH   2  11
HETATM   11  O   LIG     1      -0.461  -2.308  -0.101  1.00  0.00    -0.355 OA
HETATM   12  C   LIG     1      -1.835  -2.667  -0.164  1.00  0.00     0.210 C 
ENDBRANCH   2  11
TORSDOF 3
