REMARK  4 active torsions:
REMARK  status: ('A' for Active; 'I' for Inactive)
REMARK    1  A    between atoms: C_1  and  N_6 
REMARK    2  A    between atoms: N_6  and  C_11 
REMARK    3  A    between atoms: C_8  and  C_16 
REMARK    4  A    between atoms: N_12  and  C_16 
ROOT
HETATM    1  C   LIG     1      -0.389   1.058   0.157  1.00  0.00     0.682 A 
HETATM    2  N   LIG     1      -1.220   0.005   0.121  1.00  0.00    -0.201 N 
ATOM      3  HN  LIG     1      -2.233   0.126   0.124  1.00  0.00     0.183 HD
HETATM    4  N   LIG     1       0.948   0.932   0.153  1.00  0.00    -0.201 N 
ATOM      5  HN  LIG     1       1.554   1.752   0.184  1.00  0.00     0.183 HD
HETATM    6  C   LIG     1       0.704  -1.451   0.073  1.00  0.00    -0.001 A 
HETATM    7  C   LIG     1      -0.657  -1.225   0.081  1.00  0.00     0.116 A 
HETATM    8  C   LIG     1       1.462  -0.307   0.107  1.00  0.00     0.116 A 
ENDROOT
BRANCH   1   9
HETATM    9  N   LIG     1      -0.984   2.314   0.240  1.00  0.00    -0.192 N 
ATOM     10  HN  LIG     1      -2.004   2.292   0.248  1.00  0.00     0.184 HD
BRANCH   9  11
HETATM   11  C   LIG     1      -0.438   3.602   0.314  1.00  0.00     0.049 A 
HETATM   12  C   LIG     1       0.887   3.895  -0.033  1.00  0.00     0.030 A 
HETATM   13  C   LIG     1       1.417   5.179   0.120  1.00  0.00     0.002 A 
HETATM   14  C   LIG     1       0.629   6.198   0.639  1.00  0.00     0.000 A 
HETATM   15  C   LIG     1      -0.690   5.932   0.998  1.00  0.00     0.002 A 
HETATM   16  C   LIG     1      -1.217   4.646   0.836  1.00  0.00     0.030 A 
ENDBRANCH   9  11
ENDBRANCH   1   9
BRANCH   6  17
HETATM   17  C   LIG     1       1.317  -2.808  -0.004  1.00  0.00     0.271 C 
BRANCH  17  18
HETATM   18  N   LIG     1       0.898  -3.662   1.099  1.00  0.00    -0.075 N 
ATOM     19  HN3 LIG     1       1.087  -3.222   2.000  1.00  0.00     0.274 HD
ATOM     20  HN2 LIG     1      -0.119  -3.719   1.157  1.00  0.00     0.274 HD
ATOM     21  HN1 LIG     1       1.317  -4.590   1.046  1.00  0.00     0.274 HD
ENDBRANCH  17  18
ENDBRANCH   6  17
TORSDOF 4
