REMARK  1 active torsions:
REMARK  status: ('A' for Active; 'I' for Inactive)
REMARK    1  A    between atoms: C_1  and  C_5 
ROOT
HETATM    1  C   LIG     1      -2.500  -0.061   0.073  1.00  0.00     0.084 A 
HETATM    2  S   LIG     1      -1.691  -1.568   0.138  1.00  0.00    -0.081 SA
HETATM    3  C   LIG     1      -1.599   0.983  -0.006  1.00  0.00     0.057 A 
HETATM    4  C   LIG     1      -0.243   0.550  -0.013  1.00  0.00     0.050 A 
HETATM    5  C   LIG     1      -0.140  -0.838   0.061  1.00  0.00     0.032 A 
HETATM    6  N   LIG     1       0.840   1.370  -0.084  1.00  0.00    -0.365 N 
ATOM      7  HN  LIG     1       0.751   2.385  -0.139  1.00  0.00     0.165 HD
HETATM    8  C   LIG     1       1.121  -1.449   0.066  1.00  0.00     0.022 A 
HETATM    9  C   LIG     1       2.038   0.753  -0.077  1.00  0.00     0.088 A 
HETATM   10  C   LIG     1       2.232  -0.615  -0.005  1.00  0.00     0.018 A 
ENDROOT
BRANCH   1  11
HETATM   11  C   LIG     1      -3.940   0.053   0.101  1.00  0.00     0.216 C 
HETATM   12  O   LIG     1      -4.595   1.084   0.057  1.00  0.00    -0.643 OA
HETATM   13  O   LIG     1      -4.575  -1.137   0.185  1.00  0.00    -0.643 OA
ENDBRANCH   1  11
TORSDOF 1
