REMARK  3 active torsions:
REMARK  status: ('A' for Active; 'I' for Inactive)
REMARK    1  A    between atoms: C_3  and  C_8 
REMARK    2  A    between atoms: C_6  and  C_9 
REMARK    3  A    between atoms: C_9  and  N_10 
ROOT
HETATM    1  N   LIG     1      -0.249  -1.070   0.274  1.00  0.00    -0.321 N 
ATOM      2  HN  LIG     1      -0.435  -2.069   0.363  1.00  0.00     0.169 HD
HETATM    3  C   LIG     1       0.957  -0.429   0.070  1.00  0.00     0.137 A 
HETATM    4  N   LIG     1       0.851   0.908  -0.031  1.00  0.00    -0.242 N 
ATOM      5  HN  LIG     1       1.594   1.587  -0.197  1.00  0.00     0.196 HD
HETATM    6  C   LIG     1      -1.097  -0.066   0.324  1.00  0.00     0.174 A 
HETATM    7  O   LIG     1      -0.509   1.149   0.143  1.00  0.00    -0.221 OA
ENDROOT
BRANCH   3   8
HETATM    8  C   LIG     1       2.221  -1.154  -0.021  1.00  0.00     0.010 A 
HETATM    9  C   LIG     1       3.434  -0.474  -0.209  1.00  0.00     0.015 A 
HETATM   10  C   LIG     1       4.641  -1.176  -0.283  1.00  0.00     0.001 A 
HETATM   11  C   LIG     1       4.648  -2.565  -0.170  1.00  0.00     0.000 A 
HETATM   12  C   LIG     1       3.451  -3.254   0.014  1.00  0.00     0.001 A 
HETATM   13  C   LIG     1       2.244  -2.553   0.088  1.00  0.00     0.015 A 
ENDBRANCH   3   8
BRANCH   6  14
HETATM   14  C   LIG     1      -2.570  -0.078   0.535  1.00  0.00     0.315 C 
BRANCH  14  15
HETATM   15  N   LIG     1      -2.940  -0.671   1.825  1.00  0.00    -0.072 N 
ATOM     16  HN3 LIG     1      -2.545  -1.606   1.928  1.00  0.00     0.274 HD
ATOM     17  HN2 LIG     1      -2.461  -0.206   2.596  1.00  0.00     0.274 HD
ATOM     18  HN1 LIG     1      -3.950  -0.679   1.970  1.00  0.00     0.274 HD
ENDBRANCH  14  15
ENDBRANCH   6  14
TORSDOF 3
