REMARK  3 active torsions:
REMARK  status: ('A' for Active; 'I' for Inactive)
REMARK    1  A    between atoms: C_1  and  C_2 
REMARK    2  A    between atoms: C_1  and  C_7 
REMARK    3  A    between atoms: N_3  and  C_7 
ROOT
HETATM    1  C   LIG     1       1.015  -0.116  -0.138  1.00  0.00     0.003 C 
HETATM    2  C   LIG     1       0.652   0.704  -1.398  1.00  0.00     0.021 C 
HETATM    3  C   LIG     1       2.560  -0.116  -0.031  1.00  0.00     0.021 C 
ENDROOT
BRANCH   1   4
HETATM    4  C   LIG     1       0.423  -1.538  -0.277  1.00  0.00    -0.049 A 
HETATM    5  C   LIG     1      -0.965  -1.713  -0.446  1.00  0.00     0.008 A 
HETATM    6  C   LIG     1      -1.533  -2.983  -0.580  1.00  0.00     0.001 A 
HETATM    7  C   LIG     1      -0.724  -4.114  -0.551  1.00  0.00     0.000 A 
HETATM    8  C   LIG     1       0.648  -3.971  -0.383  1.00  0.00     0.001 A 
HETATM    9  C   LIG     1       1.215  -2.699  -0.245  1.00  0.00     0.008 A 
ENDBRANCH   1   4
BRANCH   1  10
HETATM   10  C   LIG     1       0.412   0.555   1.141  1.00  0.00     0.243 C 
BRANCH  10  11
HETATM   11  N   LIG     1       0.866   1.925   1.402  1.00  0.00    -0.078 N 
ATOM     12  HN3 LIG     1       1.885   1.956   1.437  1.00  0.00     0.274 HD
ATOM     13  HN2 LIG     1       0.697   2.512   0.585  1.00  0.00     0.274 HD
ATOM     14  HN1 LIG     1       0.473   2.362   2.236  1.00  0.00     0.274 HD
ENDBRANCH  10  11
ENDBRANCH   1  10
TORSDOF 3
