REMARK  2 active torsions:
REMARK  status: ('A' for Active; 'I' for Inactive)
REMARK    1  A    between atoms: N_2  and  C_9 
REMARK    2  A    between atoms: C_8  and  C_9 
ROOT
HETATM    1  N   LIG     1       6.396  -0.324   1.582  1.00  0.00    -0.197 NA
HETATM    2  C   LIG     1       6.053  -0.649   0.523  1.00  0.00     0.060 C 
HETATM    3  C   LIG     1       5.603  -1.058  -0.810  1.00  0.00     0.144 C 
ENDROOT
BRANCH   3   4
HETATM    4  C   LIG     1       4.089  -1.209  -0.829  1.00  0.00     0.142 C 
BRANCH   4   5
HETATM    5  N   LIG     1       3.608  -1.587  -2.147  1.00  0.00    -0.366 N 
HETATM    6  C   LIG     1       3.445  -2.873  -2.589  1.00  0.00     0.090 A 
HETATM    7  C   LIG     1       2.985  -2.817  -3.886  1.00  0.00     0.019 A 
HETATM    8  C   LIG     1       2.864  -1.450  -4.234  1.00  0.00     0.019 A 
HETATM    9  C   LIG     1       3.253  -0.712  -3.137  1.00  0.00     0.090 A 
ENDBRANCH   4   5
ENDBRANCH   3   4
TORSDOF 2
