REMARK  3 active torsions:
REMARK  status: ('A' for Active; 'I' for Inactive)
REMARK    1  A    between atoms: C_1  and  C_4 
REMARK    2  A    between atoms: N_2  and  C_3 
REMARK    3  A    between atoms: C_4  and  O_10 
ROOT
HETATM    1  C   LIG     1      -1.477  -0.141   0.096  1.00  0.00     0.066 A 
HETATM    2  C   LIG     1      -0.743  -1.338  -0.036  1.00  0.00     0.054 A 
HETATM    3  C   LIG     1      -0.815   1.101   0.081  1.00  0.00     0.020 A 
HETATM    4  C   LIG     1       0.659  -1.254  -0.123  1.00  0.00     0.031 A 
HETATM    5  C   LIG     1       0.571   1.164  -0.027  1.00  0.00     0.001 A 
HETATM    6  C   LIG     1       1.307  -0.013  -0.119  1.00  0.00     0.002 A 
ENDROOT
BRANCH   2   7
HETATM    7  N   LIG     1      -1.356  -2.627  -0.121  1.00  0.00    -0.332 N 
HETATM    8  C   LIG     1      -0.770  -3.835   0.223  1.00  0.00     0.096 A 
HETATM    9  C   LIG     1      -1.683  -4.853   0.049  1.00  0.00     0.019 A 
HETATM   10  C   LIG     1      -2.842  -4.277  -0.506  1.00  0.00     0.019 A 
HETATM   11  C   LIG     1      -2.610  -2.923  -0.624  1.00  0.00     0.096 A 
ENDBRANCH   2   7
BRANCH   1  12
HETATM   12  C   LIG     1      -2.919  -0.051   0.414  1.00  0.00     0.295 C 
HETATM   13  O   LIG     1      -3.710   0.647  -0.187  1.00  0.00    -0.259 OA
BRANCH  12  14
HETATM   14  O   LIG     1      -3.136  -0.742   1.560  1.00  0.00    -0.322 OA
HETATM   15  C   LIG     1      -4.472  -0.659   2.059  1.00  0.00     0.213 C 
ENDBRANCH  12  14
ENDBRANCH   1  12
TORSDOF 3
