REMARK  2 active torsions:
REMARK  status: ('A' for Active; 'I' for Inactive)
REMARK    1  A    between atoms: N_1  and  C_8 
REMARK    2  A    between atoms: C_8  and  C_9 
ROOT
HETATM    1  N   LIG     1       0.517  -4.235  -1.890  1.00  0.00    -0.368 N 
ATOM      2  HN  LIG     1       0.835  -4.392  -0.933  1.00  0.00     0.165 HD
HETATM    3  C   LIG     1      -0.063  -3.063  -2.256  1.00  0.00     0.027 A 
HETATM    4  C   LIG     1       0.658  -5.187  -2.841  1.00  0.00     0.088 A 
HETATM    5  C   LIG     1      -0.535  -2.843  -3.551  1.00  0.00     0.027 A 
HETATM    6  C   LIG     1       0.238  -5.035  -4.151  1.00  0.00     0.017 A 
HETATM    7  C   LIG     1      -0.372  -3.840  -4.508  1.00  0.00     0.003 A 
ENDROOT
BRANCH   3   8
HETATM    8  C   LIG     1      -0.203  -2.006  -1.190  1.00  0.00     0.184 C 
BRANCH   8   9
HETATM    9  N   LIG     1       0.455  -0.757  -1.560  1.00  0.00    -0.361 N 
HETATM   10  C   LIG     1       1.811  -0.575  -1.677  1.00  0.00     0.091 A 
HETATM   11  C   LIG     1       2.038   0.749  -1.984  1.00  0.00     0.019 A 
HETATM   12  C   LIG     1       0.779   1.390  -2.050  1.00  0.00     0.019 A 
HETATM   13  C   LIG     1      -0.183   0.438  -1.787  1.00  0.00     0.091 A 
ENDBRANCH   8   9
ENDBRANCH   3   8
TORSDOF 2
