REMARK  4 active torsions:
REMARK  status: ('A' for Active; 'I' for Inactive)
REMARK    1  A    between atoms: C_1  and  C_5 
REMARK    2  A    between atoms: S_3  and  C_5 
REMARK    3  A    between atoms: S_3  and  C_7 
REMARK    4  A    between atoms: C_6  and  C_7 
ROOT
HETATM    1  C   LIG     1       3.015   0.092   3.402  1.00  0.00    -0.049 A 
HETATM    2  C   LIG     1       2.344   1.271   3.045  1.00  0.00     0.008 A 
HETATM    3  C   LIG     1       4.054   0.169   4.343  1.00  0.00     0.008 A 
HETATM    4  C   LIG     1       4.417   1.394   4.906  1.00  0.00     0.001 A 
HETATM    5  C   LIG     1       2.711   2.497   3.607  1.00  0.00     0.001 A 
HETATM    6  C   LIG     1       3.744   2.557   4.540  1.00  0.00     0.000 A 
ENDROOT
BRANCH   1   7
HETATM    7  C   LIG     1       2.611  -1.230   2.795  1.00  0.00     0.112 C 
BRANCH   7   8
HETATM    8  S   LIG     1       3.962  -2.079   1.910  1.00  0.00    -0.154 SA
BRANCH   8   9
HETATM    9  C   LIG     1       4.346  -0.829   0.640  1.00  0.00     0.187 C 
BRANCH   9  10
HETATM   10  C   LIG     1       3.200  -0.594  -0.315  1.00  0.00     0.182 C 
HETATM   11  O   LIG     1       2.335  -1.377  -0.663  1.00  0.00    -0.647 OA
HETATM   12  O   LIG     1       3.230   0.649  -0.846  1.00  0.00    -0.647 OA
ENDBRANCH   9  10
ENDBRANCH   8   9
ENDBRANCH   7   8
ENDBRANCH   1   7
TORSDOF 4
