REMARK  1 active torsions:
REMARK  status: ('A' for Active; 'I' for Inactive)
REMARK    1  A    between atoms: C_3  and  S_7 
ROOT
HETATM    1  C   LIG     1      -1.453   0.107  -0.043  1.00  0.00     0.064 A 
HETATM    2  C   LIG     1      -0.729   1.304   0.011  1.00  0.00     0.051 A 
HETATM    3  C   LIG     1      -0.748  -1.116  -0.052  1.00  0.00     0.024 A 
HETATM    4  C   LIG     1       0.653  -1.121  -0.076  1.00  0.00     0.022 A 
HETATM    5  C   LIG     1       0.666   1.288  -0.020  1.00  0.00     0.035 A 
HETATM    6  N   LIG     1      -2.849   0.148   0.126  1.00  0.00    -0.101 NA
HETATM    7  C   LIG     1       1.360   0.082  -0.068  1.00  0.00     0.025 A 
HETATM    8 CL   LIG     1       1.538   2.771   0.020  1.00  0.00    -0.084 Cl
ENDROOT
BRANCH   3   9
HETATM    9  S   LIG     1      -1.614  -2.687  -0.064  1.00  0.00    -0.133 SA
HETATM   10  C   LIG     1      -1.606  -2.984  -1.851  1.00  0.00     0.095 C 
ENDBRANCH   3   9
TORSDOF 1
