REMARK  1 active torsions:
REMARK  status: ('A' for Active; 'I' for Inactive)
REMARK    1  A    between atoms: N_3  and  C_5 
ROOT
HETATM    1  N   LIG     1       1.068  -0.057   0.086  1.00  0.00    -0.195 NA
HETATM    2  C   LIG     1       2.218  -0.010   0.073  1.00  0.00     0.089 C 
HETATM    3  C   LIG     1       3.661   0.049   0.057  1.00  0.00     0.395 C 
ENDROOT
BRANCH   3   4
HETATM    4  N   LIG     1       4.308  -0.458   1.288  1.00  0.00     0.102 N 
HETATM    5  C   LIG     1       5.754  -0.165   1.315  1.00  0.00     0.283 C 
HETATM    6  C   LIG     1       6.625  -0.918   0.299  1.00  0.00     0.104 C 
HETATM    7  S   LIG     1       6.512  -2.725   0.481  1.00  0.00    -0.166 SA
HETATM    8  C   LIG     1       4.700  -2.881   0.553  1.00  0.00     0.104 C 
HETATM    9  C   LIG     1       4.063  -1.893   1.540  1.00  0.00     0.283 C 
ENDBRANCH   3   4
TORSDOF 1
