REMARK  2 active torsions:
REMARK  status: ('A' for Active; 'I' for Inactive)
REMARK    1  A    between atoms: C_2  and  N_7 
REMARK    2  A    between atoms: C_3  and  N_6 
ROOT
HETATM    1  C   LIG     1       1.716  -0.954   0.331  1.00  0.00     0.092 A 
HETATM    2  C   LIG     1       0.522  -1.702   0.132  1.00  0.00     0.033 A 
HETATM    3  C   LIG     1       1.735   0.469   0.290  1.00  0.00     0.052 A 
HETATM    4  C   LIG     1       2.945  -1.661   0.580  1.00  0.00     0.103 C 
HETATM    5  N   LIG     1       3.943  -2.236   0.784  1.00  0.00    -0.191 NA
HETATM    6  C   LIG     1      -0.660  -0.981  -0.103  1.00  0.00     0.025 A 
HETATM    7  C   LIG     1       0.513   1.120   0.049  1.00  0.00     0.031 A 
HETATM    8  C   LIG     1      -0.668   0.410  -0.145  1.00  0.00     0.004 A 
ENDROOT
BRANCH   2   9
HETATM    9  N   LIG     1       0.514  -3.118   0.169  1.00  0.00    -0.290 NA
HETATM   10  C   LIG     1      -0.478  -3.798  -0.669  1.00  0.00     0.116 C 
HETATM   11  C   LIG     1       0.603  -3.654   1.534  1.00  0.00     0.116 C 
ENDBRANCH   2   9
BRANCH   3  12
HETATM   12  N   LIG     1       2.925   1.211   0.483  1.00  0.00    -0.388 N 
HETATM   13  C   LIG     1       2.798   2.544   1.073  1.00  0.00     0.149 C 
HETATM   14  C   LIG     1       3.844   1.141  -0.662  1.00  0.00     0.149 C 
ENDBRANCH   3  12
TORSDOF 2
