REMARK  4 active torsions:
REMARK  status: ('A' for Active; 'I' for Inactive)
REMARK    1  A    between atoms: C_3  and  C_6 
REMARK    2  A    between atoms: C_6  and  C_8 
REMARK    3  A    between atoms: C_8  and  O_10 
REMARK    4  A    between atoms: O_10  and  C_12 
ROOT
HETATM    1  N   LIG     1       0.280  -0.274   1.608  1.00  0.00    -0.357 N 
ATOM      2  HN  LIG     1       0.749  -0.936   2.226  1.00  0.00     0.166 HD
HETATM    3  C   LIG     1      -0.572  -0.623   0.569  1.00  0.00     0.025 A 
HETATM    4  C   LIG     1       0.395   1.035   1.681  1.00  0.00     0.047 A 
HETATM    5  S   LIG     1      -0.521   1.924   0.533  1.00  0.00    -0.087 SA
HETATM    6  C   LIG     1      -1.113   0.453  -0.112  1.00  0.00     0.077 A 
HETATM    7  C   LIG     1       1.241   1.752   2.672  1.00  0.00     0.076 C 
ENDROOT
BRANCH   3   8
HETATM    8  C   LIG     1      -0.823  -2.074   0.313  1.00  0.00     0.168 C 
BRANCH   8   9
HETATM    9  C   LIG     1      -0.426  -2.486  -1.083  1.00  0.00     0.264 C 
HETATM   10  O   LIG     1      -0.425  -1.754  -2.068  1.00  0.00    -0.265 OA
BRANCH   9  11
HETATM   11  O   LIG     1      -0.144  -3.821  -1.121  1.00  0.00    -0.322 OA
BRANCH  11  12
HETATM   12  C   LIG     1       0.241  -4.322  -2.409  1.00  0.00     0.174 C 
HETATM   13  C   LIG     1      -0.989  -4.629  -3.244  1.00  0.00     0.034 C 
ENDBRANCH  11  12
ENDBRANCH   9  11
ENDBRANCH   8   9
ENDBRANCH   3   8
TORSDOF 4
