REMARK  3 active torsions:
REMARK  status: ('A' for Active; 'I' for Inactive)
REMARK    1  A    between atoms: C_1  and  S_4 
REMARK    2  A    between atoms: C_2  and  O_5 
REMARK    3  A    between atoms: C_3  and  O_6 
ROOT
HETATM    1  C   LIG     1       0.626   0.077   0.000  1.00  0.00     0.067 A 
HETATM    2  C   LIG     1      -0.617  -0.607   0.027  1.00  0.00     0.087 A 
HETATM    3  C   LIG     1       0.648   1.473  -0.213  1.00  0.00     0.087 A 
HETATM    4  C   LIG     1      -1.768   1.481  -0.418  1.00  0.00     0.006 A 
HETATM    5  C   LIG     1      -1.799   0.117  -0.174  1.00  0.00     0.038 A 
HETATM    6  C   LIG     1      -0.551   2.161  -0.441  1.00  0.00     0.038 A 
ENDROOT
BRANCH   1   7
HETATM    7  S   LIG     1       2.165  -0.823   0.300  1.00  0.00    -0.129 SA
HETATM    8  C   LIG     1       2.629  -1.171  -1.415  1.00  0.00     0.096 C 
ENDBRANCH   1   7
BRANCH   2   9
HETATM    9  O   LIG     1      -0.595  -1.964   0.244  1.00  0.00    -0.354 OA
HETATM   10  C   LIG     1      -1.846  -2.641   0.244  1.00  0.00     0.210 C 
ENDBRANCH   2   9
BRANCH   3  11
HETATM   11  O   LIG     1       1.870   2.106  -0.250  1.00  0.00    -0.354 OA
HETATM   12  C   LIG     1       1.882   3.476   0.141  1.00  0.00     0.210 C 
ENDBRANCH   3  11
TORSDOF 3
