REMARK  2 active torsions:
REMARK  status: ('A' for Active; 'I' for Inactive)
REMARK    1  A    between atoms: C_3  and  C_6 
REMARK    2  A    between atoms: C_6  and  C_8 
ROOT
HETATM    1  N   LIG     1       0.951  -0.411   0.107  1.00  0.00    -0.357 N 
ATOM      2  HN  LIG     1       1.715  -1.064   0.281  1.00  0.00     0.166 HD
HETATM    3  C   LIG     1      -0.384  -0.768  -0.036  1.00  0.00     0.026 A 
HETATM    4  C   LIG     1       1.088   0.892  -0.015  1.00  0.00     0.047 A 
HETATM    5  S   LIG     1      -0.366   1.769  -0.271  1.00  0.00    -0.087 SA
HETATM    6  C   LIG     1      -1.243   0.299  -0.232  1.00  0.00     0.077 A 
HETATM    7  C   LIG     1       2.386   1.615   0.063  1.00  0.00     0.076 C 
ENDROOT
BRANCH   3   8
HETATM    8  C   LIG     1      -0.753  -2.211   0.072  1.00  0.00     0.170 C 
BRANCH   8   9
HETATM    9  C   LIG     1      -1.401  -2.744  -1.181  1.00  0.00     0.178 C 
HETATM   10  O   LIG     1      -1.713  -2.140  -2.192  1.00  0.00    -0.648 OA
HETATM   11  O   LIG     1      -1.677  -4.064  -1.084  1.00  0.00    -0.648 OA
ENDBRANCH   8   9
ENDBRANCH   3   8
TORSDOF 2
