REMARK  3 active torsions:
REMARK  status: ('A' for Active; 'I' for Inactive)
REMARK    1  A    between atoms: C_3  and  C_9 
REMARK    2  A    between atoms: C_9  and  O_11 
REMARK    3  A    between atoms: O_11  and  C_12 
ROOT
HETATM    1  N   LIG     1      -7.851   2.646  -1.924  1.00  0.00    -0.191 NA
HETATM    2  C   LIG     1      -6.800   2.599  -1.441  1.00  0.00     0.099 C 
HETATM    3  C   LIG     1      -5.480   2.540  -0.876  1.00  0.00     0.044 A 
HETATM    4  C   LIG     1      -2.883   2.387   0.186  1.00  0.00     0.069 A 
HETATM    5  C   LIG     1      -5.295   2.396   0.502  1.00  0.00     0.025 A 
HETATM    6  C   LIG     1      -4.366   2.624  -1.715  1.00  0.00     0.025 A 
HETATM    7  C   LIG     1      -3.999   2.318   1.026  1.00  0.00     0.038 A 
HETATM    8  C   LIG     1      -3.074   2.559  -1.186  1.00  0.00     0.038 A 
ENDROOT
BRANCH   4   9
HETATM    9  O   LIG     1      -1.674   2.266   0.815  1.00  0.00    -0.345 OA
BRANCH   9  10
HETATM   10  C   LIG     1      -0.505   2.351  -0.010  1.00  0.00     0.233 C 
BRANCH  10  11
HETATM   11  C   LIG     1       0.754   2.181   0.784  1.00  0.00     0.041 A 
HETATM   12  N   LIG     1       1.857   1.617   0.154  1.00  0.00    -0.355 N 
HETATM   13  C   LIG     1       2.865   1.527   0.995  1.00  0.00     0.047 A 
ATOM     14  HN  LIG     1       1.882   1.316  -0.820  1.00  0.00     0.166 HD
HETATM   15  S   LIG     1       2.565   2.135   2.573  1.00  0.00    -0.087 SA
HETATM   16  C   LIG     1       4.195   0.964   0.640  1.00  0.00     0.076 C 
HETATM   17  C   LIG     1       0.968   2.540   2.101  1.00  0.00     0.078 A 
ENDBRANCH  10  11
ENDBRANCH   9  10
ENDBRANCH   4   9
TORSDOF 3
