REMARK  1 active torsions:
REMARK  status: ('A' for Active; 'I' for Inactive)
REMARK    1  A    between atoms: N_5  and  C_11 
ROOT
HETATM    1  C   LIG     1       0.033  -2.335   2.191  1.00  0.00    -0.087 C 
HETATM    2  C   LIG     1       0.680  -3.254   2.582  1.00  0.00     0.013 C 
HETATM    3  C   LIG     1      -0.752  -1.220   1.717  1.00  0.00     0.364 C 
ENDROOT
BRANCH   3   4
HETATM    4  N   LIG     1      -0.826  -1.166   0.248  1.00  0.00     0.101 N 
HETATM    5  C   LIG     1      -1.786  -0.161  -0.235  1.00  0.00     0.288 C 
HETATM    6  C   LIG     1      -1.375   1.286  -0.020  1.00  0.00     0.170 C 
HETATM    7  S   LIG     1       0.185   1.617  -0.797  1.00  0.00     0.147 S 
HETATM    8  C   LIG     1       1.194   0.271  -0.237  1.00  0.00     0.170 C 
HETATM    9  O   LIG     1       0.714   2.837  -0.218  1.00  0.00    -0.228 OA
HETATM   10  O   LIG     1       0.015   1.499  -2.233  1.00  0.00    -0.228 OA
HETATM   11  C   LIG     1       0.471  -1.048  -0.440  1.00  0.00     0.288 C 
ENDBRANCH   3   4
TORSDOF 1
