REMARK  2 active torsions:
REMARK  status: ('A' for Active; 'I' for Inactive)
REMARK    1  A    between atoms: C_3  and  O_10 
REMARK    2  A    between atoms: C_8  and  O_11 
ROOT
HETATM    1  C   LIG     1      -0.417  -1.332  -0.100  1.00  0.00     0.080 A 
HETATM    2  C   LIG     1      -0.689   1.066  -0.016  1.00  0.00     0.065 A 
HETATM    3  C   LIG     1      -1.259  -0.208  -0.091  1.00  0.00     0.090 A 
HETATM    4  N   LIG     1      -1.332  -3.758  -0.218  1.00  0.00    -0.191 NA
HETATM    5  C   LIG     1      -0.953  -2.664  -0.165  1.00  0.00     0.102 C 
HETATM    6  C   LIG     1       0.702   1.215   0.050  1.00  0.00     0.070 A 
HETATM    7  C   LIG     1       0.978  -1.176  -0.033  1.00  0.00     0.064 A 
HETATM    8  C   LIG     1       1.547   0.098   0.031  1.00  0.00     0.091 A 
HETATM    9 CL   LIG     1       1.338   2.821   0.135  1.00  0.00    -0.081 Cl
ENDROOT
BRANCH   3  10
HETATM   10  O   LIG     1      -2.605  -0.453  -0.157  1.00  0.00    -0.354 OA
HETATM   11  C   LIG     1      -3.486   0.663  -0.104  1.00  0.00     0.210 C 
ENDBRANCH   3  10
BRANCH   8  12
HETATM   12  O   LIG     1       2.894   0.319   0.140  1.00  0.00    -0.354 OA
HETATM   13  C   LIG     1       3.742  -0.627  -0.502  1.00  0.00     0.210 C 
ENDBRANCH   8  12
TORSDOF 2
