REMARK  0 active torsions:
REMARK  status: ('A' for Active; 'I' for Inactive)
ROOT
HETATM    1  C   LIG     1      -1.421   0.704  -0.152  1.00  0.00     0.167 C 
HETATM    2  N   LIG     1      -0.303   1.455  -0.107  1.00  0.00    -0.367 N 
ATOM      3  HN  LIG     1      -0.347   2.359  -0.577  1.00  0.00     0.161 HD
HETATM    4  N   LIG     1      -1.390  -0.606   0.159  1.00  0.00    -0.367 N 
ATOM      5  HN  LIG     1      -2.296  -1.074   0.162  1.00  0.00     0.161 HD
HETATM    6  S   LIG     1      -2.857   1.400  -0.625  1.00  0.00    -0.041 SA
HETATM    7  C   LIG     1       0.951   1.126   0.531  1.00  0.00     0.122 C 
HETATM    8  C   LIG     1      -0.257  -1.450   0.490  1.00  0.00     0.122 C 
HETATM    9  C   LIG     1       1.720   0.022  -0.180  1.00  0.00     0.021 C 
HETATM   10  C   LIG     1       0.919  -1.251  -0.456  1.00  0.00     0.021 C 
ENDROOT
TORSDOF 0
