REMARK  1 active torsions:
REMARK  status: ('A' for Active; 'I' for Inactive)
REMARK    1  A    between atoms: C_1  and  C_6 
ROOT
HETATM    1  C   LIG     1      -2.308  -0.080   0.019  1.00  0.00     0.118 A 
HETATM    2  N   LIG     1      -1.558  -1.166   0.116  1.00  0.00    -0.340 N 
ATOM      3  HN  LIG     1      -1.881  -2.131   0.192  1.00  0.00     0.167 HD
HETATM    4  N   LIG     1      -1.509   1.038  -0.050  1.00  0.00    -0.340 N 
ATOM      5  HN  LIG     1      -1.842   1.999  -0.120  1.00  0.00     0.167 HD
HETATM    6  C   LIG     1      -0.255  -0.728   0.093  1.00  0.00     0.060 A 
HETATM    7  C   LIG     1      -0.196   0.655  -0.010  1.00  0.00     0.060 A 
HETATM    8  C   LIG     1       0.939  -1.461   0.157  1.00  0.00     0.032 A 
HETATM    9  C   LIG     1       1.000   1.374  -0.053  1.00  0.00     0.032 A 
HETATM   10  C   LIG     1       2.182   0.626   0.012  1.00  0.00     0.002 A 
HETATM   11  C   LIG     1       2.155  -0.767   0.115  1.00  0.00     0.002 A 
ENDROOT
BRANCH   1  12
HETATM   12  C   LIG     1      -3.776  -0.019   0.017  1.00  0.00     0.032 A 
HETATM   13  C   LIG     1      -4.496   1.150  -0.323  1.00  0.00     0.060 A 
HETATM   14  N   LIG     1      -3.848   2.286  -0.887  1.00  0.00    -0.101 NA
HETATM   15  C   LIG     1      -5.900   1.113  -0.334  1.00  0.00     0.027 A 
HETATM   16  C   LIG     1      -6.589  -0.035   0.058  1.00  0.00     0.002 A 
HETATM   17  C   LIG     1      -5.885  -1.175   0.428  1.00  0.00     0.001 A 
HETATM   18  C   LIG     1      -4.490  -1.168   0.400  1.00  0.00     0.017 A 
ENDBRANCH   1  12
TORSDOF 1
