REMARK  0 active torsions:
REMARK  status: ('A' for Active; 'I' for Inactive)
ROOT
HETATM    1  N   LIG     1       0.958  -0.697   0.001  1.00  0.00    -0.284 N 
ATOM      2  HN  LIG     1       1.796  -1.279   0.006  1.00  0.00     0.188 HD
HETATM    3  C   LIG     1      -1.204   0.000  -0.003  1.00  0.00     0.068 A 
HETATM    4  C   LIG     1      -0.313  -1.090  -0.010  1.00  0.00     0.114 A 
HETATM    5  N   LIG     1       0.881   0.645   0.004  1.00  0.00    -0.306 N 
HETATM    6  C   LIG     1      -0.399   1.116   0.004  1.00  0.00     0.113 A 
HETATM    7  N   LIG     1      -0.692  -2.366  -0.029  1.00  0.00    -0.384 N 
ATOM      8  HN1 LIG     1      -1.666  -2.667  -0.037  1.00  0.00     0.157 HD
ATOM      9  HN2 LIG     1      -0.046  -3.156  -0.034  1.00  0.00     0.157 HD
HETATM   10  C   LIG     1       2.085   1.439   0.005  1.00  0.00     0.177 C 
ENDROOT
TORSDOF 0
