REMARK  4 active torsions:
REMARK  status: ('A' for Active; 'I' for Inactive)
REMARK    1  A    between atoms: C_1  and  C_5 
REMARK    2  A    between atoms: C_2  and  N_8 
REMARK    3  A    between atoms: C_5  and  O_11 
REMARK    4  A    between atoms: O_11  and  C_13 
ROOT
HETATM    1  C   LIG     1       0.670   0.458  -0.067  1.00  0.00     0.079 A 
HETATM    2  C   LIG     1       0.715  -0.931  -0.027  1.00  0.00     0.084 A 
HETATM    3  S   LIG     1      -0.836  -1.634   0.081  1.00  0.00    -0.083 SA
HETATM    4  C   LIG     1      -0.707   0.936   0.003  1.00  0.00    -0.036 A 
HETATM    5  C   LIG     1      -1.599  -0.116   0.072  1.00  0.00     0.059 A 
HETATM    6  C   LIG     1      -1.142   2.367   0.004  1.00  0.00     0.050 C 
ENDROOT
BRANCH   1   7
HETATM    7  C   LIG     1       1.894   1.266  -0.166  1.00  0.00     0.296 C 
HETATM    8  O   LIG     1       3.027   0.792  -0.132  1.00  0.00    -0.259 OA
BRANCH   7   9
HETATM    9  O   LIG     1       1.646   2.602  -0.295  1.00  0.00    -0.318 OA
BRANCH   9  10
HETATM   10  C   LIG     1       2.795   3.448  -0.427  1.00  0.00     0.174 C 
HETATM   11  C   LIG     1       3.407   3.728   0.933  1.00  0.00     0.034 C 
ENDBRANCH   9  10
ENDBRANCH   7   9
ENDBRANCH   1   7
BRANCH   2  12
HETATM   12  N   LIG     1       1.805  -1.727  -0.068  1.00  0.00    -0.393 N 
ATOM     13  HN2 LIG     1       2.732  -1.307  -0.133  1.00  0.00     0.156 HD
ATOM     14  HN1 LIG     1       1.838  -2.746  -0.039  1.00  0.00     0.156 HD
ENDBRANCH   2  12
TORSDOF 4
