REMARK  2 active torsions:
REMARK  status: ('A' for Active; 'I' for Inactive)
REMARK    1  A    between atoms: C_1  and  C_5 
REMARK    2  A    between atoms: C_5  and  O_9 
ROOT
HETATM    1  C   LIG     1       0.764  -0.375   0.049  1.00  0.00     0.102 A 
HETATM    2  C   LIG     1       0.637   1.001  -0.020  1.00  0.00     0.063 A 
HETATM    3  S   LIG     1      -0.773  -1.138   0.022  1.00  0.00    -0.094 SA
HETATM    4  C   LIG     1      -0.732   1.434  -0.108  1.00  0.00    -0.032 A 
HETATM    5  C   LIG     1      -1.591   0.352  -0.106  1.00  0.00     0.059 A 
HETATM    6 CL   LIG     1       1.928   2.139   0.032  1.00  0.00    -0.082 Cl
HETATM    7  C   LIG     1      -1.176   2.859  -0.185  1.00  0.00     0.050 C 
ENDROOT
BRANCH   1   8
HETATM    8  C   LIG     1       1.941  -1.215   0.139  1.00  0.00     0.301 C 
HETATM    9  O   LIG     1       1.995  -2.334   0.636  1.00  0.00    -0.259 OA
BRANCH   8  10
HETATM   10  O   LIG     1       3.002  -0.599  -0.457  1.00  0.00    -0.322 OA
HETATM   11  C   LIG     1       4.212  -1.354  -0.453  1.00  0.00     0.213 C 
ENDBRANCH   8  10
ENDBRANCH   1   8
TORSDOF 2
