REMARK  3 active torsions:
REMARK  status: ('A' for Active; 'I' for Inactive)
REMARK    1  A    between atoms: C_1  and  C_3 
REMARK    2  A    between atoms: C_2  and  N_8 
REMARK    3  A    between atoms: C_3  and  O_11 
ROOT
HETATM    1  C   LIG     1      -0.146  -0.961  -0.017  1.00  0.00     0.073 A 
HETATM    2  C   LIG     1       1.159  -0.489  -0.001  1.00  0.00     0.084 A 
HETATM    3  S   LIG     1       1.227   1.223  -0.000  1.00  0.00    -0.084 SA
HETATM    4  C   LIG     1      -1.083   0.134  -0.048  1.00  0.00     0.028 A 
HETATM    5  C   LIG     1      -0.470   1.365  -0.039  1.00  0.00     0.053 A 
ENDROOT
BRANCH   1   6
HETATM    6  C   LIG     1      -0.500  -2.381  -0.003  1.00  0.00     0.295 C 
HETATM    7  O   LIG     1       0.314  -3.293   0.102  1.00  0.00    -0.259 OA
BRANCH   6   8
HETATM    8  O   LIG     1      -1.850  -2.573  -0.109  1.00  0.00    -0.322 OA
HETATM    9  C   LIG     1      -2.253  -3.942  -0.100  1.00  0.00     0.213 C 
ENDBRANCH   6   8
ENDBRANCH   1   6
BRANCH   2  10
HETATM   10  N   LIG     1       2.303  -1.203   0.009  1.00  0.00    -0.393 N 
ATOM     11  HN2 LIG     1       2.263  -2.222   0.008  1.00  0.00     0.156 HD
ATOM     12  HN1 LIG     1       3.262  -0.856   0.021  1.00  0.00     0.156 HD
ENDBRANCH   2  10
TORSDOF 3
