REMARK  0 active torsions:
REMARK  status: ('A' for Active; 'I' for Inactive)
ROOT
HETATM    1  C   LIG     1      -0.411  -1.139   0.000  1.00  0.00     0.116 A 
HETATM    2  N   LIG     1       0.887  -0.683  -0.002  1.00  0.00    -0.282 N 
HETATM    3  N   LIG     1       0.977   0.667  -0.001  1.00  0.00    -0.308 N 
ATOM      4  HN  LIG     1       1.819   1.243  -0.001  1.00  0.00     0.186 HD
HETATM    5  C   LIG     1      -1.199  -0.012   0.000  1.00  0.00     0.068 A 
HETATM    6  C   LIG     1      -0.296   1.066  -0.000  1.00  0.00     0.111 A 
HETATM    7  N   LIG     1      -0.769  -2.437   0.001  1.00  0.00    -0.384 N 
ATOM      8  HN1 LIG     1      -1.731  -2.775   0.002  1.00  0.00     0.157 HD
ATOM      9  HN2 LIG     1      -0.185  -3.273   0.001  1.00  0.00     0.157 HD
HETATM   10  C   LIG     1       2.111  -1.445  -0.009  1.00  0.00     0.179 C 
ENDROOT
TORSDOF 0
