REMARK  3 active torsions:
REMARK  status: ('A' for Active; 'I' for Inactive)
REMARK    1  A    between atoms: C_1  and  C_2 
REMARK    2  A    between atoms: C_8  and  O_14 
REMARK    3  A    between atoms: O_14  and  C_15 
ROOT
HETATM    1  N   LIG     1      -1.092  -3.542  -7.448  1.00  0.00    -0.195 NA
HETATM    2  C   LIG     1      -0.874  -2.866  -6.530  1.00  0.00     0.085 C 
HETATM    3  C   LIG     1      -0.599  -1.993  -5.376  1.00  0.00     0.300 C 
ENDROOT
BRANCH   3   4
HETATM    4  O   LIG     1      -0.119  -2.783  -4.283  1.00  0.00    -0.322 OA
BRANCH   4   5
HETATM    5  C   LIG     1       0.162  -2.031  -3.165  1.00  0.00     0.142 A 
HETATM    6  N   LIG     1      -0.007  -0.693  -3.200  1.00  0.00    -0.346 N 
HETATM    7  C   LIG     1       0.289  -0.009  -2.070  1.00  0.00     0.106 A 
ATOM      8  HN  LIG     1      -0.342  -0.219  -4.039  1.00  0.00     0.167 HD
HETATM    9  C   LIG     1       0.739  -0.601  -0.898  1.00  0.00     0.063 A 
HETATM   10  C   LIG     1       0.910  -1.989  -0.901  1.00  0.00     0.022 A 
HETATM   11  C   LIG     1       0.619  -2.718  -2.052  1.00  0.00     0.057 A 
BRANCH   9  12
HETATM   12  C   LIG     1       1.017   0.221   0.323  1.00  0.00     0.418 C 
HETATM   13  F   LIG     1       0.788   1.551   0.149  1.00  0.00    -0.166 F 
HETATM   14  F   LIG     1       2.308   0.116   0.741  1.00  0.00    -0.166 F 
HETATM   15  F   LIG     1       0.250  -0.154   1.383  1.00  0.00    -0.166 F 
ENDBRANCH   9  12
ENDBRANCH   4   5
ENDBRANCH   3   4
TORSDOF 3
