REMARK  3 active torsions:
REMARK  status: ('A' for Active; 'I' for Inactive)
REMARK    1  A    between atoms: C_1  and  C_2 
REMARK    2  A    between atoms: C_2  and  C_4 
REMARK    3  A    between atoms: C_2  and  O_6 
ROOT
HETATM    1  C   LIG     1      -0.789   1.230  -1.758  1.00  0.00    -0.019 A 
HETATM    2  C   LIG     1      -1.066  -0.082  -2.180  1.00  0.00     0.010 A 
HETATM    3  C   LIG     1      -1.197   2.294  -2.576  1.00  0.00     0.010 A 
HETATM    4  C   LIG     1      -1.890   2.054  -3.765  1.00  0.00     0.001 A 
HETATM    5  C   LIG     1      -1.756  -0.320  -3.371  1.00  0.00     0.001 A 
HETATM    6  C   LIG     1      -2.170   0.749  -4.161  1.00  0.00     0.000 A 
ENDROOT
BRANCH   1   7
HETATM    7  C   LIG     1      -0.005   1.445  -0.482  1.00  0.00     0.252 C 
BRANCH   7   8
HETATM    8  C   LIG     1      -0.311   2.746   0.282  1.00  0.00     0.207 C 
HETATM    9  O   LIG     1      -1.407   3.256   0.441  1.00  0.00    -0.646 OA
HETATM   10  O   LIG     1       0.827   3.276   0.816  1.00  0.00    -0.646 OA
ENDBRANCH   7   8
BRANCH   7  11
HETATM   11  O   LIG     1       1.406   1.444  -0.780  1.00  0.00    -0.380 OA
ATOM     12  HO  LIG     1       1.595   0.641  -1.251  1.00  0.00     0.211 HD
ENDBRANCH   7  11
ENDBRANCH   1   7
TORSDOF 3
