REMARK  0 active torsions:
REMARK  status: ('A' for Active; 'I' for Inactive)
ROOT
HETATM    1  C   LIG     1      -1.824   0.726  -0.061  1.00  0.00     0.164 A 
HETATM    2  C   LIG     1      -0.376   0.562  -0.028  1.00  0.00     0.016 A 
HETATM    3  C   LIG     1      -0.086  -0.797   0.004  1.00  0.00    -0.043 A 
HETATM    4  C   LIG     1      -2.485  -0.639   0.021  1.00  0.00     0.061 A 
HETATM    5  C   LIG     1      -1.315  -1.648   0.001  1.00  0.00     0.051 A 
HETATM    6  O   LIG     1      -2.387   1.805  -0.135  1.00  0.00    -0.292 OA
HETATM    7  C   LIG     1       0.605   1.537  -0.032  1.00  0.00     0.015 A 
HETATM    8  C   LIG     1       1.233  -1.222   0.023  1.00  0.00     0.008 A 
HETATM    9  C   LIG     1      -3.455  -0.861  -1.128  1.00  0.00     0.018 C 
HETATM   10  C   LIG     1       1.935   1.114  -0.007  1.00  0.00     0.001 A 
HETATM   11  C   LIG     1       2.246  -0.256   0.017  1.00  0.00     0.001 A 
ENDROOT
TORSDOF 0
