REMARK  2 active torsions:
REMARK  status: ('A' for Active; 'I' for Inactive)
REMARK    1  A    between atoms: C_1  and  C_6 
REMARK    2  A    between atoms: C_2  and  O_9 
ROOT
HETATM    1  C   LIG     1      -0.831  -0.872   0.013  1.00  0.00     0.082 A 
HETATM    2  C   LIG     1       0.457  -0.214  -0.038  1.00  0.00     0.114 A 
HETATM    3  C   LIG     1      -1.859   0.059   0.057  1.00  0.00     0.072 A 
HETATM    4  C   LIG     1       0.319   1.159  -0.032  1.00  0.00     0.108 A 
HETATM    5  S   LIG     1      -1.301   1.667   0.063  1.00  0.00    -0.086 SA
HETATM    6 CL   LIG     1       1.497   2.409  -0.148  1.00  0.00    -0.073 Cl
ENDROOT
BRANCH   1   7
HETATM    7  C   LIG     1      -1.071  -2.307   0.020  1.00  0.00     0.212 C 
HETATM    8  O   LIG     1      -0.219  -3.183   0.039  1.00  0.00    -0.644 OA
HETATM    9  O   LIG     1      -2.378  -2.654   0.030  1.00  0.00    -0.644 OA
ENDBRANCH   1   7
BRANCH   2  10
HETATM   10  O   LIG     1       1.605  -0.928  -0.195  1.00  0.00    -0.353 OA
HETATM   11  C   LIG     1       2.743  -0.452   0.508  1.00  0.00     0.210 C 
ENDBRANCH   2  10
TORSDOF 2
