REMARK  3 active torsions:
REMARK  status: ('A' for Active; 'I' for Inactive)
REMARK    1  A    between atoms: S_1  and  C_2 
REMARK    2  A    between atoms: S_1  and  C_8 
REMARK    3  A    between atoms: C_3  and  N_10 
ROOT
HETATM    1  S   LIG     1       1.323  -0.433  -0.452  1.00  0.00     0.209 S 
HETATM    2  O   LIG     1       1.333  -1.433   0.602  1.00  0.00    -0.217 OA
HETATM    3  O   LIG     1       0.951   0.945  -0.198  1.00  0.00    -0.217 OA
ENDROOT
BRANCH   1   4
HETATM    4  C   LIG     1       0.185  -1.005  -1.625  1.00  0.00     0.097 A 
HETATM    5  C   LIG     1      -0.108  -2.373  -1.892  1.00  0.00     0.054 A 
HETATM    6  C   LIG     1      -0.995  -2.518  -2.933  1.00  0.00     0.080 A 
HETATM    7  S   LIG     1      -1.503  -1.010  -3.566  1.00  0.00    -0.110 SA
HETATM    8  C   LIG     1      -0.520  -0.156  -2.457  1.00  0.00     0.075 A 
BRANCH   5   9
HETATM    9  N   LIG     1       0.402  -3.434  -1.226  1.00  0.00    -0.397 N 
ATOM     10  HN2 LIG     1       1.060  -3.326  -0.454  1.00  0.00     0.156 HD
ATOM     11  HN1 LIG     1       0.192  -4.414  -1.417  1.00  0.00     0.156 HD
ENDBRANCH   5   9
ENDBRANCH   1   4
BRANCH   1  12
HETATM   12  C   LIG     1       2.880  -0.462  -1.295  1.00  0.00     0.064 A 
HETATM   13  C   LIG     1       3.322   0.680  -1.970  1.00  0.00     0.024 A 
HETATM   14  C   LIG     1       4.550   0.654  -2.630  1.00  0.00     0.002 A 
HETATM   15  C   LIG     1       5.334  -0.501  -2.604  1.00  0.00     0.000 A 
HETATM   16  C   LIG     1       4.896  -1.633  -1.913  1.00  0.00     0.002 A 
HETATM   17  C   LIG     1       3.669  -1.615  -1.251  1.00  0.00     0.024 A 
ENDBRANCH   1  12
TORSDOF 3
