REMARK  3 active torsions:
REMARK  status: ('A' for Active; 'I' for Inactive)
REMARK    1  A    between atoms: S_1  and  C_2 
REMARK    2  A    between atoms: S_1  and  C_3 
REMARK    3  A    between atoms: C_2  and  C_6 
ROOT
HETATM    1  C   LIG     1      -0.058  -0.480   2.308  1.00  0.00     0.059 A 
HETATM    2  C   LIG     1      -1.430  -0.300   2.516  1.00  0.00     0.025 A 
HETATM    3  C   LIG     1       0.747  -1.050   3.297  1.00  0.00     0.025 A 
HETATM    4  C   LIG     1      -1.195  -1.274   4.715  1.00  0.00     0.034 A 
HETATM    5  C   LIG     1       0.174  -1.448   4.506  1.00  0.00     0.025 A 
HETATM    6  C   LIG     1      -1.999  -0.710   3.724  1.00  0.00     0.025 A 
HETATM    7 CL   LIG     1      -1.891  -1.733   6.220  1.00  0.00    -0.084 Cl
ENDROOT
BRANCH   1   8
HETATM    8  S   LIG     1       0.696   0.130   0.817  1.00  0.00     0.182 S 
HETATM    9  O   LIG     1      -0.138   1.204   0.313  1.00  0.00    -0.222 OA
HETATM   10  O   LIG     1       2.093   0.390   1.128  1.00  0.00    -0.222 OA
BRANCH   8  11
HETATM   11  C   LIG     1       0.657  -1.200  -0.329  1.00  0.00     0.223 C 
BRANCH  11  12
HETATM   12  C   LIG     1      -0.749  -1.587  -0.655  1.00  0.00     0.137 C 
HETATM   13  O   LIG     1      -1.330  -2.463  -0.013  1.00  0.00    -0.297 OA
HETATM   14  C   LIG     1      -1.419  -0.899  -1.816  1.00  0.00     0.091 C 
ENDBRANCH  11  12
ENDBRANCH   8  11
ENDBRANCH   1   8
TORSDOF 3
