REMARK  2 active torsions:
REMARK  status: ('A' for Active; 'I' for Inactive)
REMARK    1  A    between atoms: C_4  and  N_8 
REMARK    2  A    between atoms: C_6  and  C_7 
ROOT
HETATM    1  N   LIG     1       0.898  -0.663   0.204  1.00  0.00    -0.296 N 
ATOM      2  HN  LIG     1       1.705  -1.255   0.400  1.00  0.00     0.187 HD
HETATM    3  C   LIG     1      -1.202   0.086  -0.230  1.00  0.00     0.081 A 
HETATM    4  C   LIG     1      -0.382   1.183  -0.141  1.00  0.00     0.117 A 
HETATM    5  N   LIG     1       0.870   0.679   0.102  1.00  0.00    -0.281 N 
HETATM    6  C   LIG     1      -0.372  -1.051  -0.010  1.00  0.00     0.062 A 
HETATM    7  C   LIG     1       2.096   1.422   0.253  1.00  0.00     0.179 C 
ENDROOT
BRANCH   6   8
HETATM    8  C   LIG     1      -0.756  -2.469   0.006  1.00  0.00    -0.008 A 
HETATM    9  C   LIG     1       0.168  -3.451   0.399  1.00  0.00     0.014 A 
HETATM   10  C   LIG     1      -0.184  -4.803   0.420  1.00  0.00     0.001 A 
HETATM   11  C   LIG     1      -1.467  -5.195   0.047  1.00  0.00     0.000 A 
HETATM   12  C   LIG     1      -2.397  -4.235  -0.348  1.00  0.00     0.001 A 
HETATM   13  C   LIG     1      -2.044  -2.881  -0.369  1.00  0.00     0.014 A 
ENDBRANCH   6   8
BRANCH   4  14
HETATM   14  N   LIG     1      -0.661   2.496  -0.261  1.00  0.00    -0.384 N 
ATOM     15  HN2 LIG     1      -1.592   2.871  -0.442  1.00  0.00     0.157 HD
ATOM     16  HN1 LIG     1      -0.052   3.311  -0.195  1.00  0.00     0.157 HD
ENDBRANCH   4  14
TORSDOF 2
