REMARK  4 active torsions:
REMARK  status: ('A' for Active; 'I' for Inactive)
REMARK    1  A    between atoms: C_1  and  S_5 
REMARK    2  A    between atoms: C_2  and  C_4 
REMARK    3  A    between atoms: S_5  and  C_13 
REMARK    4  A    between atoms: C_12  and  C_13 
ROOT
HETATM    1  C   LIG     1      -3.680   0.184   2.860  1.00  0.00     0.041 A 
HETATM    2  C   LIG     1      -3.259  -0.415   1.664  1.00  0.00     0.026 A 
HETATM    3  C   LIG     1      -3.676  -1.714   1.329  1.00  0.00    -0.048 A 
HETATM    4  C   LIG     1      -4.522  -0.520   3.728  1.00  0.00     0.018 A 
HETATM    5  C   LIG     1      -4.945  -1.808   3.400  1.00  0.00     0.002 A 
HETATM    6  C   LIG     1      -4.525  -2.401   2.208  1.00  0.00     0.008 A 
ENDROOT
BRANCH   3   7
HETATM    7  C   LIG     1      -3.186  -2.375   0.064  1.00  0.00     0.118 C 
BRANCH   7   8
HETATM    8  S   LIG     1      -1.661  -3.325   0.359  1.00  0.00    -0.118 SA
BRANCH   8   9
HETATM    9  C   LIG     1      -1.364  -3.957  -1.253  1.00  0.00     0.041 A 
HETATM   10  S   LIG     1      -1.070  -2.948  -2.603  1.00  0.00    -0.095 SA
HETATM   11  C   LIG     1      -0.928  -4.287  -3.655  1.00  0.00     0.051 A 
HETATM   12  C   LIG     1      -1.066  -5.484  -2.987  1.00  0.00     0.009 A 
HETATM   13  C   LIG     1      -1.307  -5.292  -1.593  1.00  0.00     0.026 A 
ENDBRANCH   8   9
ENDBRANCH   7   8
ENDBRANCH   3   7
BRANCH   1  14
HETATM   14  C   LIG     1      -3.210   1.558   3.168  1.00  0.00     0.209 C 
HETATM   15  O   LIG     1      -2.488   2.239   2.467  1.00  0.00    -0.644 OA
HETATM   16  O   LIG     1      -3.676   2.017   4.345  1.00  0.00    -0.644 OA
ENDBRANCH   1  14
TORSDOF 4
