REMARK  2 active torsions:
REMARK  status: ('A' for Active; 'I' for Inactive)
REMARK    1  A    between atoms: C_2  and  S_3 
REMARK    2  A    between atoms: C_4  and  C_11 
ROOT
HETATM    1  C   LIG     1       1.004   0.637   0.022  1.00  0.00     0.084 A 
HETATM    2  C   LIG     1       1.025  -0.748   0.006  1.00  0.00     0.120 A 
HETATM    3  C   LIG     1      -0.338   1.171   0.008  1.00  0.00     0.003 A 
HETATM    4  S   LIG     1      -0.549  -1.401  -0.016  1.00  0.00    -0.088 SA
HETATM    5  C   LIG     1      -1.264   0.142  -0.027  1.00  0.00     0.065 A 
HETATM    6  C   LIG     1       2.213   1.407   0.055  1.00  0.00     0.102 C 
HETATM    7  N   LIG     1       3.172   2.064   0.059  1.00  0.00    -0.191 NA
ENDROOT
BRANCH   2   8
HETATM    8  S   LIG     1       2.385  -1.894   0.005  1.00  0.00     0.179 S 
HETATM    9  O   LIG     1       3.063  -1.635  -1.248  1.00  0.00    -0.222 OA
HETATM   10  O   LIG     1       3.027  -1.683   1.286  1.00  0.00    -0.222 OA
HETATM   11  C   LIG     1       1.723  -3.539  -0.037  1.00  0.00     0.167 C 
ENDBRANCH   2   8
BRANCH   3  12
HETATM   12  C   LIG     1      -0.793   2.568   0.009  1.00  0.00    -0.024 A 
HETATM   13  C   LIG     1      -1.952   2.937   0.713  1.00  0.00     0.012 A 
HETATM   14  C   LIG     1      -2.418   4.254   0.690  1.00  0.00     0.001 A 
HETATM   15  C   LIG     1      -1.721   5.226  -0.020  1.00  0.00     0.000 A 
HETATM   16  C   LIG     1      -0.564   4.879  -0.713  1.00  0.00     0.001 A 
HETATM   17  C   LIG     1      -0.106   3.557  -0.707  1.00  0.00     0.012 A 
ENDBRANCH   3  12
TORSDOF 2
