REMARK  1 active torsions:
REMARK  status: ('A' for Active; 'I' for Inactive)
REMARK    1  A    between atoms: C_3  and  S_13 
ROOT
HETATM    1  C   LIG     1       0.087  -0.760  -0.060  1.00  0.00     0.042 A 
HETATM    2  C   LIG     1       0.382   0.657  -0.043  1.00  0.00    -0.014 A 
HETATM    3  C   LIG     1       1.240  -1.517   0.066  1.00  0.00     0.056 A 
HETATM    4  C   LIG     1       1.738   0.906   0.060  1.00  0.00     0.093 A 
HETATM    5  S   LIG     1       2.639  -0.535   0.170  1.00  0.00    -0.071 SA
HETATM    6  C   LIG     1      -1.290  -1.255  -0.177  1.00  0.00     0.162 C 
HETATM    7  C   LIG     1       2.352   2.198   0.079  1.00  0.00     0.107 C 
HETATM    8  N   LIG     1       2.821   3.259   0.087  1.00  0.00    -0.191 NA
HETATM    9  C   LIG     1      -0.708   1.691  -0.142  1.00  0.00     0.050 C 
HETATM   10  C   LIG     1      -2.077   1.150   0.342  1.00  0.00    -0.037 C 
HETATM   11  C   LIG     1      -2.387  -0.207  -0.330  1.00  0.00     0.093 C 
HETATM   12  O   LIG     1      -1.578  -2.448  -0.244  1.00  0.00    -0.292 OA
HETATM   13  C   LIG     1      -3.172   2.159  -0.053  1.00  0.00     0.015 C 
HETATM   14  C   LIG     1      -2.096   1.006   1.878  1.00  0.00     0.015 C 
ENDROOT
BRANCH   3  15
HETATM   15  S   LIG     1       1.418  -3.266   0.163  1.00  0.00    -0.126 SA
HETATM   16  C   LIG     1       1.260  -3.700  -1.585  1.00  0.00     0.096 C 
ENDBRANCH   3  15
TORSDOF 1
