REMARK  6 active torsions:
REMARK  status: ('A' for Active; 'I' for Inactive)
REMARK    1  A    between atoms: C_2  and  S_8 
REMARK    2  A    between atoms: C_4  and  C_6 
REMARK    3  A    between atoms: C_6  and  O_12 
REMARK    4  A    between atoms: S_8  and  C_15 
REMARK    5  A    between atoms: O_12  and  C_16 
REMARK    6  A    between atoms: C_15  and  C_17 
ROOT
HETATM    1  C   LIG     1      -0.919   0.427   0.105  1.00  0.00     0.041 A 
HETATM    2  C   LIG     1       0.350   0.951   0.282  1.00  0.00     0.056 A 
HETATM    3  C   LIG     1      -0.891  -1.018  -0.013  1.00  0.00    -0.019 A 
HETATM    4  C   LIG     1       0.399  -1.520   0.047  1.00  0.00     0.088 A 
HETATM    5  S   LIG     1       1.545  -0.271   0.273  1.00  0.00    -0.076 SA
HETATM    6  C   LIG     1      -2.182   1.166   0.049  1.00  0.00     0.162 C 
HETATM    7  O   LIG     1      -2.256   2.388  -0.076  1.00  0.00    -0.292 OA
HETATM    8  C   LIG     1      -2.152  -1.826  -0.183  1.00  0.00     0.042 C 
HETATM    9  C   LIG     1      -3.441   0.323   0.181  1.00  0.00     0.084 C 
HETATM   10  C   LIG     1      -3.325  -0.955  -0.648  1.00  0.00     0.012 C 
ENDROOT
BRANCH   4  11
HETATM   11  C   LIG     1       0.819  -2.906  -0.012  1.00  0.00     0.300 C 
HETATM   12  O   LIG     1       0.155  -3.858   0.381  1.00  0.00    -0.259 OA
BRANCH  11  13
HETATM   13  O   LIG     1       2.030  -3.013  -0.635  1.00  0.00    -0.317 OA
BRANCH  13  14
HETATM   14  C   LIG     1       2.524  -4.346  -0.813  1.00  0.00     0.174 C 
HETATM   15  C   LIG     1       3.247  -4.797   0.441  1.00  0.00     0.034 C 
ENDBRANCH  13  14
ENDBRANCH  11  13
ENDBRANCH   4  11
BRANCH   2  16
HETATM   16  S   LIG     1       0.824   2.620   0.591  1.00  0.00    -0.122 SA
BRANCH  16  17
HETATM   17  C   LIG     1       1.055   3.226  -1.109  1.00  0.00     0.080 C 
BRANCH  17  18
HETATM   18  C   LIG     1       1.468   4.697  -1.080  1.00  0.00     0.006 C 
HETATM   19  C   LIG     1       1.676   5.246  -2.484  1.00  0.00     0.006 C 
ENDBRANCH  17  18
ENDBRANCH  16  17
ENDBRANCH   2  16
TORSDOF 6
