REMARK  3 active torsions:
REMARK  status: ('A' for Active; 'I' for Inactive)
REMARK    1  A    between atoms: C_1  and  C_4 
REMARK    2  A    between atoms: S_3  and  C_4 
REMARK    3  A    between atoms: S_3  and  C_8 
ROOT
HETATM    1  S   LIG     1       0.046  -2.628  -0.901  1.00  0.00    -0.123 SA
ENDROOT
BRANCH   1   2
HETATM    2  C   LIG     1       0.894  -1.064  -1.323  1.00  0.00     0.148 C 
BRANCH   2   3
HETATM    3  C   LIG     1       1.076  -0.225  -0.071  1.00  0.00     0.080 C 
HETATM    4  S   LIG     1       0.409   1.295   0.101  1.00  0.00    -0.065 SA
HETATM    5  N   LIG     1       1.875  -0.727   0.916  1.00  0.00    -0.393 N 
ATOM      6  HN2 LIG     1       1.997  -0.163   1.757  1.00  0.00     0.156 HD
ATOM      7  HN1 LIG     1       2.283  -1.656   0.811  1.00  0.00     0.156 HD
ENDBRANCH   2   3
ENDBRANCH   1   2
BRANCH   1   8
HETATM    8  C   LIG     1       0.016  -3.401  -2.510  1.00  0.00     0.000 A 
HETATM    9  C   LIG     1       0.654  -4.634  -2.689  1.00  0.00     0.018 A 
HETATM   10  C   LIG     1       0.652  -5.254  -3.942  1.00  0.00     0.001 A 
HETATM   11  C   LIG     1       0.006  -4.653  -5.018  1.00  0.00     0.000 A 
HETATM   12  C   LIG     1      -0.655  -3.438  -4.841  1.00  0.00     0.001 A 
HETATM   13  C   LIG     1      -0.656  -2.818  -3.588  1.00  0.00     0.018 A 
ENDBRANCH   1   8
TORSDOF 3
