REMARK  1 active torsions:
REMARK  status: ('A' for Active; 'I' for Inactive)
REMARK    1  A    between atoms: C_1  and  C_2 
ROOT
HETATM    1  C   LIG     1      -0.694  -0.926  -0.385  1.00  0.00     0.347 C 
HETATM    2  N   LIG     1       0.729  -0.695  -0.734  1.00  0.00    -0.051 N 
ATOM      3  HN1 LIG     1       0.874  -0.496  -1.724  1.00  0.00     0.279 HD
ATOM      4  HN2 LIG     1       1.297  -1.541  -0.690  1.00  0.00     0.279 HD
HETATM    5  S   LIG     1      -1.395   0.656   0.171  1.00  0.00    -0.124 SA
HETATM    6  C   LIG     1       1.209   0.373   0.149  1.00  0.00     0.244 C 
HETATM    7  C   LIG     1       0.195   1.507   0.136  1.00  0.00     0.104 C 
ENDROOT
BRANCH   1   8
HETATM    8  C   LIG     1      -1.484  -1.444  -1.597  1.00  0.00     0.215 C 
HETATM    9  O   LIG     1      -2.527  -2.080  -1.571  1.00  0.00    -0.646 OA
HETATM   10  O   LIG     1      -0.957  -1.070  -2.791  1.00  0.00    -0.646 OA
ENDBRANCH   1   8
TORSDOF 1
