REMARK  0 active torsions:
REMARK  status: ('A' for Active; 'I' for Inactive)
ROOT
HETATM    1  C   LIG     1       0.281  -0.730   0.000  1.00  0.00     0.086 A 
HETATM    2  C   LIG     1       0.265   0.728   0.000  1.00  0.00     0.085 A 
HETATM    3  C   LIG     1      -0.895  -1.500   0.001  1.00  0.00     0.057 A 
HETATM    4  O   LIG     1       2.319   0.023   0.000  1.00  0.00    -0.156 OA
HETATM    5  N   LIG     1       1.557  -1.134   0.000  1.00  0.00    -0.239 N 
ATOM      6  HN  LIG     1       1.898  -2.095   0.000  1.00  0.00     0.197 HD
HETATM    7  N   LIG     1       1.531   1.162   0.000  1.00  0.00    -0.240 N 
ATOM      8  HN  LIG     1       1.850   2.131   0.000  1.00  0.00     0.197 HD
HETATM    9  C   LIG     1      -0.931   1.468  -0.000  1.00  0.00     0.035 A 
HETATM   10  C   LIG     1      -2.077  -0.740   0.001  1.00  0.00     0.036 A 
HETATM   11  C   LIG     1      -2.100   0.682   0.000  1.00  0.00     0.026 A 
HETATM   12 CL   LIG     1      -3.586  -1.580   0.003  1.00  0.00    -0.084 Cl
ENDROOT
TORSDOF 0
