REMARK  3 active torsions:
REMARK  status: ('A' for Active; 'I' for Inactive)
REMARK    1  A    between atoms: C_1  and  C_4 
REMARK    2  A    between atoms: C_2  and  C_9 
REMARK    3  A    between atoms: C_3  and  C_11 
ROOT
HETATM    1  C   LIG     1      -0.691   1.230   0.069  1.00  0.00     0.057 A 
HETATM    2  N   LIG     1       1.419   0.048  -0.051  1.00  0.00    -0.373 N 
ATOM      3  HN  LIG     1       2.438   0.058  -0.089  1.00  0.00     0.164 HD
HETATM    4  C   LIG     1      -1.387   0.018   0.057  1.00  0.00     0.041 A 
HETATM    5  C   LIG     1      -0.671  -1.176  -0.010  1.00  0.00     0.034 A 
HETATM    6  C   LIG     1       0.697   1.194   0.013  1.00  0.00     0.106 A 
HETATM    7  C   LIG     1       0.716  -1.111  -0.062  1.00  0.00     0.108 A 
ENDROOT
BRANCH   5   8
HETATM    8  C   LIG     1      -1.348  -2.434  -0.026  1.00  0.00    -0.060 C 
HETATM    9  C   LIG     1      -1.917  -3.492  -0.041  1.00  0.00    -0.061 C 
BRANCH   9  10
HETATM   10  C   LIG     1      -2.595  -4.751  -0.062  1.00  0.00     0.018 A 
HETATM   11  C   LIG     1      -1.885  -5.932   0.163  1.00  0.00     0.020 A 
HETATM   12  C   LIG     1      -2.548  -7.161   0.140  1.00  0.00     0.001 A 
HETATM   13  C   LIG     1      -3.920  -7.210  -0.107  1.00  0.00     0.000 A 
HETATM   14  C   LIG     1      -4.631  -6.031  -0.331  1.00  0.00     0.001 A 
HETATM   15  C   LIG     1      -3.970  -4.801  -0.309  1.00  0.00     0.020 A 
ENDBRANCH   9  10
ENDBRANCH   5   8
BRANCH   1  16
HETATM   16  C   LIG     1      -1.357   2.543   0.136  1.00  0.00     0.210 C 
HETATM   17  O   LIG     1      -0.799   3.624   0.148  1.00  0.00    -0.644 OA
HETATM   18  O   LIG     1      -2.697   2.442   0.184  1.00  0.00    -0.644 OA
ENDBRANCH   1  16
TORSDOF 3
