REMARK  3 active torsions:
REMARK  status: ('A' for Active; 'I' for Inactive)
REMARK    1  A    between atoms: C_3  and  C_9 
REMARK    2  A    between atoms: O_5  and  C_8 
REMARK    3  A    between atoms: C_8  and  C_9 
ROOT
HETATM    1  N   LIG     1       1.110   1.192  -0.429  1.00  0.00    -0.375 N 
ATOM      2  HN  LIG     1       1.572   2.053  -0.722  1.00  0.00     0.164 HD
HETATM    3  C   LIG     1      -0.914  -0.100  -0.125  1.00  0.00    -0.041 A 
HETATM    4  C   LIG     1      -0.232   1.049  -0.503  1.00  0.00     0.094 A 
HETATM    5  C   LIG     1       1.812   0.142   0.051  1.00  0.00     0.087 A 
HETATM    6  C   LIG     1      -0.150  -1.171   0.355  1.00  0.00     0.010 A 
HETATM    7  C   LIG     1       1.233  -1.049   0.447  1.00  0.00     0.018 A 
ENDROOT
BRANCH   3   8
HETATM    8  C   LIG     1      -2.413  -0.205  -0.228  1.00  0.00     0.066 C 
BRANCH   8   9
HETATM    9  C   LIG     1      -2.898  -0.693  -1.593  1.00  0.00     0.168 C 
BRANCH   9  10
HETATM   10  O   LIG     1      -2.448  -2.017  -1.863  1.00  0.00    -0.401 OA
ATOM     11  HO  LIG     1      -2.749  -2.320  -2.711  1.00  0.00     0.209 HD
ENDBRANCH   9  10
ENDBRANCH   8   9
ENDBRANCH   3   8
TORSDOF 3
