REMARK  4 active torsions:
REMARK  status: ('A' for Active; 'I' for Inactive)
REMARK    1  A    between atoms: C_3  and  C_12 
REMARK    2  A    between atoms: C_8  and  C_13 
REMARK    3  A    between atoms: N_9  and  C_13 
REMARK    4  A    between atoms: N_9  and  C_12 
ROOT
HETATM    1  N   LIG     1       4.201   3.882  -2.573  1.00  0.00    -0.197 NA
HETATM    2  C   LIG     1       3.732   2.845  -2.346  1.00  0.00     0.060 C 
HETATM    3  C   LIG     1       3.144   1.527  -2.051  1.00  0.00     0.151 C 
ENDROOT
BRANCH   3   4
HETATM    4  C   LIG     1       3.795   0.441  -2.915  1.00  0.00     0.246 C 
BRANCH   4   5
HETATM    5  N   LIG     1       3.230  -0.882  -2.620  1.00  0.00    -0.069 N 
ATOM      6  HN2 LIG     1       3.314  -1.116  -1.631  1.00  0.00     0.277 HD
ATOM      7  HN1 LIG     1       2.213  -0.882  -2.693  1.00  0.00     0.277 HD
BRANCH   5   8
HETATM    8  C   LIG     1       3.836  -1.911  -3.474  1.00  0.00     0.296 C 
BRANCH   8   9
HETATM    9  C   LIG     1       3.312  -3.260  -3.123  1.00  0.00     0.078 A 
HETATM   10  O   LIG     1       4.006  -3.957  -2.175  1.00  0.00    -0.325 OA
HETATM   11  C   LIG     1       3.376  -5.150  -2.019  1.00  0.00     0.142 A 
HETATM   12  C   LIG     1       2.283  -5.231  -2.849  1.00  0.00     0.027 A 
HETATM   13  C   LIG     1       2.241  -4.010  -3.566  1.00  0.00     0.036 A 
ENDBRANCH   8   9
ENDBRANCH   5   8
ENDBRANCH   4   5
ENDBRANCH   3   4
TORSDOF 4
