REMARK  4 active torsions:
REMARK  status: ('A' for Active; 'I' for Inactive)
REMARK    1  A    between atoms: C_4  and  C_9 
REMARK    2  A    between atoms: N_5  and  C_9 
REMARK    3  A    between atoms: N_5  and  C_11 
REMARK    4  A    between atoms: C_8  and  C_11 
ROOT
HETATM    1  N   LIG     1       3.985  -1.470  -3.856  1.00  0.00    -0.197 NA
HETATM    2  C   LIG     1       3.643  -1.404  -2.749  1.00  0.00     0.060 C 
HETATM    3  C   LIG     1       3.214  -1.320  -1.335  1.00  0.00     0.151 C 
ENDROOT
BRANCH   3   4
HETATM    4  C   LIG     1       3.476  -2.642  -0.606  1.00  0.00     0.246 C 
BRANCH   4   5
HETATM    5  N   LIG     1       3.059  -2.597   0.804  1.00  0.00    -0.072 N 
ATOM      6  HN2 LIG     1       3.478  -1.808   1.296  1.00  0.00     0.277 HD
ATOM      7  HN1 LIG     1       2.078  -2.335   0.899  1.00  0.00     0.277 HD
BRANCH   5   8
HETATM    8  C   LIG     1       3.350  -3.879   1.480  1.00  0.00     0.264 C 
BRANCH   8   9
HETATM    9  C   LIG     1       2.980  -3.848   2.980  1.00  0.00     0.147 C 
HETATM   10  O   LIG     1       3.806  -2.875   3.653  1.00  0.00    -0.384 OA
HETATM   11  C   LIG     1       4.488  -3.506   4.740  1.00  0.00     0.168 C 
HETATM   12  C   LIG     1       4.473  -4.992   4.474  1.00  0.00     0.029 C 
HETATM   13  C   LIG     1       3.210  -5.189   3.674  1.00  0.00     0.036 C 
ENDBRANCH   8   9
ENDBRANCH   5   8
ENDBRANCH   4   5
ENDBRANCH   3   4
TORSDOF 4
