REMARK  1 active torsions:
REMARK  status: ('A' for Active; 'I' for Inactive)
REMARK    1  A    between atoms: C_1  and  O_9 
ROOT
HETATM    1  C   LIG     1       0.765   1.410  -0.305  1.00  0.00     0.176 C 
HETATM    2  C   LIG     1       1.246   1.826  -1.601  1.00  0.00     0.100 C 
HETATM    3  N   LIG     1      -1.303  -0.031   0.026  1.00  0.00     0.092 N 
HETATM    4  N   LIG     1       1.630   2.158  -2.635  1.00  0.00    -0.194 NA
HETATM    5  C   LIG     1      -0.792   1.335  -0.288  1.00  0.00     0.326 C 
HETATM    6  C   LIG     1       1.299  -0.016   0.024  1.00  0.00     0.040 C 
HETATM    7  C   LIG     1       0.744  -1.029  -1.002  1.00  0.00     0.039 C 
HETATM    8  C   LIG     1       0.747  -0.450   1.396  1.00  0.00     0.039 C 
HETATM    9  C   LIG     1      -0.792  -0.974  -0.994  1.00  0.00     0.273 C 
HETATM   10  C   LIG     1      -0.789  -0.436   1.354  1.00  0.00     0.273 C 
ENDROOT
BRANCH   1  11
HETATM   11  O   LIG     1       1.224   2.305   0.723  1.00  0.00    -0.373 OA
ATOM     12  HO  LIG     1       0.907   2.031   1.576  1.00  0.00     0.212 HD
ENDBRANCH   1  11
TORSDOF 1
