REMARK  2 active torsions:
REMARK  status: ('A' for Active; 'I' for Inactive)
REMARK    1  A    between atoms: C_1  and  C_2 
REMARK    2  A    between atoms: C_1  and  O_9 
ROOT
HETATM    1  C   LIG     1       0.425   0.309  -1.609  1.00  0.00     0.040 A 
HETATM    2  C   LIG     1      -0.047  -0.707  -2.451  1.00  0.00     0.025 A 
HETATM    3  C   LIG     1      -0.721  -0.396  -3.647  1.00  0.00    -0.055 A 
HETATM    4  C   LIG     1      -0.909   0.956  -4.004  1.00  0.00    -0.056 A 
HETATM    5  C   LIG     1       0.215   1.645  -1.964  1.00  0.00     0.018 A 
HETATM    6  C   LIG     1      -0.444   1.964  -3.149  1.00  0.00     0.008 A 
HETATM    7  C   LIG     1      -1.195  -1.512  -4.540  1.00  0.00     0.049 C 
HETATM    8  C   LIG     1      -1.595   1.348  -5.283  1.00  0.00     0.049 C 
ENDROOT
BRANCH   1   9
HETATM    9  C   LIG     1       1.146  -0.058  -0.357  1.00  0.00     0.292 C 
HETATM   10  O   LIG     1       1.353  -1.200   0.011  1.00  0.00    -0.259 OA
BRANCH   9  11
HETATM   11  O   LIG     1       1.527   1.075   0.287  1.00  0.00    -0.323 OA
HETATM   12  C   LIG     1       2.240   0.888   1.506  1.00  0.00     0.213 C 
ENDBRANCH   9  11
ENDBRANCH   1   9
TORSDOF 2
