REMARK  1 active torsions:
REMARK  status: ('A' for Active; 'I' for Inactive)
REMARK    1  A    between atoms: C_7  and  O_10 
ROOT
HETATM    1  N   LIG     1       0.887   0.017   0.102  1.00  0.00    -0.191 NA
HETATM    2  C   LIG     1       3.474  -0.008  -0.034  1.00  0.00     0.083 A 
HETATM    3  C   LIG     1       2.048   0.023   0.049  1.00  0.00     0.102 C 
HETATM    4  C   LIG     1       4.202   1.180  -0.099  1.00  0.00     0.139 A 
HETATM    5  C   LIG     1       5.590   1.170  -0.225  1.00  0.00     0.080 A 
HETATM    6  C   LIG     1       4.154  -1.230  -0.075  1.00  0.00     0.028 A 
HETATM    7  C   LIG     1       6.250  -0.051  -0.290  1.00  0.00     0.068 A 
HETATM    8  F   LIG     1       3.573   2.364  -0.051  1.00  0.00    -0.204 F 
HETATM    9  C   LIG     1       5.545  -1.249  -0.205  1.00  0.00     0.038 A 
ENDROOT
BRANCH   7  10
HETATM   10  O   LIG     1       7.601  -0.123  -0.448  1.00  0.00    -0.361 OA
ATOM     11  HO  LIG     1       8.052  -0.958  -0.492  1.00  0.00     0.217 HD
ENDBRANCH   7  10
TORSDOF 1
