REMARK  2 active torsions:
REMARK  status: ('A' for Active; 'I' for Inactive)
REMARK    1  A    between atoms: C_1  and  C_2 
REMARK    2  A    between atoms: C_1  and  O_11 
ROOT
HETATM    1  C   LIG     1       0.302  -1.664  -0.703  1.00  0.00     0.040 A 
HETATM    2  C   LIG     1      -0.665  -1.309  -1.650  1.00  0.00     0.031 A 
HETATM    3  C   LIG     1      -1.339  -2.306  -2.384  1.00  0.00    -0.008 A 
HETATM    4  N   LIG     1      -1.651  -4.658  -2.849  1.00  0.00    -0.365 N 
ATOM      5  HN  LIG     1      -1.419  -5.636  -2.674  1.00  0.00     0.165 HD
HETATM    6  C   LIG     1      -1.045  -3.671  -2.171  1.00  0.00     0.042 A 
HETATM    7  C   LIG     1       0.583  -3.017  -0.493  1.00  0.00     0.020 A 
HETATM    8  C   LIG     1      -0.089  -3.999  -1.224  1.00  0.00     0.031 A 
HETATM    9  C   LIG     1      -2.577  -4.316  -3.770  1.00  0.00     0.088 A 
HETATM   10  C   LIG     1      -2.311  -1.993  -3.344  1.00  0.00     0.015 A 
HETATM   11  C   LIG     1      -2.940  -3.013  -4.050  1.00  0.00     0.018 A 
ENDROOT
BRANCH   1  12
HETATM   12  C   LIG     1       1.010  -0.593   0.054  1.00  0.00     0.292 C 
HETATM   13  O   LIG     1       0.826   0.599  -0.105  1.00  0.00    -0.259 OA
BRANCH  12  14
HETATM   14  O   LIG     1       1.875  -1.166   0.930  1.00  0.00    -0.323 OA
HETATM   15  C   LIG     1       2.620  -0.257   1.735  1.00  0.00     0.213 C 
ENDBRANCH  12  14
ENDBRANCH   1  12
TORSDOF 2
