REMARK  4 active torsions:
REMARK  status: ('A' for Active; 'I' for Inactive)
REMARK    1  A    between atoms: N_1  and  C_6 
REMARK    2  A    between atoms: C_2  and  C_5 
REMARK    3  A    between atoms: C_6  and  C_8 
REMARK    4  A    between atoms: C_6  and  C_9 
ROOT
HETATM    1  C   LIG     1       1.009   1.783   0.783  1.00  0.00     0.289 C 
ENDROOT
BRANCH   1   2
HETATM    2  N   LIG     1       0.476   0.802  -0.204  1.00  0.00     0.103 N 
HETATM    3  C   LIG     1       0.831   1.165  -1.601  1.00  0.00     0.291 C 
HETATM    4  C   LIG     1      -0.604   0.780  -2.013  1.00  0.00     0.143 C 
HETATM    5  C   LIG     1      -0.946   1.091  -0.540  1.00  0.00     0.291 C 
BRANCH   4   6
HETATM    6  C   LIG     1      -1.258   1.644  -3.108  1.00  0.00     0.180 C 
HETATM    7  O   LIG     1      -0.840   2.673  -3.614  1.00  0.00    -0.648 OA
HETATM    8  O   LIG     1      -2.440   1.150  -3.544  1.00  0.00    -0.648 OA
ENDBRANCH   4   6
ENDBRANCH   1   2
BRANCH   1   9
HETATM    9  C   LIG     1       0.595   1.380   2.208  1.00  0.00    -0.021 A 
HETATM   10  C   LIG     1      -0.183   2.240   3.002  1.00  0.00     0.010 A 
HETATM   11  C   LIG     1      -0.576   1.864   4.292  1.00  0.00     0.001 A 
HETATM   12  C   LIG     1      -0.195   0.627   4.809  1.00  0.00     0.000 A 
HETATM   13  C   LIG     1       0.585  -0.232   4.042  1.00  0.00     0.001 A 
HETATM   14  C   LIG     1       0.977   0.140   2.753  1.00  0.00     0.010 A 
ENDBRANCH   1   9
BRANCH   1  15
HETATM   15  C   LIG     1       2.532   1.973   0.688  1.00  0.00    -0.021 A 
HETATM   16  C   LIG     1       3.116   3.206   1.030  1.00  0.00     0.010 A 
HETATM   17  C   LIG     1       4.502   3.380   0.964  1.00  0.00     0.001 A 
HETATM   18  C   LIG     1       5.321   2.334   0.544  1.00  0.00     0.000 A 
HETATM   19  C   LIG     1       4.759   1.111   0.193  1.00  0.00     0.001 A 
HETATM   20  C   LIG     1       3.380   0.929   0.276  1.00  0.00     0.010 A 
ENDBRANCH   1  15
TORSDOF 4
