REMARK  2 active torsions:
REMARK  status: ('A' for Active; 'I' for Inactive)
REMARK    1  A    between atoms: N_3  and  C_9 
REMARK    2  A    between atoms: C_6  and  C_9 
ROOT
HETATM    1  N   LIG     1      -1.626  -0.243   0.175  1.00  0.00    -0.375 N 
ATOM      2  HN  LIG     1      -2.634  -0.372   0.263  1.00  0.00     0.164 HD
HETATM    3  C   LIG     1       1.154   0.110  -0.066  1.00  0.00    -0.030 A 
HETATM    4  C   LIG     1      -1.066   0.985   0.160  1.00  0.00     0.088 A 
HETATM    5  C   LIG     1      -0.783  -1.292   0.067  1.00  0.00     0.088 A 
HETATM    6  C   LIG     1       0.297   1.210   0.046  1.00  0.00     0.026 A 
HETATM    7  C   LIG     1       0.593  -1.170  -0.053  1.00  0.00     0.026 A 
ENDROOT
BRANCH   3   8
HETATM    8  C   LIG     1       2.646   0.306  -0.184  1.00  0.00     0.270 C 
BRANCH   8   9
HETATM    9  N   LIG     1       2.980   1.081  -1.379  1.00  0.00    -0.075 N 
HETATM   10  C   LIG     1       4.420   1.249  -1.507  1.00  0.00     0.267 C 
ATOM     11  HN2 LIG     1       2.573   0.670  -2.219  1.00  0.00     0.277 HD
ATOM     12  HN1 LIG     1       2.494   1.978  -1.394  1.00  0.00     0.277 HD
ENDBRANCH   8   9
ENDBRANCH   3   8
TORSDOF 2
