REMARK  3 active torsions:
REMARK  status: ('A' for Active; 'I' for Inactive)
REMARK    1  A    between atoms: C_1  and  C_2 
REMARK    2  A    between atoms: C_5  and  C_14 
REMARK    3  A    between atoms: N_10  and  C_14 
ROOT
HETATM    1  C   LIG     1      -0.456  -1.068   0.024  1.00  0.00     0.159 A 
HETATM    2  O   LIG     1       0.826  -0.588  -0.020  1.00  0.00    -0.308 OA
HETATM    3  C   LIG     1      -1.344  -0.012   0.109  1.00  0.00     0.045 A 
HETATM    4  C   LIG     1       0.752   0.773   0.039  1.00  0.00     0.079 A 
HETATM    5  C   LIG     1      -0.567   1.170   0.119  1.00  0.00     0.037 A 
ENDROOT
BRANCH   4   6
HETATM    6  C   LIG     1       2.039   1.515   0.008  1.00  0.00     0.294 C 
BRANCH   6   7
HETATM    7  N   LIG     1       2.095   2.408  -1.145  1.00  0.00    -0.074 N 
ATOM      8  HN3 LIG     1       1.926   1.908  -2.018  1.00  0.00     0.274 HD
ATOM      9  HN2 LIG     1       1.295   3.040  -1.172  1.00  0.00     0.274 HD
ATOM     10  HN1 LIG     1       2.978   2.917  -1.166  1.00  0.00     0.274 HD
ENDBRANCH   6   7
ENDBRANCH   4   6
BRANCH   1  11
HETATM   11  C   LIG     1      -0.646  -2.540  -0.024  1.00  0.00     0.439 C 
HETATM   12  F   LIG     1       0.521  -3.230  -0.108  1.00  0.00    -0.164 F 
HETATM   13  F   LIG     1      -1.292  -2.998   1.081  1.00  0.00    -0.164 F 
HETATM   14  F   LIG     1      -1.398  -2.913  -1.093  1.00  0.00    -0.164 F 
ENDBRANCH   1  11
TORSDOF 3
