REMARK  2 active torsions:
REMARK  status: ('A' for Active; 'I' for Inactive)
REMARK    1  A    between atoms: C_3  and  C_4 
REMARK    2  A    between atoms: C_4  and  O_9 
ROOT
HETATM    1  N   LIG     1      -1.722   0.796  -0.355  1.00  0.00    -0.376 N 
ATOM      2  HN  LIG     1      -2.163   1.667  -0.650  1.00  0.00     0.160 HD
HETATM    3  C   LIG     1      -2.377  -0.519  -0.091  1.00  0.00     0.186 C 
HETATM    4  C   LIG     1      -0.358   0.562  -0.104  1.00  0.00     0.035 A 
HETATM    5  C   LIG     1      -1.280  -1.608  -0.140  1.00  0.00     0.076 C 
HETATM    6  C   LIG     1      -0.040  -0.790  -0.010  1.00  0.00    -0.029 A 
HETATM    7  C   LIG     1       0.635   1.523  -0.083  1.00  0.00     0.029 A 
HETATM    8  C   LIG     1       1.268  -1.219   0.138  1.00  0.00     0.009 A 
HETATM    9  C   LIG     1       1.961   1.110   0.069  1.00  0.00     0.002 A 
HETATM   10  C   LIG     1       2.275  -0.254   0.181  1.00  0.00     0.001 A 
ENDROOT
BRANCH   3  11
HETATM   11  C   LIG     1      -3.490  -0.827  -1.094  1.00  0.00     0.281 C 
HETATM   12  O   LIG     1      -3.853  -1.962  -1.393  1.00  0.00    -0.263 OA
BRANCH  11  13
HETATM   13  O   LIG     1      -4.088   0.313  -1.550  1.00  0.00    -0.325 OA
HETATM   14  C   LIG     1      -5.113   0.093  -2.517  1.00  0.00     0.213 C 
ENDBRANCH  11  13
ENDBRANCH   3  11
TORSDOF 2
