REMARK  1 active torsions:
REMARK  status: ('A' for Active; 'I' for Inactive)
REMARK    1  A    between atoms: C_1  and  C_2 
ROOT
HETATM    1  C   LIG     1       0.689  -0.717  -1.300  1.00  0.00     0.113 C 
HETATM    2  N   LIG     1       0.463  -0.093  -2.409  1.00  0.00    -0.384 N 
ATOM      3  HN  LIG     1       0.206   0.894  -2.390  1.00  0.00     0.159 HD
HETATM    4  C   LIG     1       1.080  -2.155  -1.112  1.00  0.00     0.050 C 
HETATM    5  N   LIG     1       0.097  -3.139  -3.127  1.00  0.00    -0.397 N 
ATOM      6  HN  LIG     1      -0.046  -4.036  -3.591  1.00  0.00     0.158 HD
HETATM    7  C   LIG     1       0.747  -3.160  -1.926  1.00  0.00     0.085 C 
HETATM    8  C   LIG     1       0.572  -0.788  -3.693  1.00  0.00     0.139 C 
HETATM    9  C   LIG     1      -0.411  -1.957  -3.806  1.00  0.00     0.138 C 
ENDROOT
BRANCH   1  10
HETATM   10  C   LIG     1       0.590   0.062   0.022  1.00  0.00     0.432 C 
HETATM   11  F   LIG     1      -0.220  -0.568   0.921  1.00  0.00    -0.165 F 
HETATM   12  F   LIG     1       0.109   1.327  -0.108  1.00  0.00    -0.165 F 
HETATM   13  F   LIG     1       1.806   0.169   0.630  1.00  0.00    -0.165 F 
ENDBRANCH   1  10
TORSDOF 1
