REMARK  3 active torsions:
REMARK  status: ('A' for Active; 'I' for Inactive)
REMARK    1  A    between atoms: N_1  and  C_7 
REMARK    2  A    between atoms: C_5  and  C_10 
REMARK    3  A    between atoms: C_10  and  O_16 
ROOT
HETATM    1  N   LIG     1       1.404  -0.269  -0.101  1.00  0.00    -0.261 N 
HETATM    2  N   LIG     1       0.302  -1.071  -0.052  1.00  0.00    -0.304 N 
ATOM      3  HN  LIG     1       0.276  -2.089  -0.104  1.00  0.00     0.186 HD
HETATM    4  C   LIG     1       1.031   1.075  -0.092  1.00  0.00     0.040 A 
HETATM    5  C   LIG     1      -0.352   1.104   0.048  1.00  0.00     0.006 A 
HETATM    6  C   LIG     1      -0.728  -0.248   0.077  1.00  0.00     0.119 A 
HETATM    7  C   LIG     1       1.945   2.231  -0.294  1.00  0.00     0.071 C 
ENDROOT
BRANCH   1   8
HETATM    8  C   LIG     1       2.692  -0.889  -0.164  1.00  0.00     0.056 A 
HETATM    9  C   LIG     1       3.874  -0.213   0.169  1.00  0.00     0.034 A 
HETATM   10  C   LIG     1       5.107  -0.873   0.098  1.00  0.00     0.044 A 
HETATM   11  C   LIG     1       5.162  -2.201  -0.305  1.00  0.00     0.116 A 
HETATM   12  C   LIG     1       4.004  -2.893  -0.629  1.00  0.00     0.044 A 
HETATM   13  F   LIG     1       6.346  -2.823  -0.373  1.00  0.00    -0.206 F 
HETATM   14  C   LIG     1       2.771  -2.243  -0.548  1.00  0.00     0.034 A 
ENDBRANCH   1   8
BRANCH   5  15
HETATM   15  C   LIG     1      -1.261   2.278   0.095  1.00  0.00     0.206 C 
BRANCH  15  16
HETATM   16  O   LIG     1      -0.946   3.146   1.176  1.00  0.00    -0.396 OA
ATOM     17  HO  LIG     1      -1.527   3.897   1.206  1.00  0.00     0.209 HD
ENDBRANCH  15  16
ENDBRANCH   5  15
TORSDOF 3
