REMARK  5 active torsions:
REMARK  status: ('A' for Active; 'I' for Inactive)
REMARK    1  A    between atoms: N_1  and  C_13 
REMARK    2  A    between atoms: C_4  and  C_5 
REMARK    3  A    between atoms: C_4  and  C_10 
REMARK    4  A    between atoms: N_6  and  C_14 
REMARK    5  A    between atoms: C_13  and  C_14 
ROOT
HETATM    1  N   LIG     1       0.523   1.405  -0.384  1.00  0.00     0.090 N 
HETATM    2  C   LIG     1       1.453   0.373   0.094  1.00  0.00     0.273 C 
HETATM    3  C   LIG     1      -0.752   1.290   0.343  1.00  0.00     0.273 C 
HETATM    4  C   LIG     1      -0.427  -1.225   0.651  1.00  0.00    -0.007 C 
HETATM    5  C   LIG     1       0.919  -1.051  -0.070  1.00  0.00     0.035 C 
HETATM    6  C   LIG     1      -1.398  -0.098   0.255  1.00  0.00     0.035 C 
ENDROOT
BRANCH   4   7
HETATM    7  C   LIG     1      -1.071  -2.597   0.363  1.00  0.00     0.043 C 
BRANCH   7   8
HETATM    8  C   LIG     1      -0.213  -3.793   0.708  1.00  0.00    -0.058 A 
HETATM    9  C   LIG     1       0.231  -4.012   2.017  1.00  0.00     0.007 A 
HETATM   10  C   LIG     1       1.016  -5.125   2.325  1.00  0.00     0.001 A 
HETATM   11  C   LIG     1       1.357  -6.037   1.327  1.00  0.00     0.000 A 
HETATM   12  C   LIG     1       0.915  -5.835   0.023  1.00  0.00     0.001 A 
HETATM   13  C   LIG     1       0.134  -4.720  -0.287  1.00  0.00     0.007 A 
ENDBRANCH   7   8
ENDBRANCH   4   7
BRANCH   1  14
HETATM   14  C   LIG     1       0.326   1.411  -1.849  1.00  0.00     0.299 C 
BRANCH  14  15
HETATM   15  C   LIG     1       1.616   1.680  -2.660  1.00  0.00     0.259 C 
BRANCH  15  16
HETATM   16  N   LIG     1       1.374   1.682  -4.106  1.00  0.00    -0.078 N 
ATOM     17  HN3 LIG     1       0.924   0.817  -4.405  1.00  0.00     0.274 HD
ATOM     18  HN2 LIG     1       0.638   2.343  -4.355  1.00  0.00     0.274 HD
ATOM     19  HN1 LIG     1       2.224   1.859  -4.641  1.00  0.00     0.274 HD
ENDBRANCH  15  16
ENDBRANCH  14  15
ENDBRANCH   1  14
TORSDOF 5
