REMARK  2 active torsions:
REMARK  status: ('A' for Active; 'I' for Inactive)
REMARK    1  A    between atoms: C_1  and  C_6 
REMARK    2  A    between atoms: C_6  and  O_11 
ROOT
HETATM    1  C   LIG     1      -2.205  -0.382   0.105  1.00  0.00     0.081 A 
HETATM    2  S   LIG     1      -1.240  -1.791   0.164  1.00  0.00    -0.084 SA
HETATM    3  C   LIG     1      -1.421   0.752   0.013  1.00  0.00     0.038 A 
HETATM    4  C   LIG     1      -0.015   0.474  -0.007  1.00  0.00    -0.016 A 
HETATM    5  C   LIG     1       0.227  -0.898   0.055  1.00  0.00     0.016 A 
HETATM    6  C   LIG     1       1.097   1.349  -0.090  1.00  0.00     0.039 A 
HETATM    7  C   LIG     1       1.535  -1.412   0.015  1.00  0.00     0.021 A 
HETATM    8  C   LIG     1       2.408   0.858  -0.059  1.00  0.00     0.047 A 
HETATM    9  N   LIG     1       3.487   1.729  -0.253  1.00  0.00    -0.102 NA
HETATM   10  C   LIG     1       2.609  -0.518  -0.066  1.00  0.00     0.028 A 
ENDROOT
BRANCH   1  11
HETATM   11  C   LIG     1      -3.650  -0.497   0.153  1.00  0.00     0.299 C 
HETATM   12  O   LIG     1      -4.300  -1.532   0.249  1.00  0.00    -0.259 OA
BRANCH  11  13
HETATM   13  O   LIG     1      -4.205   0.749   0.075  1.00  0.00    -0.322 OA
HETATM   14  C   LIG     1      -5.632   0.765   0.113  1.00  0.00     0.213 C 
ENDBRANCH  11  13
ENDBRANCH   1  11
TORSDOF 2
