REMARK  2 active torsions:
REMARK  status: ('A' for Active; 'I' for Inactive)
REMARK    1  A    between atoms: C_1  and  C_4 
REMARK    2  A    between atoms: C_5  and  N_10 
ROOT
HETATM    1  C   LIG     1       0.605   1.394  -0.072  1.00  0.00     0.011 A 
HETATM    2  C   LIG     1      -1.390   0.008  -0.161  1.00  0.00     0.073 A 
HETATM    3  C   LIG     1      -0.786   1.274  -0.132  1.00  0.00     0.044 A 
HETATM    4  C   LIG     1      -0.598  -1.169  -0.103  1.00  0.00     0.052 A 
HETATM    5  C   LIG     1       1.388   0.238  -0.003  1.00  0.00     0.017 A 
HETATM    6  C   LIG     1       0.790  -1.026   0.001  1.00  0.00     0.032 A 
HETATM    7  N   LIG     1      -2.793  -0.069  -0.065  1.00  0.00    -0.100 NA
ENDROOT
BRANCH   1   8
HETATM    8  C   LIG     1       1.295   2.718  -0.061  1.00  0.00     0.155 C 
HETATM    9  O   LIG     1       2.522   2.769  -0.020  1.00  0.00    -0.293 OA
HETATM   10  C   LIG     1       0.466   3.974  -0.114  1.00  0.00     0.096 C 
ENDBRANCH   1   8
BRANCH   4  11
HETATM   11  N   LIG     1      -1.248  -2.420  -0.104  1.00  0.00    -0.393 N 
HETATM   12  C   LIG     1      -0.454  -3.637  -0.118  1.00  0.00     0.146 C 
ATOM     13  HN  LIG     1      -2.267  -2.470  -0.095  1.00  0.00     0.159 HD
ENDBRANCH   4  11
TORSDOF 2
