REMARK  2 active torsions:
REMARK  status: ('A' for Active; 'I' for Inactive)
REMARK       I    between atoms: C_1  and  N_2 
REMARK    1  A    between atoms: C_1  and  C_4 
REMARK    2  A    between atoms: N_2  and  C_8 
ROOT
HETATM    1  C   LIG     1      -0.611   1.230  -0.646  1.00  0.00     0.229 C 
HETATM    2  N   LIG     1      -0.596   1.545   0.707  1.00  0.00    -0.326 N 
ATOM      3  HN  LIG     1      -0.422   2.521   0.946  1.00  0.00     0.169 HD
HETATM    4  O   LIG     1      -0.811   0.110  -1.103  1.00  0.00    -0.272 OA
ENDROOT
BRANCH   2   5
HETATM    5  C   LIG     1      -0.796   0.655   1.787  1.00  0.00     0.037 A 
HETATM    6  C   LIG     1      -1.046  -0.704   1.631  1.00  0.00     0.046 A 
HETATM    7  C   LIG     1      -1.218  -1.484   2.763  1.00  0.00     0.090 A 
HETATM    8  N   LIG     1      -1.159  -1.005   4.022  1.00  0.00    -0.375 N 
HETATM    9  C   LIG     1      -0.920   0.315   4.152  1.00  0.00     0.090 A 
ATOM     10  HN  LIG     1      -1.288  -1.610   4.833  1.00  0.00     0.164 HD
HETATM   11  C   LIG     1      -0.734   1.176   3.080  1.00  0.00     0.046 A 
ENDBRANCH   2   5
BRANCH   1  12
HETATM   12  C   LIG     1      -0.345   2.431  -1.582  1.00  0.00     0.030 C 
HETATM   13  C   LIG     1      -0.400   1.950  -3.045  1.00  0.00     0.025 C 
HETATM   14  C   LIG     1      -1.419   3.510  -1.374  1.00  0.00     0.025 C 
HETATM   15  C   LIG     1       1.049   3.015  -1.313  1.00  0.00     0.025 C 
ENDBRANCH   1  12
TORSDOF 2
