REMARK  4 active torsions:
REMARK  status: ('A' for Active; 'I' for Inactive)
REMARK    1  A    between atoms: N_1  and  C_2 
REMARK    2  A    between atoms: C_2  and  C_3 
REMARK    3  A    between atoms: C_7  and  C_17 
REMARK    4  A    between atoms: N_8  and  C_17 
ROOT
HETATM    1  C   LIG     1       0.148  -0.409  -2.340  1.00  0.00    -0.030 A 
HETATM    2  C   LIG     1       1.060  -1.212  -3.047  1.00  0.00     0.017 A 
HETATM    3  C   LIG     1       0.629  -2.297  -3.824  1.00  0.00    -0.033 A 
HETATM    4  C   LIG     1      -1.659  -1.785  -3.190  1.00  0.00     0.001 A 
HETATM    5  C   LIG     1      -1.218  -0.707  -2.422  1.00  0.00     0.009 A 
HETATM    6  C   LIG     1      -0.740  -2.576  -3.885  1.00  0.00     0.009 A 
ENDROOT
BRANCH   1   7
HETATM    7  C   LIG     1       0.654   0.769  -1.529  1.00  0.00     0.311 C 
BRANCH   7   8
HETATM    8  N   LIG     1       0.342   0.708  -0.088  1.00  0.00     0.092 N 
HETATM    9  C   LIG     1       0.804   1.921   0.607  1.00  0.00     0.273 C 
HETATM   10  C   LIG     1       2.331   2.038   0.701  1.00  0.00     0.034 C 
HETATM   11  C   LIG     1       2.955   0.789   1.337  1.00  0.00    -0.015 C 
HETATM   12  C   LIG     1       2.411  -0.494   0.694  1.00  0.00     0.034 C 
HETATM   13  C   LIG     1       4.479   0.833   1.238  1.00  0.00     0.010 C 
HETATM   14  C   LIG     1       0.885  -0.480   0.587  1.00  0.00     0.273 C 
ENDBRANCH   7   8
ENDBRANCH   1   7
BRANCH   3  15
HETATM   15  C   LIG     1       1.632  -3.148  -4.561  1.00  0.00     0.268 C 
BRANCH  15  16
HETATM   16  N   LIG     1       2.384  -2.369  -5.538  1.00  0.00    -0.075 N 
ATOM     17  HN3 LIG     1       1.763  -1.882  -6.184  1.00  0.00     0.274 HD
ATOM     18  HN2 LIG     1       2.829  -1.559  -5.106  1.00  0.00     0.274 HD
ATOM     19  HN1 LIG     1       3.063  -2.945  -6.037  1.00  0.00     0.274 HD
ENDBRANCH  15  16
ENDBRANCH   3  15
TORSDOF 4
