REMARK  4 active torsions:
REMARK  status: ('A' for Active; 'I' for Inactive)
REMARK    1  A    between atoms: N_1  and  C_2 
REMARK    2  A    between atoms: C_2  and  C_3 
REMARK    3  A    between atoms: C_5  and  C_14 
REMARK    4  A    between atoms: N_6  and  C_14 
ROOT
HETATM    1  C   LIG     1       0.896  -0.470  -3.643  1.00  0.00    -0.030 A 
HETATM    2  C   LIG     1      -0.106  -0.455  -4.628  1.00  0.00     0.017 A 
HETATM    3  C   LIG     1       0.186  -0.787  -5.962  1.00  0.00    -0.033 A 
HETATM    4  C   LIG     1       2.508  -1.133  -5.334  1.00  0.00     0.001 A 
HETATM    5  C   LIG     1       2.205  -0.804  -4.012  1.00  0.00     0.009 A 
HETATM    6  C   LIG     1       1.502  -1.126  -6.301  1.00  0.00     0.009 A 
ENDROOT
BRANCH   1   7
HETATM    7  C   LIG     1       0.571  -0.122  -2.205  1.00  0.00     0.311 C 
BRANCH   7   8
HETATM    8  N   LIG     1      -0.411  -1.021  -1.571  1.00  0.00     0.092 N 
HETATM    9  C   LIG     1      -0.817  -0.521  -0.247  1.00  0.00     0.272 C 
HETATM   10  C   LIG     1       0.287  -0.609   0.811  1.00  0.00     0.030 C 
HETATM   11  C   LIG     1       0.853  -2.023   0.918  1.00  0.00     0.003 C 
HETATM   12  C   LIG     1       1.196  -2.604  -0.451  1.00  0.00     0.030 C 
HETATM   13  C   LIG     1       0.052  -2.414  -1.451  1.00  0.00     0.272 C 
ENDBRANCH   7   8
ENDBRANCH   1   7
BRANCH   3  14
HETATM   14  C   LIG     1      -0.906  -0.827  -7.001  1.00  0.00     0.268 C 
BRANCH  14  15
HETATM   15  N   LIG     1      -0.658   0.110  -8.092  1.00  0.00    -0.075 N 
ATOM     16  HN3 LIG     1      -0.516   1.057  -7.741  1.00  0.00     0.274 HD
ATOM     17  HN2 LIG     1       0.258  -0.046  -8.512  1.00  0.00     0.274 HD
ATOM     18  HN1 LIG     1      -1.397   0.083  -8.795  1.00  0.00     0.274 HD
ENDBRANCH  14  15
ENDBRANCH   3  14
TORSDOF 4
