REMARK  1 active torsions:
REMARK  status: ('A' for Active; 'I' for Inactive)
REMARK       I    between atoms: C_1  and  N_2 
REMARK    1  A    between atoms: C_1  and  C_7 
ROOT
HETATM    1  N   LIG     1       4.292   0.487   2.724  1.00  0.00    -0.075 N 
ATOM      2  HN1 LIG     1       5.222   0.714   2.372  1.00  0.00     0.277 HD
ATOM      3  HN2 LIG     1       4.494   0.523   3.723  1.00  0.00     0.277 HD
HETATM    4  C   LIG     1       2.769   0.132   0.228  1.00  0.00     0.081 C 
HETATM    5  C   LIG     1       3.303   1.492   2.333  1.00  0.00     0.233 C 
HETATM    6  C   LIG     1       3.862  -0.846   2.304  1.00  0.00     0.233 C 
HETATM    7  C   LIG     1       3.083   1.513   0.821  1.00  0.00     0.041 C 
HETATM    8  C   LIG     1       3.720  -0.935   0.783  1.00  0.00     0.041 C 
ENDROOT
BRANCH   4   9
HETATM    9  C   LIG     1       1.313  -0.280   0.473  1.00  0.00     0.224 C 
HETATM   10  N   LIG     1       0.738  -1.143  -0.437  1.00  0.00    -0.352 N 
HETATM   11  C   LIG     1      -0.595  -1.676  -0.206  1.00  0.00     0.126 C 
HETATM   12  C   LIG     1       1.214  -1.480  -1.770  1.00  0.00     0.126 C 
HETATM   13  C   LIG     1      -0.809  -2.668  -1.339  1.00  0.00     0.021 C 
HETATM   14  C   LIG     1      -0.007  -2.055  -2.477  1.00  0.00     0.021 C 
HETATM   15  O   LIG     1       0.698   0.086   1.473  1.00  0.00    -0.273 OA
ENDBRANCH   4   9
TORSDOF 1
