REMARK  3 active torsions:
REMARK  status: ('A' for Active; 'I' for Inactive)
REMARK    1  A    between atoms: C_1  and  N_2 
REMARK    2  A    between atoms: C_3  and  C_6 
REMARK    3  A    between atoms: C_6  and  O_10 
ROOT
HETATM    1  C   LIG     1       1.475  -0.763   0.685  1.00  0.00     0.090 A 
HETATM    2  C   LIG     1       0.113  -1.115   0.741  1.00  0.00     0.004 A 
HETATM    3  N   LIG     1       1.943   0.357   1.284  1.00  0.00    -0.356 N 
ATOM      4  HN  LIG     1       2.932   0.602   1.232  1.00  0.00     0.166 HD
HETATM    5  C   LIG     1      -0.757  -0.280   1.456  1.00  0.00     0.014 A 
HETATM    6  C   LIG     1       1.073   1.142   1.951  1.00  0.00     0.089 A 
HETATM    7  C   LIG     1      -0.276   0.868   2.069  1.00  0.00     0.018 A 
ENDROOT
BRANCH   1   8
HETATM    8  N   LIG     1       2.376  -1.589  -0.042  1.00  0.00    -0.269 NA
HETATM    9  C   LIG     1       3.484  -0.786  -0.606  1.00  0.00     0.097 C 
HETATM   10  C   LIG     1       4.383  -1.691  -1.452  1.00  0.00     0.015 C 
HETATM   11  C   LIG     1       4.906  -2.868  -0.630  1.00  0.00     0.002 C 
HETATM   12  C   LIG     1       3.755  -3.612   0.041  1.00  0.00     0.015 C 
HETATM   13  C   LIG     1       2.878  -2.655   0.851  1.00  0.00     0.097 C 
ENDBRANCH   1   8
BRANCH   2  14
HETATM   14  C   LIG     1      -0.435  -2.335   0.050  1.00  0.00     0.206 C 
BRANCH  14  15
HETATM   15  O   LIG     1      -0.140  -2.327  -1.341  1.00  0.00    -0.396 OA
ATOM     16  HO  LIG     1      -0.486  -3.097  -1.777  1.00  0.00     0.209 HD
ENDBRANCH  14  15
ENDBRANCH   2  14
TORSDOF 3
