REMARK  1 active torsions:
REMARK  status: ('A' for Active; 'I' for Inactive)
REMARK    1  A    between atoms: C_1  and  C_6 
ROOT
HETATM    1  C   LIG     1       1.174  -1.446   0.012  1.00  0.00     0.055 A 
HETATM    2  C   LIG     1      -0.072  -0.772   0.006  1.00  0.00     0.011 A 
HETATM    3  N   LIG     1       1.144   1.319  -0.137  1.00  0.00    -0.359 N 
ATOM      4  HN  LIG     1       1.136   2.337  -0.208  1.00  0.00     0.166 HD
HETATM    5  C   LIG     1      -0.010   0.636  -0.080  1.00  0.00     0.043 A 
HETATM    6  C   LIG     1       2.373  -0.729  -0.021  1.00  0.00     0.043 A 
HETATM    7  C   LIG     1       2.315   0.648  -0.100  1.00  0.00     0.006 A 
HETATM    8  C   LIG     1      -1.348  -1.385   0.101  1.00  0.00     0.057 A 
HETATM    9  C   LIG     1      -1.191   1.369  -0.099  1.00  0.00     0.033 A 
HETATM   10  C   LIG     1      -2.508  -0.621   0.083  1.00  0.00     0.117 A 
HETATM   11  C   LIG     1      -2.442   0.756  -0.021  1.00  0.00     0.044 A 
HETATM   12  F   LIG     1      -3.700  -1.224   0.171  1.00  0.00    -0.206 F 
HETATM   13  C   LIG     1       3.576   1.459  -0.139  1.00  0.00     0.068 C 
ENDROOT
BRANCH   1  14
HETATM   14  C   LIG     1       1.324  -2.916   0.067  1.00  0.00     0.210 C 
HETATM   15  O   LIG     1       2.212  -3.513   0.648  1.00  0.00    -0.644 OA
HETATM   16  O   LIG     1       0.447  -3.561  -0.719  1.00  0.00    -0.644 OA
ENDBRANCH   1  14
TORSDOF 1
