REMARK  2 active torsions:
REMARK  status: ('A' for Active; 'I' for Inactive)
REMARK    1  A    between atoms: N_1  and  C_5 
REMARK    2  A    between atoms: C_10  and  C_11 
ROOT
HETATM    1  C   LIG     1       0.557   0.073   1.480  1.00  0.00     0.183 C 
HETATM    2  C   LIG     1      -0.592  -0.939   1.534  1.00  0.00     0.033 C 
HETATM    3  C   LIG     1       0.043   1.487   1.777  1.00  0.00     0.033 C 
HETATM    4  C   LIG     1      -1.144   1.889   0.902  1.00  0.00     0.006 C 
HETATM    5  C   LIG     1      -1.789  -0.547   0.664  1.00  0.00     0.006 C 
HETATM    6  C   LIG     1      -2.294   0.870   0.982  1.00  0.00    -0.015 C 
ENDROOT
BRANCH   1   7
HETATM    7  N   LIG     1       1.234   0.013   0.183  1.00  0.00    -0.075 N 
ATOM      8  HN3 LIG     1       1.550  -0.932  -0.036  1.00  0.00     0.274 HD
ATOM      9  HN2 LIG     1       0.582   0.138  -0.591  1.00  0.00     0.274 HD
ATOM     10  HN1 LIG     1       1.999   0.687   0.147  1.00  0.00     0.274 HD
ENDBRANCH   1   7
BRANCH   6  11
HETATM   11  C   LIG     1      -3.439   1.306   0.050  1.00  0.00     0.000 C 
HETATM   12  C   LIG     1      -4.689   0.446   0.172  1.00  0.00     0.005 C 
ENDBRANCH   6  11
TORSDOF 2
