REMARK  1 active torsions:
REMARK  status: ('A' for Active; 'I' for Inactive)
REMARK       I    between atoms: C_1  and  N_2 
REMARK    1  A    between atoms: C_1  and  C_3 
ROOT
HETATM    1  C   LIG     1       0.786   0.356   0.223  1.00  0.00     0.225 C 
HETATM    2  N   LIG     1      -0.163   1.355   0.477  1.00  0.00    -0.352 N 
HETATM    3  O   LIG     1       1.126  -0.433   1.109  1.00  0.00    -0.273 OA
HETATM    4  C   LIG     1      -0.726   1.411   1.827  1.00  0.00     0.125 C 
HETATM    5  C   LIG     1      -0.347   2.550  -0.340  1.00  0.00     0.125 C 
HETATM    6  C   LIG     1       0.447   3.744   0.190  1.00  0.00     0.020 C 
HETATM    7  C   LIG     1       0.200   2.142   2.794  1.00  0.00     0.020 C 
HETATM    8  C   LIG     1       0.120   3.669   2.763  1.00  0.00     0.002 C 
HETATM    9  C   LIG     1      -0.191   4.359   1.435  1.00  0.00     0.002 C 
ENDROOT
BRANCH   1  10
HETATM   10  C   LIG     1       1.406   0.279  -1.179  1.00  0.00     0.103 C 
HETATM   11  C   LIG     1       0.389  -0.195  -2.230  1.00  0.00     0.246 C 
HETATM   12  N   LIG     1       0.148  -1.639  -2.231  1.00  0.00    -0.074 N 
HETATM   13  C   LIG     1       1.384  -2.399  -2.392  1.00  0.00     0.232 C 
ATOM     14  HN2 LIG     1      -0.360  -1.930  -1.396  1.00  0.00     0.277 HD
ATOM     15  HN1 LIG     1      -0.541  -1.899  -2.937  1.00  0.00     0.277 HD
HETATM   16  C   LIG     1       2.376  -2.081  -1.280  1.00  0.00     0.028 C 
HETATM   17  C   LIG     1       2.678  -0.586  -1.213  1.00  0.00     0.017 C 
ENDBRANCH   1  10
TORSDOF 1
