REMARK  2 active torsions:
REMARK  status: ('A' for Active; 'I' for Inactive)
REMARK    1  A    between atoms: C_1  and  C_7 
REMARK    2  A    between atoms: C_4  and  C_8 
ROOT
HETATM    1  C   UNK     1      -0.514   1.045   0.820  1.00  0.00     0.117 A 
HETATM    2  N   UNK     1       0.783   0.538   0.724  1.00  0.00    -0.344 N 
ATOM      3  HN  UNK     1       1.625   1.054   0.980  1.00  0.00     0.167 HD
HETATM    4  C   UNK     1       0.776  -0.697   0.259  1.00  0.00     0.085 A 
HETATM    5  S   UNK     1      -0.792  -1.297  -0.138  1.00  0.00    -0.081 SA
HETATM    6  C   UNK     1      -1.492   0.171   0.383  1.00  0.00     0.088 A 
ENDROOT
BRANCH   4   7
HETATM    7  C   UNK     1       1.988  -1.509   0.045  1.00  0.00    -0.002 A 
HETATM    8  C   UNK     1       3.217  -0.862  -0.163  1.00  0.00     0.015 A 
HETATM    9  C   UNK     1       4.393  -1.592  -0.364  1.00  0.00     0.007 A 
HETATM   10  C   UNK     1       4.372  -2.990  -0.347  1.00  0.00    -0.062 A 
HETATM   11  C   UNK     1       3.155  -3.644  -0.136  1.00  0.00     0.007 A 
HETATM   12  C   UNK     1       5.636  -3.765  -0.569  1.00  0.00     0.048 C 
HETATM   13  C   UNK     1       1.979  -2.912   0.061  1.00  0.00     0.015 A 
ENDBRANCH   4   7
BRANCH   1  14
HETATM   14  C   UNK     1      -0.809   2.378   1.335  1.00  0.00     0.227 C 
HETATM   15  O   UNK     1      -1.927   2.863   1.439  1.00  0.00    -0.643 OA
HETATM   16  O   UNK     1       0.274   3.093   1.717  1.00  0.00    -0.643 OA
ENDBRANCH   1  14
TORSDOF 2
