REMARK  3 active torsions:
REMARK  status: ('A' for Active; 'I' for Inactive)
REMARK    1  A    between atoms: C_1  and  N_2 
REMARK    2  A    between atoms: C_6  and  C_13 
REMARK    3  A    between atoms: O_11  and  C_13 
ROOT
HETATM    1  C   LIG     1      -1.894  -0.661  -1.225  1.00  0.00     0.102 A 
HETATM    2  N   LIG     1      -1.884  -1.686  -2.106  1.00  0.00    -0.352 N 
ATOM      3  HN  LIG     1      -2.658  -2.350  -2.133  1.00  0.00     0.166 HD
HETATM    4  C   LIG     1      -0.815   0.228  -1.190  1.00  0.00     0.049 A 
HETATM    5  C   LIG     1       0.257  -0.971  -2.985  1.00  0.00    -0.019 A 
HETATM    6  C   LIG     1      -0.836  -1.822  -2.953  1.00  0.00     0.099 A 
HETATM    7  C   LIG     1       0.254   0.079  -2.076  1.00  0.00     0.014 A 
ENDROOT
BRANCH   1   8
HETATM    8  N   LIG     1      -2.959  -0.534  -0.325  1.00  0.00    -0.367 N 
HETATM    9  C   LIG     1      -3.999  -1.572  -0.413  1.00  0.00     0.124 C 
HETATM   10  C   LIG     1      -5.008  -1.248  -1.520  1.00  0.00     0.020 C 
HETATM   11  C   LIG     1      -5.572   0.166  -1.371  1.00  0.00     0.003 C 
HETATM   12  C   LIG     1      -4.457   1.201  -1.215  1.00  0.00     0.020 C 
HETATM   13  C   LIG     1      -3.502   0.809  -0.087  1.00  0.00     0.124 C 
ENDBRANCH   1   8
BRANCH   5  14
HETATM   14  C   LIG     1       1.406  -1.196  -3.920  1.00  0.00     0.204 C 
BRANCH  14  15
HETATM   15  O   LIG     1       1.586  -0.078  -4.777  1.00  0.00    -0.396 OA
ATOM     16  HO  LIG     1       2.315  -0.221  -5.370  1.00  0.00     0.209 HD
ENDBRANCH  14  15
ENDBRANCH   5  14
TORSDOF 3
