REMARK  3 active torsions:
REMARK  status: ('A' for Active; 'I' for Inactive)
REMARK    1  A    between atoms: C_1  and  C_7 
REMARK    2  A    between atoms: C_7  and  O_10 
REMARK    3  A    between atoms: O_10  and  C_12 
ROOT
HETATM    1  C   LIG     1       0.017  -0.120   0.032  1.00  0.00     0.105 A 
HETATM    2  N   LIG     1       1.479   1.708  -0.109  1.00  0.00    -0.343 N 
ATOM      3  HN  LIG     1       2.367   2.207  -0.171  1.00  0.00     0.167 HD
HETATM    4  C   LIG     1       1.333   0.326  -0.042  1.00  0.00     0.030 A 
HETATM    5  S   LIG     1      -1.044   1.242   0.017  1.00  0.00    -0.052 SA
HETATM    6  C   LIG     1       0.296   2.265  -0.080  1.00  0.00     0.146 A 
HETATM    7 CL   LIG     1       0.063   3.962  -0.128  1.00  0.00    -0.056 Cl
HETATM    8  C   LIG     1       2.576  -0.497  -0.033  1.00  0.00     0.070 C 
ENDROOT
BRANCH   1   9
HETATM    9  C   LIG     1      -0.484  -1.476   0.123  1.00  0.00     0.302 C 
HETATM   10  O   LIG     1       0.200  -2.488   0.150  1.00  0.00    -0.259 OA
BRANCH   9  11
HETATM   11  O   LIG     1      -1.851  -1.467   0.170  1.00  0.00    -0.317 OA
BRANCH  11  12
HETATM   12  C   LIG     1      -2.504  -2.736   0.269  1.00  0.00     0.174 C 
HETATM   13  C   LIG     1      -2.677  -3.337  -1.112  1.00  0.00     0.034 C 
ENDBRANCH  11  12
ENDBRANCH   9  11
ENDBRANCH   1   9
TORSDOF 3
