REMARK  0 active torsions:
REMARK  status: ('A' for Active; 'I' for Inactive)
ROOT
HETATM    1  C   LIG     1      -0.711   0.564   0.015  1.00  0.00    -0.015 A 
HETATM    2  C   LIG     1      -1.074  -0.765   0.016  1.00  0.00     0.061 A 
HETATM    3  C   LIG     1       0.705   0.580   0.017  1.00  0.00     0.008 A 
HETATM    4  O   LIG     1       0.007  -1.580   0.005  1.00  0.00    -0.314 OA
HETATM    5  C   LIG     1       1.099  -0.756   0.005  1.00  0.00     0.086 A 
HETATM    6  C   LIG     1       1.701   1.575   0.012  1.00  0.00     0.041 A 
HETATM    7  C   LIG     1       2.427  -1.170  -0.022  1.00  0.00     0.040 A 
HETATM    8  C   LIG     1       3.053   1.199   0.040  1.00  0.00     0.047 A 
HETATM    9  N   LIG     1       4.046   2.181  -0.099  1.00  0.00    -0.102 NA
HETATM   10  C   LIG     1       3.397  -0.157  -0.028  1.00  0.00     0.029 A 
HETATM   11  C   LIG     1      -1.714   1.659   0.033  1.00  0.00     0.042 C 
HETATM   12  C   LIG     1      -2.441  -1.327  -0.012  1.00  0.00     0.066 C 
HETATM   13  C   LIG     1      -3.111   1.127  -0.352  1.00  0.00     0.005 C 
HETATM   14  C   LIG     1      -3.445  -0.210   0.346  1.00  0.00     0.007 C 
ENDROOT
TORSDOF 0
