REMARK  2 active torsions:
REMARK  status: ('A' for Active; 'I' for Inactive)
REMARK    1  A    between atoms: C_3  and  C_10 
REMARK    2  A    between atoms: C_10  and  O_11 
ROOT
HETATM    1  S   LIG     1      -1.705  -1.566  -0.094  1.00  0.00    -0.092 SA
HETATM    2  C   LIG     1      -0.258   0.570   0.011  1.00  0.00    -0.018 A 
HETATM    3  C   LIG     1      -2.519  -0.067  -0.027  1.00  0.00     0.007 A 
HETATM    4  C   LIG     1      -1.631   0.985   0.030  1.00  0.00     0.029 A 
HETATM    5  C   LIG     1      -0.153  -0.820  -0.058  1.00  0.00     0.015 A 
HETATM    6  C   LIG     1       0.936   1.330   0.050  1.00  0.00     0.019 A 
HETATM    7  C   LIG     1       1.099  -1.463  -0.090  1.00  0.00     0.020 A 
HETATM    8  C   LIG     1       2.192   0.703   0.023  1.00  0.00    -0.061 A 
HETATM    9  C   LIG     1       2.261  -0.686  -0.051  1.00  0.00     0.008 A 
HETATM   10  C   LIG     1       3.440   1.537   0.053  1.00  0.00     0.048 C 
ENDROOT
BRANCH   3  11
HETATM   11  C   LIG     1      -4.009  -0.016  -0.023  1.00  0.00     0.210 C 
BRANCH  11  12
HETATM   12  O   LIG     1      -4.420   0.273   1.307  1.00  0.00    -0.396 OA
ATOM     13  HO  LIG     1      -5.369   0.305   1.310  1.00  0.00     0.209 HD
ENDBRANCH  11  12
ENDBRANCH   3  11
TORSDOF 2
