REMARK  4 active torsions:
REMARK  status: ('A' for Active; 'I' for Inactive)
REMARK    1  A    between atoms: C_1  and  C_2 
REMARK    2  A    between atoms: C_1  and  O_5 
REMARK    3  A    between atoms: C_6  and  C_13 
REMARK    4  A    between atoms: N_7  and  C_13 
ROOT
HETATM    1 CL   LIG     2       1.689   2.113  -2.395  1.00  0.00     0.000 Cl
ENDROOT
TORSDOF 4
