REMARK  1 active torsions:
REMARK  status: ('A' for Active; 'I' for Inactive)
REMARK    1  A    between atoms: C_8  and  C_9 
ROOT
HETATM    1  N   LIG     1       0.002   1.638   0.069  1.00  0.00    -0.358 N 
ATOM      2  HN  LIG     1      -0.004   2.656   0.126  1.00  0.00     0.166 HD
HETATM    3  C   LIG     1       0.716  -0.480  -0.041  1.00  0.00    -0.000 A 
HETATM    4  C   LIG     1      -0.707  -0.470  -0.045  1.00  0.00    -0.023 A 
HETATM    5  C   LIG     1      -1.110   0.848   0.017  1.00  0.00     0.017 A 
HETATM    6  C   LIG     1       1.135   0.851   0.033  1.00  0.00     0.043 A 
HETATM    7  C   LIG     1       1.690  -1.497  -0.095  1.00  0.00     0.032 A 
HETATM    8  C   LIG     1       3.050  -1.149  -0.072  1.00  0.00     0.041 A 
HETATM    9  C   LIG     1       2.485   1.219   0.058  1.00  0.00     0.031 A 
HETATM   10  C   LIG     1       3.435   0.194   0.005  1.00  0.00     0.021 A 
HETATM   11  C   LIG     1      -1.677  -1.600  -0.128  1.00  0.00     0.041 C 
HETATM   12  C   LIG     1      -2.514   1.338   0.055  1.00  0.00     0.057 C 
HETATM   13  C   LIG     1      -3.096  -1.143   0.264  1.00  0.00     0.005 C 
HETATM   14  C   LIG     1      -3.470   0.209  -0.374  1.00  0.00     0.006 C 
ENDROOT
BRANCH   8  15
HETATM   15  C   LIG     1       4.117  -2.178  -0.127  1.00  0.00     0.209 C 
HETATM   16  O   LIG     1       5.315  -1.965  -0.109  1.00  0.00    -0.644 OA
HETATM   17  O   LIG     1       3.635  -3.432  -0.202  1.00  0.00    -0.644 OA
ENDBRANCH   8  15
TORSDOF 1
