REMARK  0 active torsions:
REMARK  status: ('A' for Active; 'I' for Inactive)
REMARK       I    between atoms: C_1  and  N_2 
REMARK       I    between atoms: C_1  and  N_3 
REMARK       I    between atoms: C_1  and  N_8 
ROOT
HETATM    1  I   LIG     2       2.415  -1.780   2.199  1.00  0.00     0.000 I 
ENDROOT
TORSDOF 0
