REMARK  0 active torsions:
REMARK  status: ('A' for Active; 'I' for Inactive)
ROOT
HETATM    1  N   LIG     1       1.036   0.075  -0.154  1.00  0.00    -0.190 NA
HETATM    2  C   LIG     1       3.625  -0.041   0.016  1.00  0.00     0.152 A 
HETATM    3  C   LIG     1       2.199   0.031  -0.091  1.00  0.00     0.121 C 
HETATM    4  N   LIG     1       4.282   1.149   0.100  1.00  0.00    -0.355 N 
ATOM      5  HN  LIG     1       3.789   2.039   0.029  1.00  0.00     0.166 HD
HETATM    6  C   LIG     1       4.266  -1.268   0.083  1.00  0.00     0.153 A 
HETATM    7  F   LIG     1       3.591  -2.421  -0.023  1.00  0.00    -0.203 F 
HETATM    8  C   LIG     1       5.622   1.092   0.282  1.00  0.00     0.089 A 
HETATM    9  C   LIG     1       5.641  -1.297   0.281  1.00  0.00     0.047 A 
HETATM   10  C   LIG     1       6.334  -0.094   0.392  1.00  0.00     0.020 A 
ENDROOT
TORSDOF 0
