REMARK  3 active torsions:
REMARK  status: ('A' for Active; 'I' for Inactive)
REMARK    1  A    between atoms: C_1  and  S_3 
REMARK    2  A    between atoms: C_2  and  C_4 
REMARK       I    between atoms: C_2  and  N_11 
REMARK    3  A    between atoms: S_3  and  C_14 
ROOT
HETATM    1  C   LIG     1       1.366   1.146  -5.652  1.00  0.00     0.031 A 
HETATM    2  C   LIG     1       1.432  -0.233  -5.418  1.00  0.00     0.018 A 
HETATM    3  C   LIG     1       1.070   2.012  -4.593  1.00  0.00     0.018 A 
HETATM    4  C   LIG     1       0.858   0.127  -3.084  1.00  0.00     0.009 A 
HETATM    5  C   LIG     1       1.181  -0.738  -4.136  1.00  0.00     0.020 A 
HETATM    6  C   LIG     1       0.815   1.505  -3.315  1.00  0.00     0.020 A 
ENDROOT
BRANCH   1   7
HETATM    7  C   LIG     1       1.635   1.736  -6.990  1.00  0.00     0.249 C 
HETATM    8  O   LIG     1       2.012   2.892  -7.117  1.00  0.00    -0.268 OA
HETATM    9  N   LIG     1       1.403   0.948  -8.083  1.00  0.00    -0.366 N 
ATOM     10  HN2 LIG     1       1.088  -0.016  -7.977  1.00  0.00     0.159 HD
ATOM     11  HN1 LIG     1       1.588   1.353  -9.001  1.00  0.00     0.159 HD
ENDBRANCH   1   7
BRANCH   4  12
HETATM   12  S   LIG     1       0.578  -0.516  -1.450  1.00  0.00    -0.016 SA
BRANCH  12  13
HETATM   13  C   LIG     1      -1.197  -0.797  -1.511  1.00  0.00     0.448 C 
HETATM   14  F   LIG     1      -1.759  -0.466  -2.698  1.00  0.00    -0.160 F 
HETATM   15  F   LIG     1      -1.832  -0.078  -0.554  1.00  0.00    -0.160 F 
HETATM   16  F   LIG     1      -1.484  -2.102  -1.286  1.00  0.00    -0.160 F 
ENDBRANCH  12  13
ENDBRANCH   4  12
TORSDOF 3
