REMARK  1 active torsions:
REMARK  status: ('A' for Active; 'I' for Inactive)
REMARK    1  A    between atoms: C_1  and  C_2 
REMARK       I    between atoms: C_1  and  N_5 
ROOT
HETATM    1  C   LIG     1       0.379   0.469   1.365  1.00  0.00     0.034 A 
HETATM    2  C   LIG     1       0.233   1.821   1.661  1.00  0.00     0.049 A 
HETATM    3  C   LIG     1      -0.329   2.251   2.849  1.00  0.00     0.060 A 
HETATM    4  N   LIG     1      -0.330   3.569   3.111  1.00  0.00    -0.363 N 
ATOM      5  HN  LIG     1       0.067   4.247   2.461  1.00  0.00     0.165 HD
HETATM    6  N   LIG     1      -1.444   1.702   4.907  1.00  0.00    -0.363 N 
ATOM      7  HN  LIG     1      -1.856   1.035   5.560  1.00  0.00     0.165 HD
HETATM    8  C   LIG     1      -0.873   1.305   3.751  1.00  0.00     0.059 A 
HETATM    9  C   LIG     1      -0.179  -0.470   2.242  1.00  0.00     0.019 A 
HETATM   10  C   LIG     1      -0.807  -0.043   3.419  1.00  0.00     0.033 A 
HETATM   11  C   LIG     1      -0.885   3.945   4.281  1.00  0.00     0.105 A 
HETATM   12  C   LIG     1      -1.441   3.032   5.154  1.00  0.00     0.105 A 
ENDROOT
BRANCH   1  13
HETATM   13  C   LIG     1       1.044  -0.015   0.118  1.00  0.00     0.253 C 
HETATM   14  N   LIG     1       2.138   0.673  -0.428  1.00  0.00    -0.357 N 
HETATM   15  C   LIG     1       2.697   0.191  -1.682  1.00  0.00     0.152 C 
HETATM   16  C   LIG     1       2.850   1.790   0.177  1.00  0.00     0.152 C 
HETATM   17  O   LIG     1       0.594  -1.040  -0.383  1.00  0.00    -0.267 OA
ENDBRANCH   1  13
TORSDOF 1
