REMARK  2 active torsions:
REMARK  status: ('A' for Active; 'I' for Inactive)
REMARK    1  A    between atoms: C_1  and  S_2 
REMARK    2  A    between atoms: S_2  and  N_8 
ROOT
HETATM    1  C   LIG     1      -0.480  -0.954  -0.036  1.00  0.00     0.161 A 
HETATM    2  N   LIG     1       0.842  -0.691  -0.365  1.00  0.00    -0.335 N 
ATOM      3  HN  LIG     1       1.548  -1.365  -0.661  1.00  0.00     0.168 HD
HETATM    4  C   LIG     1      -1.132   0.213   0.293  1.00  0.00     0.135 A 
HETATM    5  C   LIG     1       0.996   0.609  -0.216  1.00  0.00     0.079 A 
HETATM    6  N   LIG     1      -0.191   1.195   0.160  1.00  0.00    -0.348 N 
HETATM    7  C   LIG     1      -0.412   2.601   0.388  1.00  0.00     0.156 C 
HETATM    8  C   LIG     1       2.264   1.358  -0.407  1.00  0.00     0.089 C 
ENDROOT
BRANCH   1   9
HETATM    9  S   LIG     1      -1.164  -2.561  -0.012  1.00  0.00     0.260 S 
HETATM   10  O   LIG     1      -1.516  -2.764   1.376  1.00  0.00    -0.204 OA
HETATM   11  O   LIG     1      -2.177  -2.531  -1.055  1.00  0.00    -0.204 OA
BRANCH   9  12
HETATM   12  N   LIG     1       0.045  -3.693  -0.439  1.00  0.00    -0.213 NA
HETATM   13  C   LIG     1       0.467  -3.642  -1.851  1.00  0.00     0.129 C 
HETATM   14  C   LIG     1       1.187  -3.740   0.497  1.00  0.00     0.129 C 
ENDBRANCH   9  12
ENDBRANCH   1   9
TORSDOF 2
