REMARK  0 active torsions:
REMARK  status: ('A' for Active; 'I' for Inactive)
ROOT
HETATM    1  N   LIG     1       1.393   0.153  -0.003  1.00  0.00    -0.352 N 
ATOM      2  HN  LIG     1       2.411   0.224  -0.003  1.00  0.00     0.166 HD
HETATM    3  N   LIG     1      -1.432  -0.076  -0.001  1.00  0.00    -0.365 N 
ATOM      4  HN  LIG     1      -2.450  -0.145  -0.004  1.00  0.00     0.165 HD
HETATM    5  C   LIG     1       0.601   1.237   0.056  1.00  0.00     0.131 A 
HETATM    6  C   LIG     1      -0.786   1.115   0.070  1.00  0.00     0.133 A 
HETATM    7  C   LIG     1      -0.632  -1.165  -0.068  1.00  0.00     0.020 A 
HETATM    8  C   LIG     1       0.754  -1.042  -0.062  1.00  0.00     0.114 A 
HETATM    9  N   LIG     1       1.239   2.474   0.131  1.00  0.00    -0.081 NA
HETATM   10  C   LIG     1      -1.279  -2.512  -0.136  1.00  0.00     0.069 C 
ENDROOT
TORSDOF 0
