REMARK  2 active torsions:
REMARK  status: ('A' for Active; 'I' for Inactive)
REMARK    1  A    between atoms: S_1  and  C_2 
REMARK    2  A    between atoms: S_1  and  N_3 
ROOT
HETATM    1  S   LIG     1       1.173  -0.233   0.278  1.00  0.00     0.250 S 
HETATM    2  O   LIG     1       2.085  -0.593   1.345  1.00  0.00    -0.205 OA
HETATM    3  O   LIG     1       1.622  -0.140  -1.092  1.00  0.00    -0.205 OA
ENDROOT
BRANCH   1   4
HETATM    4  C   LIG     1       0.592   1.396   0.706  1.00  0.00     0.115 A 
HETATM    5  S   LIG     1      -0.611   2.056  -0.318  1.00  0.00    -0.089 SA
HETATM    6  C   LIG     1      -0.749   3.464   0.645  1.00  0.00     0.051 A 
HETATM    7  C   LIG     1       0.121   3.448   1.712  1.00  0.00     0.009 A 
HETATM    8  C   LIG     1       0.904   2.256   1.742  1.00  0.00     0.033 A 
ENDBRANCH   1   4
BRANCH   1   9
HETATM    9  N   LIG     1      -0.162  -1.282   0.349  1.00  0.00    -0.202 NA
HETATM   10  C   LIG     1      -0.743  -1.542   1.701  1.00  0.00     0.134 C 
HETATM   11  C   LIG     1      -0.011  -2.679   2.428  1.00  0.00     0.183 C 
HETATM   12  O   LIG     1       0.030  -3.871   1.631  1.00  0.00    -0.389 OA
HETATM   13  C   LIG     1       0.701  -3.624   0.386  1.00  0.00     0.183 C 
HETATM   14  C   LIG     1      -0.032  -2.553  -0.424  1.00  0.00     0.134 C 
ENDBRANCH   1   9
TORSDOF 2
