REMARK  2 active torsions:
REMARK  status: ('A' for Active; 'I' for Inactive)
REMARK    1  A    between atoms: C_4  and  N_15 
REMARK    2  A    between atoms: C_5  and  C_8 
ROOT
HETATM    1  C   LIG     1       0.293  -0.759   0.041  1.00  0.00     0.046 A 
HETATM    2  N   LIG     1       2.430   0.032   0.050  1.00  0.00    -0.244 N 
ATOM      3  HN  LIG     1       3.449   0.081   0.064  1.00  0.00     0.196 HD
HETATM    4  C   LIG     1       1.677  -1.070   0.066  1.00  0.00     0.132 A 
HETATM    5  C   LIG     1      -0.931  -1.456   0.047  1.00  0.00     0.034 A 
HETATM    6  O   LIG     1       1.543   1.096   0.011  1.00  0.00    -0.235 OA
HETATM    7  C   LIG     1      -2.137  -0.724   0.011  1.00  0.00     0.049 A 
HETATM    8  C   LIG     1       0.269   0.624   0.006  1.00  0.00     0.113 A 
HETATM    9  C   LIG     1      -2.101   0.683  -0.027  1.00  0.00     0.019 A 
HETATM   10  C   LIG     1      -0.892   1.390  -0.030  1.00  0.00     0.041 A 
ENDROOT
BRANCH   7  11
HETATM   11  C   LIG     1      -3.471  -1.437   0.020  1.00  0.00     0.417 C 
HETATM   12  F   LIG     1      -3.361  -2.794  -0.005  1.00  0.00    -0.166 F 
HETATM   13  F   LIG     1      -4.210  -1.140   1.123  1.00  0.00    -0.166 F 
HETATM   14  F   LIG     1      -4.244  -1.106  -1.051  1.00  0.00    -0.166 F 
ENDBRANCH   7  11
BRANCH   4  15
HETATM   15  N   LIG     1       2.168  -2.323   0.094  1.00  0.00    -0.383 N 
ATOM     16  HN2 LIG     1       1.593  -3.165   0.106  1.00  0.00     0.157 HD
ATOM     17  HN1 LIG     1       3.163  -2.547   0.112  1.00  0.00     0.157 HD
ENDBRANCH   4  15
TORSDOF 2
