REMARK  1 active torsions:
REMARK  status: ('A' for Active; 'I' for Inactive)
REMARK    1  A    between atoms: C_1  and  C_3 
REMARK       I    between atoms: C_3  and  N_7 
ROOT
HETATM    1  C   LIG     1       1.195  -1.030  -1.128  1.00  0.00     0.120 A 
HETATM    2  N   LIG     1       0.424   0.109  -1.140  1.00  0.00    -0.291 N 
HETATM    3  N   LIG     1       0.969   1.128  -1.833  1.00  0.00    -0.303 N 
ATOM      4  HN  LIG     1       0.561   2.042  -2.027  1.00  0.00     0.186 HD
HETATM    5  C   LIG     1       2.365  -0.658  -1.769  1.00  0.00     0.063 A 
HETATM    6  C   LIG     1       2.165   0.668  -2.207  1.00  0.00     0.024 A 
HETATM    7  C   LIG     1      -0.881   0.288  -0.544  1.00  0.00     0.178 C 
HETATM    8  C   LIG     1       3.096   1.533  -2.971  1.00  0.00     0.070 C 
ENDROOT
BRANCH   1   9
HETATM    9  C   LIG     1       0.816  -2.260  -0.469  1.00  0.00     0.272 C 
HETATM   10  N   LIG     1       1.278  -3.472  -0.994  1.00  0.00    -0.343 N 
HETATM   11  C   LIG     1       0.922  -4.690  -0.258  1.00  0.00     0.152 C 
HETATM   12  C   LIG     1       1.462  -3.703  -2.433  1.00  0.00     0.152 C 
HETATM   13  C   LIG     1       1.862  -5.849  -0.599  1.00  0.00     0.187 C 
HETATM   14  O   LIG     1       1.933  -6.065  -2.016  1.00  0.00    -0.388 OA
HETATM   15  C   LIG     1       2.404  -4.885  -2.682  1.00  0.00     0.187 C 
HETATM   16  O   LIG     1       0.117  -2.246   0.546  1.00  0.00    -0.266 OA
ENDBRANCH   1   9
TORSDOF 1
