REMARK  3 active torsions:
REMARK  status: ('A' for Active; 'I' for Inactive)
REMARK       I    between atoms: N_1  and  C_2 
REMARK    1  A    between atoms: C_2  and  C_3 
REMARK    2  A    between atoms: C_3  and  S_5 
REMARK    3  A    between atoms: S_5  and  C_6 
ROOT
HETATM    1  N   LIG     1      -0.301   3.547   0.720  1.00  0.00    -0.351 N 
HETATM    2  C   LIG     1       0.796   3.072  -0.007  1.00  0.00     0.229 C 
HETATM    3  O   LIG     1       1.803   2.660   0.573  1.00  0.00    -0.273 OA
HETATM    4  C   LIG     1      -0.200   3.542   2.182  1.00  0.00     0.125 C 
HETATM    5  C   LIG     1      -1.377   4.387   0.188  1.00  0.00     0.125 C 
HETATM    6  C   LIG     1      -2.728   4.041   0.813  1.00  0.00     0.020 C 
HETATM    7  C   LIG     1      -1.527   3.139   2.822  1.00  0.00     0.020 C 
HETATM    8  C   LIG     1      -2.664   4.031   2.337  1.00  0.00     0.003 C 
ENDROOT
BRANCH   2   9
HETATM    9  C   LIG     1       0.663   2.952  -1.528  1.00  0.00     0.182 C 
BRANCH   9  10
HETATM   10  S   LIG     1       2.268   3.200  -2.364  1.00  0.00    -0.121 SA
BRANCH  10  11
HETATM   11  C   LIG     1       1.740   2.972  -4.051  1.00  0.00     0.001 A 
HETATM   12  C   LIG     1       1.371   4.077  -4.824  1.00  0.00     0.018 A 
HETATM   13  C   LIG     1       0.983   3.908  -6.155  1.00  0.00     0.001 A 
HETATM   14  C   LIG     1       0.967   2.634  -6.720  1.00  0.00     0.000 A 
HETATM   15  C   LIG     1       1.337   1.528  -5.955  1.00  0.00     0.001 A 
HETATM   16  C   LIG     1       1.724   1.697  -4.623  1.00  0.00     0.018 A 
ENDBRANCH  10  11
ENDBRANCH   9  10
ENDBRANCH   2   9
TORSDOF 3
