REMARK  1 active torsions:
REMARK  status: ('A' for Active; 'I' for Inactive)
REMARK       I    between atoms: C_1  and  N_2 
REMARK    1  A    between atoms: C_1  and  C_3 
ROOT
HETATM    1  C   LIG     1       0.580   0.396  -0.324  1.00  0.00     0.248 C 
HETATM    2  N   LIG     1       1.898   0.355  -0.736  1.00  0.00    -0.350 N 
HETATM    3  O   LIG     1      -0.157   1.341  -0.619  1.00  0.00    -0.270 OA
HETATM    4  C   LIG     1       2.482   1.417  -1.536  1.00  0.00     0.126 C 
HETATM    5  C   LIG     1       2.870  -0.691  -0.455  1.00  0.00     0.126 C 
HETATM    6  C   LIG     1       4.206  -0.076  -0.847  1.00  0.00     0.021 C 
HETATM    7  C   LIG     1       3.826   0.861  -1.986  1.00  0.00     0.021 C 
ENDROOT
BRANCH   1   8
HETATM    8  C   LIG     1       0.090  -0.793   0.546  1.00  0.00     0.213 C 
HETATM    9  O   LIG     1       0.233  -2.074  -0.071  1.00  0.00    -0.376 OA
HETATM   10  C   LIG     1      -0.688  -2.283  -1.142  1.00  0.00     0.168 C 
HETATM   11  C   LIG     1      -2.116  -2.262  -0.623  1.00  0.00     0.026 C 
HETATM   12  C   LIG     1      -2.409  -0.932   0.057  1.00  0.00     0.005 C 
HETATM   13  C   LIG     1      -1.334  -0.605   1.089  1.00  0.00     0.042 C 
ENDBRANCH   1   8
TORSDOF 1
