REMARK  1 active torsions:
REMARK  status: ('A' for Active; 'I' for Inactive)
REMARK    1  A    between atoms: C_1  and  C_2 
REMARK       I    between atoms: C_1  and  N_4 
ROOT
HETATM    1  C   LIG     1      -0.746   0.222  -0.352  1.00  0.00     0.270 C 
HETATM    2  N   LIG     1      -1.012   1.395  -1.067  1.00  0.00    -0.343 N 
HETATM    3  O   LIG     1      -0.026   0.238   0.645  1.00  0.00    -0.266 OA
HETATM    4  O   LIG     1      -1.152   3.849  -2.534  1.00  0.00    -0.388 OA
HETATM    5  C   LIG     1      -0.464   2.638  -0.520  1.00  0.00     0.152 C 
HETATM    6  C   LIG     1      -1.118   1.402  -2.532  1.00  0.00     0.152 C 
HETATM    7  C   LIG     1      -1.809   2.674  -3.031  1.00  0.00     0.187 C 
HETATM    8  C   LIG     1      -1.175   3.864  -1.099  1.00  0.00     0.187 C 
ENDROOT
BRANCH   1   9
HETATM    9  C   LIG     1      -1.373  -1.008  -0.812  1.00  0.00     0.102 A 
HETATM   10  N   LIG     1      -0.799  -2.262  -0.712  1.00  0.00    -0.357 N 
HETATM   11  C   LIG     1      -1.653  -3.214  -1.207  1.00  0.00     0.091 A 
HETATM   12  C   LIG     1       0.520  -2.544  -0.184  1.00  0.00     0.156 C 
HETATM   13  C   LIG     1      -2.814  -2.587  -1.592  1.00  0.00     0.020 A 
HETATM   14  C   LIG     1      -2.648  -1.209  -1.326  1.00  0.00     0.037 A 
ENDBRANCH   1   9
TORSDOF 1
