REMARK  2 active torsions:
REMARK  status: ('A' for Active; 'I' for Inactive)
REMARK    1  A    between atoms: C_1  and  S_2 
REMARK    2  A    between atoms: S_2  and  N_7 
ROOT
HETATM    1  S   LIG     1      -0.617  -2.446   0.212  1.00  0.00     0.269 S 
HETATM    2  O   LIG     1      -1.351  -2.060  -0.973  1.00  0.00    -0.200 OA
HETATM    3  O   LIG     1       0.611  -3.206   0.114  1.00  0.00    -0.200 OA
ENDROOT
BRANCH   1   4
HETATM    4  C   LIG     1      -0.169  -0.926   0.992  1.00  0.00     0.144 A 
HETATM    5  S   LIG     1      -1.452   0.148   1.363  1.00  0.00    -0.062 SA
HETATM    6  C   LIG     1      -0.324   1.266   2.009  1.00  0.00     0.048 A 
HETATM    7  N   LIG     1       0.932   0.875   1.990  1.00  0.00    -0.356 N 
HETATM    8  C   LIG     1      -0.779   2.572   2.559  1.00  0.00     0.076 C 
HETATM    9  C   LIG     1       1.034  -0.378   1.400  1.00  0.00     0.036 A 
ATOM     10  HN  LIG     1       1.717   1.414   2.356  1.00  0.00     0.166 HD
HETATM   11  C   LIG     1       2.381  -0.993   1.280  1.00  0.00     0.070 C 
ENDBRANCH   1   4
BRANCH   1  12
HETATM   12  N   LIG     1      -1.669  -3.273   1.262  1.00  0.00    -0.306 N 
HETATM   13  C   LIG     1      -1.109  -3.764   2.545  1.00  0.00     0.135 C 
HETATM   14  C   LIG     1      -0.485  -5.151   2.403  1.00  0.00     0.021 C 
HETATM   15  C   LIG     1      -1.434  -6.141   1.735  1.00  0.00     0.003 C 
HETATM   16  C   LIG     1      -1.971  -5.582   0.421  1.00  0.00     0.021 C 
HETATM   17  C   LIG     1      -2.619  -4.222   0.638  1.00  0.00     0.135 C 
ENDBRANCH   1  12
TORSDOF 2
