REMARK  1 active torsions:
REMARK  status: ('A' for Active; 'I' for Inactive)
REMARK    1  A    between atoms: C_2  and  C_4 
REMARK       I    between atoms: C_4  and  N_9 
ROOT
HETATM    1  C   LIG     1      -0.393   0.414   0.129  1.00  0.00     0.092 A 
HETATM    2  C   LIG     1       0.579   1.406   0.056  1.00  0.00     0.065 A 
HETATM    3  O   LIG     1      -1.739   0.622   0.312  1.00  0.00    -0.339 OA
HETATM    4  C   LIG     1      -0.063  -0.931   0.031  1.00  0.00    -0.021 A 
HETATM    5  C   LIG     1      -2.367  -0.682   0.157  1.00  0.00     0.064 C 
HETATM    6  C   LIG     1      -1.273  -1.770   0.189  1.00  0.00     0.079 C 
HETATM    7  C   LIG     1       1.911   0.998  -0.124  1.00  0.00     0.020 A 
HETATM    8  C   LIG     1       1.250  -1.340  -0.141  1.00  0.00     0.010 A 
HETATM    9  C   LIG     1       2.242  -0.364  -0.222  1.00  0.00     0.002 A 
HETATM   10  C   LIG     1      -3.121  -0.677  -1.177  1.00  0.00     0.046 C 
HETATM   11  C   LIG     1      -3.353  -0.856   1.314  1.00  0.00     0.046 C 
ENDROOT
BRANCH   2  12
HETATM   12  C   LIG     1       0.296   2.864   0.155  1.00  0.00     0.252 C 
HETATM   13  O   LIG     1       1.191   3.698   0.090  1.00  0.00    -0.268 OA
HETATM   14  N   LIG     1      -1.002   3.251   0.320  1.00  0.00    -0.366 N 
ATOM     15  HN2 LIG     1      -1.747   2.557   0.374  1.00  0.00     0.159 HD
ATOM     16  HN1 LIG     1      -1.196   4.250   0.388  1.00  0.00     0.159 HD
ENDBRANCH   2  12
TORSDOF 1
