REMARK  3 active torsions:
REMARK  status: ('A' for Active; 'I' for Inactive)
REMARK    1  A    between atoms: C_1  and  C_2 
REMARK       I    between atoms: C_2  and  N_7 
REMARK    2  A    between atoms: C_3  and  O_4 
REMARK    3  A    between atoms: O_4  and  C_9 
ROOT
HETATM    1  C   LIG     1      -0.964   0.831  -0.802  1.00  0.00     0.065 A 
HETATM    2  C   LIG     1      -0.582  -0.146   0.146  1.00  0.00     0.085 A 
HETATM    3  C   LIG     1      -0.118   1.935  -1.048  1.00  0.00     0.020 A 
HETATM    4  C   LIG     1       0.626   0.037   0.840  1.00  0.00     0.038 A 
HETATM    5  C   LIG     1       1.077   2.099  -0.354  1.00  0.00     0.001 A 
HETATM    6  C   LIG     1       1.447   1.149   0.591  1.00  0.00     0.003 A 
ENDROOT
BRANCH   2   7
HETATM    7  O   LIG     1      -1.414  -1.185   0.520  1.00  0.00    -0.345 OA
BRANCH   7   8
HETATM    8  C   LIG     1      -0.930  -2.510   0.183  1.00  0.00     0.133 C 
HETATM    9  C   LIG     1      -1.964  -3.192  -0.719  1.00  0.00     0.058 C 
HETATM   10  C   LIG     1      -3.211  -3.592   0.059  1.00  0.00     0.170 C 
HETATM   11  O   LIG     1      -2.877  -4.492   1.111  1.00  0.00    -0.391 OA
HETATM   12  C   LIG     1      -1.977  -3.938   2.064  1.00  0.00     0.170 C 
HETATM   13  C   LIG     1      -0.699  -3.405   1.417  1.00  0.00     0.058 C 
ENDBRANCH   7   8
ENDBRANCH   2   7
BRANCH   1  14
HETATM   14  C   LIG     1      -2.232   0.835  -1.587  1.00  0.00     0.254 C 
HETATM   15  O   LIG     1      -2.263   1.366  -2.707  1.00  0.00    -0.268 OA
HETATM   16  N   LIG     1      -3.348   0.324  -0.979  1.00  0.00    -0.361 N 
HETATM   17  C   LIG     1      -4.652   0.475  -1.572  1.00  0.00     0.149 C 
ATOM     18  HN  LIG     1      -3.254  -0.171  -0.092  1.00  0.00     0.162 HD
ENDBRANCH   1  14
TORSDOF 3
