REMARK  1 active torsions:
REMARK  status: ('A' for Active; 'I' for Inactive)
REMARK    1  A    between atoms: C_4  and  O_6 
ROOT
HETATM    1  N   LIG     1       0.897   0.033   0.359  1.00  0.00    -0.326 N 
ATOM      2  HN  LIG     1       1.842  -0.141   0.702  1.00  0.00     0.169 HD
HETATM    3  C   LIG     1      -0.006  -0.956   0.258  1.00  0.00     0.118 A 
HETATM    4  C   LIG     1       0.498   1.269  -0.014  1.00  0.00     0.142 A 
HETATM    5  N   LIG     1       0.421  -2.231   0.625  1.00  0.00    -0.083 NA
HETATM    6  C   LIG     1      -1.686   0.524  -0.590  1.00  0.00     0.008 A 
HETATM    7  C   LIG     1      -1.297  -0.758  -0.215  1.00  0.00     0.045 A 
HETATM    8  C   LIG     1      -0.771   1.563  -0.486  1.00  0.00     0.056 A 
ENDROOT
BRANCH   4   9
HETATM    9  O   LIG     1       1.375   2.333   0.070  1.00  0.00    -0.341 OA
HETATM   10  C   LIG     1       2.669   1.953   0.526  1.00  0.00     0.211 C 
ENDBRANCH   4   9
TORSDOF 1
