REMARK  1 active torsions:
REMARK  status: ('A' for Active; 'I' for Inactive)
REMARK       I    between atoms: C_1  and  N_2 
REMARK    1  A    between atoms: C_1  and  C_4 
ROOT
HETATM    1  C   LIG     1       1.378  -0.110   1.457  1.00  0.00     0.224 C 
HETATM    2  N   LIG     1       0.238   0.707   1.492  1.00  0.00    -0.352 N 
HETATM    3  O   LIG     1       1.288  -1.338   1.461  1.00  0.00    -0.273 OA
HETATM    4  C   LIG     1      -1.032   0.001   1.686  1.00  0.00     0.125 C 
HETATM    5  C   LIG     1       0.284   2.088   1.983  1.00  0.00     0.125 C 
HETATM    6  C   LIG     1      -0.935   2.912   1.579  1.00  0.00     0.020 C 
HETATM    7  C   LIG     1      -2.249   0.822   1.274  1.00  0.00     0.020 C 
HETATM    8  C   LIG     1      -2.233   2.197   1.927  1.00  0.00     0.003 C 
ENDROOT
BRANCH   1   9
HETATM    9  C   LIG     1       2.750   0.568   1.350  1.00  0.00     0.082 C 
HETATM   10  C   LIG     1       2.954   1.152  -0.053  1.00  0.00     0.040 C 
HETATM   11  C   LIG     1       3.328   0.074  -1.064  1.00  0.00     0.168 C 
HETATM   12  O   LIG     1       4.485  -0.634  -0.628  1.00  0.00    -0.391 OA
HETATM   13  C   LIG     1       4.236  -1.356   0.577  1.00  0.00     0.168 C 
HETATM   14  C   LIG     1       3.893  -0.396   1.709  1.00  0.00     0.040 C 
ENDBRANCH   1   9
TORSDOF 1
