REMARK  3 active torsions:
REMARK  status: ('A' for Active; 'I' for Inactive)
REMARK    1  A    between atoms: S_1  and  C_4 
REMARK    2  A    between atoms: S_1  and  C_5 
REMARK    3  A    between atoms: C_3  and  C_5 
ROOT
HETATM    1  C   LIG     1       0.308  -1.346   1.702  1.00  0.00     0.001 A 
HETATM    2  C   LIG     1      -0.614  -3.091   3.710  1.00  0.00    -0.062 A 
HETATM    3  C   LIG     1       0.816  -2.644   1.798  1.00  0.00     0.019 A 
HETATM    4  C   LIG     1      -0.657  -0.922   2.619  1.00  0.00     0.019 A 
HETATM    5  C   LIG     1       0.351  -3.513   2.790  1.00  0.00     0.008 A 
HETATM    6  C   LIG     1      -1.122  -1.791   3.611  1.00  0.00     0.008 A 
HETATM    7  C   LIG     1      -1.112  -4.035   4.764  1.00  0.00     0.048 C 
ENDROOT
BRANCH   1   8
HETATM    8  S   LIG     1       0.900  -0.206   0.463  1.00  0.00    -0.123 SA
BRANCH   8   9
HETATM    9  C   LIG     1       0.458  -1.128  -1.040  1.00  0.00     0.157 C 
BRANCH   9  10
HETATM   10  C   LIG     1       0.875  -0.370  -2.282  1.00  0.00     0.132 C 
HETATM   11  O   LIG     1       1.690  -0.841  -3.080  1.00  0.00    -0.298 OA
HETATM   12  C   LIG     1       0.228   0.970  -2.543  1.00  0.00     0.091 C 
ENDBRANCH   9  10
ENDBRANCH   8   9
ENDBRANCH   1   8
TORSDOF 3
