REMARK  2 active torsions:
REMARK  status: ('A' for Active; 'I' for Inactive)
REMARK       I    between atoms: C_1  and  N_2 
REMARK    1  A    between atoms: C_1  and  C_5 
REMARK    2  A    between atoms: N_2  and  C_8 
ROOT
HETATM    1  C   LIG     1       1.930  -0.140  -0.402  1.00  0.00     0.256 C 
HETATM    2  N   LIG     1       1.420  -1.406  -0.173  1.00  0.00    -0.323 N 
ATOM      3  HN  LIG     1       1.903  -1.971   0.526  1.00  0.00     0.169 HD
HETATM    4  O   LIG     1       1.502   0.680  -1.208  1.00  0.00    -0.267 OA
ENDROOT
BRANCH   2   5
HETATM    5  C   LIG     1       0.303  -2.002  -0.801  1.00  0.00     0.037 A 
HETATM    6  C   LIG     1      -0.487  -1.367  -1.753  1.00  0.00     0.046 A 
HETATM    7  C   LIG     1      -1.558  -2.062  -2.294  1.00  0.00     0.090 A 
HETATM    8  N   LIG     1      -1.888  -3.325  -1.952  1.00  0.00    -0.375 N 
HETATM    9  C   LIG     1      -1.109  -3.920  -1.029  1.00  0.00     0.090 A 
ATOM     10  HN  LIG     1      -2.686  -3.804  -2.371  1.00  0.00     0.164 HD
HETATM   11  C   LIG     1      -0.017  -3.310  -0.432  1.00  0.00     0.046 A 
ENDBRANCH   2   5
BRANCH   1  12
HETATM   12  C   LIG     1       3.139   0.222   0.398  1.00  0.00     0.032 A 
HETATM   13  C   LIG     1       4.046   1.139  -0.153  1.00  0.00     0.017 A 
HETATM   14  C   LIG     1       5.186   1.518   0.558  1.00  0.00     0.001 A 
HETATM   15  C   LIG     1       5.424   0.989   1.825  1.00  0.00     0.000 A 
HETATM   16  C   LIG     1       4.523   0.083   2.385  1.00  0.00     0.001 A 
HETATM   17  C   LIG     1       3.380  -0.300   1.676  1.00  0.00     0.017 A 
ENDBRANCH   1  12
TORSDOF 2
