REMARK  1 active torsions:
REMARK  status: ('A' for Active; 'I' for Inactive)
REMARK    1  A    between atoms: C_6  and  O_8 
ROOT
HETATM    1  N   LIG     1       2.386  -0.025   0.001  1.00  0.00    -0.238 N 
ATOM      2  HN  LIG     1       3.406  -0.001   0.001  1.00  0.00     0.197 HD
HETATM    3  C   LIG     1       0.224  -0.794  -0.000  1.00  0.00     0.053 A 
HETATM    4  O   LIG     1       1.501   1.055   0.003  1.00  0.00    -0.234 OA
HETATM    5  C   LIG     1       0.214   0.592   0.002  1.00  0.00     0.119 A 
HETATM    6  C   LIG     1       1.592  -1.091  -0.001  1.00  0.00     0.173 A 
HETATM    7  C   LIG     1      -0.945   1.376   0.003  1.00  0.00    -0.025 A 
HETATM    8  C   LIG     1      -0.993  -1.491  -0.001  1.00  0.00     0.019 A 
HETATM    9  C   LIG     1      -2.179  -0.746  -0.000  1.00  0.00     0.002 A 
HETATM   10  C   LIG     1      -2.153   0.654   0.002  1.00  0.00     0.010 A 
HETATM   11  C   LIG     1      -0.919   2.871   0.006  1.00  0.00     0.051 C 
ENDROOT
BRANCH   6  12
HETATM   12  O   LIG     1       2.198  -2.281  -0.003  1.00  0.00    -0.344 OA
ATOM     13  HO  LIG     1       1.631  -3.043  -0.004  1.00  0.00     0.219 HD
ENDBRANCH   6  12
TORSDOF 1
