REMARK  2 active torsions:
REMARK  status: ('A' for Active; 'I' for Inactive)
REMARK    1  A    between atoms: C_1  and  C_4 
REMARK    2  A    between atoms: C_2  and  C_3 
ROOT
HETATM    1  C   LIG     1       0.864   1.179  -0.062  1.00  0.00     0.071 A 
HETATM    2  C   LIG     1       1.530  -0.055  -0.071  1.00  0.00     0.067 A 
HETATM    3  N   LIG     1      -1.281   0.058   0.091  1.00  0.00    -0.374 N 
ATOM      4  HN  LIG     1      -2.299   0.102   0.141  1.00  0.00     0.164 HD
HETATM    5  C   LIG     1      -0.526   1.179   0.002  1.00  0.00     0.106 A 
HETATM    6  C   LIG     1       0.754  -1.223   0.033  1.00  0.00     0.034 A 
HETATM    7  C   LIG     1      -0.625  -1.118   0.111  1.00  0.00     0.088 A 
ENDROOT
BRANCH   2   8
HETATM    8  C   LIG     1       3.023  -0.172  -0.206  1.00  0.00     0.418 C 
HETATM    9  F   LIG     1       3.549   0.643  -1.162  1.00  0.00    -0.166 F 
HETATM   10  F   LIG     1       3.692   0.079   0.951  1.00  0.00    -0.166 F 
HETATM   11  F   LIG     1       3.409  -1.431  -0.572  1.00  0.00    -0.166 F 
ENDBRANCH   2   8
BRANCH   1  12
HETATM   12  C   LIG     1       1.514   2.500  -0.124  1.00  0.00     0.211 C 
HETATM   13  O   LIG     1       1.021   3.512  -0.581  1.00  0.00    -0.644 OA
HETATM   14  O   LIG     1       2.704   2.504   0.489  1.00  0.00    -0.644 OA
ENDBRANCH   1  12
TORSDOF 2
