REMARK  1 active torsions:
REMARK  status: ('A' for Active; 'I' for Inactive)
REMARK    1  A    between atoms: C_1  and  C_2 
ROOT
HETATM    1  C   LIG     1       0.586  -1.341   0.367  1.00  0.00     0.074 A 
HETATM    2  C   LIG     1      -0.576  -1.484   1.136  1.00  0.00     0.076 A 
HETATM    3  N   LIG     1      -0.207  -3.900   1.216  1.00  0.00    -0.373 N 
ATOM      4  HN  LIG     1      -0.504  -4.825   1.528  1.00  0.00     0.164 HD
HETATM    5  N   LIG     1      -1.272  -0.387   1.663  1.00  0.00    -0.100 NA
HETATM    6  C   LIG     1       1.312  -2.491   0.005  1.00  0.00     0.035 A 
HETATM    7  C   LIG     1      -0.882  -2.780   1.564  1.00  0.00     0.114 A 
HETATM    8  C   LIG     1       0.876  -3.730   0.437  1.00  0.00     0.088 A 
ENDROOT
BRANCH   1   9
HETATM    9  C   LIG     1       1.110   0.001  -0.062  1.00  0.00     0.419 C 
HETATM   10  F   LIG     1       0.141   0.955  -0.193  1.00  0.00    -0.166 F 
HETATM   11  F   LIG     1       1.738  -0.041  -1.274  1.00  0.00    -0.166 F 
HETATM   12  F   LIG     1       2.026   0.512   0.807  1.00  0.00    -0.166 F 
ENDBRANCH   1   9
TORSDOF 1
