REMARK  1 active torsions:
REMARK  status: ('A' for Active; 'I' for Inactive)
REMARK    1  A    between atoms: C_1  and  C_7 
ROOT
HETATM    1  C   LIG     1       0.015   1.522  -0.308  1.00  0.00     0.158 C 
HETATM    2  O   LIG     1       0.019  -1.387  -0.167  1.00  0.00    -0.310 OA
HETATM    3  C   LIG     1      -1.240   0.703  -0.117  1.00  0.00    -0.005 A 
HETATM    4  C   LIG     1       1.271   0.707  -0.099  1.00  0.00    -0.005 A 
HETATM    5  C   LIG     1      -1.162  -0.691  -0.079  1.00  0.00     0.083 A 
HETATM    6  C   LIG     1       1.197  -0.687  -0.061  1.00  0.00     0.083 A 
HETATM    7  C   LIG     1      -2.496   1.321  -0.000  1.00  0.00     0.011 A 
HETATM    8  C   LIG     1       2.523   1.330   0.038  1.00  0.00     0.011 A 
HETATM    9  C   LIG     1       2.356  -1.452   0.093  1.00  0.00     0.038 A 
HETATM   10  C   LIG     1      -2.320  -1.460   0.056  1.00  0.00     0.038 A 
HETATM   11  C   LIG     1       3.678   0.564   0.201  1.00  0.00     0.001 A 
HETATM   12  C   LIG     1      -3.651   0.551   0.142  1.00  0.00     0.001 A 
HETATM   13  C   LIG     1       3.595  -0.827   0.225  1.00  0.00     0.003 A 
HETATM   14  C   LIG     1      -3.564  -0.839   0.168  1.00  0.00     0.003 A 
ENDROOT
BRANCH   1  15
HETATM   15  C   LIG     1      -0.003   2.229  -1.657  1.00  0.00     0.186 C 
HETATM   16  O   LIG     1      -0.380   3.379  -1.847  1.00  0.00    -0.647 OA
HETATM   17  O   LIG     1       0.376   1.471  -2.706  1.00  0.00    -0.647 OA
ENDBRANCH   1  15
TORSDOF 1
