REMARK  1 active torsions:
REMARK  status: ('A' for Active; 'I' for Inactive)
REMARK    1  A    between atoms: C_1  and  C_9 
REMARK       I    between atoms: N_5  and  C_7 
ROOT
HETATM    1  C   LIG     1      -2.082  -1.085  -0.166  1.00  0.00    -0.026 A 
HETATM    2  C   LIG     1      -3.133  -0.295   0.263  1.00  0.00     0.096 A 
HETATM    3  N   LIG     1      -2.989   0.954  -0.276  1.00  0.00    -0.365 N 
ATOM      4  HN  LIG     1      -3.621   1.737  -0.110  1.00  0.00     0.165 HD
HETATM    5  C   LIG     1      -1.277  -0.260  -1.024  1.00  0.00    -0.001 A 
HETATM    6  C   LIG     1      -1.871   1.002  -1.074  1.00  0.00     0.042 A 
HETATM    7  C   LIG     1      -0.102  -0.474  -1.774  1.00  0.00     0.014 A 
HETATM    8  C   LIG     1      -1.351   2.058  -1.831  1.00  0.00     0.030 A 
HETATM    9  C   LIG     1       0.431   0.571  -2.539  1.00  0.00     0.001 A 
HETATM   10  C   LIG     1      -0.187   1.818  -2.565  1.00  0.00     0.002 A 
ENDROOT
BRANCH   1  11
HETATM   11  C   LIG     1      -1.842  -2.540   0.157  1.00  0.00     0.024 C 
HETATM   12  C   LIG     1      -2.579  -3.446  -0.840  1.00  0.00     0.029 C 
HETATM   13  C   LIG     1      -2.359  -4.921  -0.525  1.00  0.00     0.126 C 
HETATM   14  N   LIG     1      -2.669  -5.234   0.869  1.00  0.00    -0.352 N 
HETATM   15  C   LIG     1      -2.011  -4.394   1.867  1.00  0.00     0.126 C 
HETATM   16  C   LIG     1      -3.196  -6.452   1.286  1.00  0.00     0.215 C 
HETATM   17  C   LIG     1      -2.239  -2.911   1.594  1.00  0.00     0.029 C 
HETATM   18  O   LIG     1      -3.193  -6.814   2.464  1.00  0.00    -0.274 OA
HETATM   19  C   LIG     1      -3.818  -7.332   0.231  1.00  0.00     0.117 C 
ENDBRANCH   1  11
TORSDOF 1
