REMARK  2 active torsions:
REMARK  status: ('A' for Active; 'I' for Inactive)
REMARK    1  A    between atoms: C_1  and  C_6 
REMARK    2  A    between atoms: C_6  and  C_8 
ROOT
HETATM    1  C   LIG     1      -1.122  -0.996  -0.019  1.00  0.00    -0.020 A 
HETATM    2  N   LIG     1      -1.460   1.208  -0.059  1.00  0.00    -0.365 N 
ATOM      3  HN  LIG     1      -1.936   2.110  -0.090  1.00  0.00     0.165 HD
HETATM    4  C   LIG     1      -2.088  -0.007  -0.053  1.00  0.00     0.097 A 
HETATM    5  C   LIG     1       0.148  -0.333   0.006  1.00  0.00    -0.001 A 
HETATM    6  C   LIG     1      -0.096   1.040  -0.018  1.00  0.00     0.042 A 
HETATM    7  C   LIG     1       1.487  -0.775   0.044  1.00  0.00     0.014 A 
HETATM    8  C   LIG     1       0.929   1.994  -0.003  1.00  0.00     0.030 A 
HETATM    9  C   LIG     1       2.524   0.165   0.062  1.00  0.00     0.001 A 
HETATM   10  C   LIG     1       2.246   1.529   0.039  1.00  0.00     0.002 A 
ENDROOT
BRANCH   1  11
HETATM   11  C   LIG     1      -1.364  -2.472  -0.007  1.00  0.00     0.154 C 
BRANCH  11  12
HETATM   12  C   LIG     1      -1.414  -3.068  -1.394  1.00  0.00     0.177 C 
HETATM   13  O   LIG     1      -1.329  -2.509  -2.474  1.00  0.00    -0.648 OA
HETATM   14  O   LIG     1      -1.594  -4.409  -1.355  1.00  0.00    -0.648 OA
ENDBRANCH  11  12
ENDBRANCH   1  11
TORSDOF 2
