REMARK  1 active torsions:
REMARK  status: ('A' for Active; 'I' for Inactive)
REMARK    1  A    between atoms: C_9  and  O_12 
ROOT
HETATM    1  C   LIG     1      -0.014   0.638   0.011  1.00  0.00     0.092 A 
HETATM    2  C   LIG     1       0.044  -0.759  -0.000  1.00  0.00     0.044 A 
HETATM    3  C   LIG     1      -1.211  -1.529   0.061  1.00  0.00     0.165 C 
HETATM    4  C   LIG     1       1.174   1.389   0.052  1.00  0.00     0.005 A 
HETATM    5  O   LIG     1      -1.197   1.337  -0.010  1.00  0.00    -0.339 OA
HETATM    6  C   LIG     1      -2.360   0.599  -0.433  1.00  0.00     0.067 C 
HETATM    7  C   LIG     1      -2.457  -0.734   0.305  1.00  0.00     0.121 C 
HETATM    8  C   LIG     1       1.271  -1.426  -0.034  1.00  0.00     0.021 A 
HETATM    9  C   LIG     1       2.399   0.703   0.029  1.00  0.00     0.074 A 
HETATM   10  O   LIG     1      -1.212  -2.754  -0.018  1.00  0.00    -0.292 OA
HETATM   11  C   LIG     1       2.454  -0.691  -0.025  1.00  0.00     0.038 A 
HETATM   12  C   LIG     1       1.115   2.890   0.124  1.00  0.00     0.054 C 
HETATM   13  C   LIG     1      -2.357   0.433  -1.963  1.00  0.00     0.046 C 
HETATM   14  C   LIG     1      -3.572   1.462  -0.051  1.00  0.00     0.046 C 
ENDROOT
BRANCH   9  15
HETATM   15  O   LIG     1       3.562   1.420   0.057  1.00  0.00    -0.360 OA
ATOM     16  HO  LIG     1       4.391   0.956   0.041  1.00  0.00     0.217 HD
ENDBRANCH   9  15
TORSDOF 1
