REMARK  2 active torsions:
REMARK  status: ('A' for Active; 'I' for Inactive)
REMARK    1  A    between atoms: C_1  and  C_3 
REMARK    2  A    between atoms: C_3  and  C_4 
ROOT
HETATM    1  C   LIG     1       0.749   2.477  -0.598  1.00  0.00    -0.048 A 
HETATM    2  C   LIG     1       1.215   5.188  -0.126  1.00  0.00     0.116 A 
HETATM    3  F   LIG     1       1.440   6.490   0.098  1.00  0.00    -0.206 F 
HETATM    4  C   LIG     1       2.210   4.262   0.163  1.00  0.00     0.043 A 
HETATM    5  C   LIG     1      -0.009   4.784  -0.643  1.00  0.00     0.043 A 
HETATM    6  C   LIG     1      -0.245   3.429  -0.877  1.00  0.00     0.011 A 
HETATM    7  C   LIG     1       1.978   2.906  -0.070  1.00  0.00     0.011 A 
ENDROOT
BRANCH   1   8
HETATM    8  C   LIG     1       0.491   1.008  -0.839  1.00  0.00     0.151 C 
BRANCH   8   9
HETATM    9  C   LIG     1      -0.118   0.289   0.339  1.00  0.00     0.176 C 
HETATM   10  O   LIG     1      -0.395   0.734   1.440  1.00  0.00    -0.648 OA
HETATM   11  O   LIG     1      -0.354  -1.012   0.061  1.00  0.00    -0.648 OA
ENDBRANCH   8   9
ENDBRANCH   1   8
TORSDOF 2
