REMARK  1 active torsions:
REMARK  status: ('A' for Active; 'I' for Inactive)
REMARK    1  A    between atoms: C_1  and  C_10 
ROOT
HETATM    1  C   LIG     1      -1.861  -1.168  -0.046  1.00  0.00    -0.026 A 
HETATM    2  C   LIG     1      -2.916  -0.316   0.225  1.00  0.00     0.096 A 
HETATM    3  N   LIG     1      -2.576   0.943  -0.190  1.00  0.00    -0.365 N 
ATOM      4  HN  LIG     1      -3.170   1.767  -0.099  1.00  0.00     0.165 HD
HETATM    5  C   LIG     1      -0.845  -0.371  -0.674  1.00  0.00    -0.001 A 
HETATM    6  C   LIG     1      -1.320   0.939  -0.747  1.00  0.00     0.042 A 
HETATM    7  C   LIG     1       0.438  -0.645  -1.193  1.00  0.00     0.014 A 
HETATM    8  C   LIG     1      -0.580   1.986  -1.308  1.00  0.00     0.030 A 
HETATM    9  C   LIG     1       1.192   0.390  -1.759  1.00  0.00     0.001 A 
HETATM   10  C   LIG     1       0.688   1.686  -1.814  1.00  0.00     0.002 A 
ENDROOT
BRANCH   1  11
HETATM   11  C   LIG     1      -1.789  -2.648   0.230  1.00  0.00     0.024 C 
HETATM   12  C   LIG     1      -2.535  -3.456  -0.841  1.00  0.00     0.037 C 
HETATM   13  C   LIG     1      -2.477  -4.951  -0.533  1.00  0.00     0.233 C 
HETATM   14  N   LIG     1      -2.999  -5.257   0.800  1.00  0.00    -0.075 N 
HETATM   15  C   LIG     1      -2.254  -4.537   1.835  1.00  0.00     0.233 C 
ATOM     16  HN2 LIG     1      -3.013  -6.261   0.977  1.00  0.00     0.277 HD
ATOM     17  HN1 LIG     1      -4.001  -5.075   0.862  1.00  0.00     0.277 HD
HETATM   18  C   LIG     1      -2.307  -3.025   1.627  1.00  0.00     0.037 C 
ENDBRANCH   1  11
TORSDOF 1
