REMARK  1 active torsions:
REMARK  status: ('A' for Active; 'I' for Inactive)
REMARK    1  A    between atoms: C_1  and  N_5 
ROOT
HETATM    1  C   LIG     1       1.085  -1.429   0.083  1.00  0.00     0.044 A 
HETATM    2  C   LIG     1      -0.082  -0.634   0.231  1.00  0.00     0.017 A 
HETATM    3  N   LIG     1       1.159   1.310  -0.533  1.00  0.00    -0.359 N 
ATOM      4  HN  LIG     1       1.184   2.300  -0.777  1.00  0.00     0.166 HD
HETATM    5  C   LIG     1       0.020   0.734  -0.121  1.00  0.00     0.044 A 
HETATM    6  C   LIG     1       2.268  -0.801  -0.326  1.00  0.00     0.054 A 
HETATM    7  C   LIG     1       2.270   0.552  -0.617  1.00  0.00     0.007 A 
HETATM    8  C   LIG     1      -1.329  -1.098   0.723  1.00  0.00     0.016 A 
HETATM    9  C   LIG     1      -1.103   1.545  -0.033  1.00  0.00     0.030 A 
HETATM   10  C   LIG     1       3.538   1.227  -1.045  1.00  0.00     0.068 C 
HETATM   11  C   LIG     1      -2.444  -0.261   0.806  1.00  0.00     0.001 A 
HETATM   12  C   LIG     1      -2.333   1.063   0.415  1.00  0.00     0.002 A 
ENDROOT
BRANCH   1  13
HETATM   13  N   LIG     1       1.182  -2.807   0.301  1.00  0.00    -0.377 N 
HETATM   14  C   LIG     1       1.485  -3.218   1.679  1.00  0.00     0.150 C 
HETATM   15  C   LIG     1       2.012  -4.674   1.677  1.00  0.00     0.252 C 
HETATM   16  N   LIG     1       1.114  -5.634   0.995  1.00  0.00    -0.072 N 
HETATM   17  C   LIG     1       0.864  -5.153  -0.384  1.00  0.00     0.252 C 
ATOM     18  HN2 LIG     1       0.251  -5.797   1.514  1.00  0.00     0.277 HD
ATOM     19  HN1 LIG     1       1.474  -6.588   1.016  1.00  0.00     0.277 HD
HETATM   20  C   LIG     1       0.297  -3.713  -0.444  1.00  0.00     0.150 C 
ENDBRANCH   1  13
TORSDOF 1
