REMARK  1 active torsions:
REMARK  status: ('A' for Active; 'I' for Inactive)
REMARK    1  A    between atoms: C_1  and  C_3 
ROOT
HETATM    1  C   LIG     1       0.382   1.566   0.108  1.00  0.00     0.052 C 
HETATM    2  C   LIG     1      -1.094   1.150  -0.176  1.00  0.00     0.027 C 
HETATM    3  C   LIG     1      -1.492   0.042   0.782  1.00  0.00    -0.024 C 
HETATM    4  C   LIG     1      -0.796  -1.051   0.436  1.00  0.00    -0.026 C 
HETATM    5  C   LIG     1       1.161   0.268  -0.315  1.00  0.00     0.029 C 
HETATM    6  C   LIG     1       0.033  -0.687  -0.771  1.00  0.00     0.010 C 
HETATM    7  C   LIG     1      -0.940   0.287  -1.437  1.00  0.00     0.018 C 
HETATM    8  C   LIG     1       0.822   2.773  -0.731  1.00  0.00     0.027 C 
ENDROOT
BRANCH   1   9
HETATM    9  C   LIG     1       0.620   1.926   1.565  1.00  0.00     0.182 C 
HETATM   10  O   LIG     1       1.595   1.639   2.240  1.00  0.00    -0.647 OA
HETATM   11  O   LIG     1      -0.332   2.734   2.075  1.00  0.00    -0.647 OA
ENDBRANCH   1   9
TORSDOF 1
