REMARK  2 active torsions:
REMARK  status: ('A' for Active; 'I' for Inactive)
REMARK    1  A    between atoms: CA_3  and  C_8 
REMARK    2  A    between atoms: O_5  and  C_8 
ROOT
HETATM    1  N   LIG     1       0.986  -0.719   0.274  1.00  0.00    -0.361 N 
ATOM      2  HN  LIG     1       1.814  -1.262   0.518  1.00  0.00     0.165 HD
HETATM    3  CA  LIG     1      -0.238  -1.309   0.170  1.00  0.00     0.033 A 
HETATM    4  C   LIG     1       1.066   0.613   0.043  1.00  0.00     0.005 A 
HETATM    5  C   LIG     1      -1.285   0.765  -0.392  1.00  0.00     0.004 A 
HETATM    6  C   LIG     1      -0.043   1.384  -0.290  1.00  0.00     0.024 A 
HETATM    7  C   LIG     1      -1.388  -0.602  -0.160  1.00  0.00     0.027 A 
HETATM    8  C   LIG     1       2.418   1.251   0.161  1.00  0.00     0.068 C 
ENDROOT
BRANCH   3   9
HETATM    9  C   LIG     1      -0.303  -2.796   0.431  1.00  0.00     0.220 C 
BRANCH   9  10
HETATM   10  O   LIG     1       0.983  -3.317   0.766  1.00  0.00    -0.395 OA
ATOM     11  HO  LIG     1       0.942  -4.252   0.930  1.00  0.00     0.209 HD
ENDBRANCH   9  10
ENDBRANCH   3   9
TORSDOF 2
