REMARK  2 active torsions:
REMARK  status: ('A' for Active; 'I' for Inactive)
REMARK    1  A    between atoms: C_1  and  C_3 
REMARK    2  A    between atoms: C_2  and  C_4 
ROOT
HETATM    1  C   LIG     1       0.564  -1.396  -0.234  1.00  0.00     0.048 A 
HETATM    2  C   LIG     1      -0.329  -4.042  -0.597  1.00  0.00     0.040 A 
HETATM    3  C   LIG     1       1.326  -2.476   0.238  1.00  0.00     0.017 A 
HETATM    4  C   LIG     1      -0.649  -1.657  -0.890  1.00  0.00     0.017 A 
HETATM    5  C   LIG     1      -1.094  -2.970  -1.071  1.00  0.00     0.019 A 
HETATM    6  C   LIG     1       0.883  -3.789   0.058  1.00  0.00     0.019 A 
ENDROOT
BRANCH   1   7
HETATM    7  C   LIG     1       1.027   0.030  -0.046  1.00  0.00     0.417 C 
HETATM    8  F   LIG     1       2.219   0.136   0.606  1.00  0.00    -0.166 F 
HETATM    9  F   LIG     1       0.141   0.773   0.673  1.00  0.00    -0.166 F 
HETATM   10  F   LIG     1       1.190   0.683  -1.230  1.00  0.00    -0.166 F 
ENDBRANCH   1   7
BRANCH   2  11
HETATM   11  C   LIG     1      -0.758  -5.452  -0.763  1.00  0.00     0.209 C 
HETATM   12  O   LIG     1      -0.148  -6.432  -0.377  1.00  0.00    -0.644 OA
HETATM   13  O   LIG     1      -1.934  -5.567  -1.404  1.00  0.00    -0.644 OA
ENDBRANCH   2  11
TORSDOF 2
