REMARK  0 active torsions:
REMARK  status: ('A' for Active; 'I' for Inactive)
ROOT
HETATM    1  C   LIG     1      -1.378  -0.079  -0.027  1.00  0.00     0.143 A 
HETATM    2  C   LIG     1      -0.766   1.168  -0.024  1.00  0.00     0.086 A 
HETATM    3  C   LIG     1      -0.632  -1.269  -0.063  1.00  0.00     0.085 A 
HETATM    4  C   LIG     1       0.762  -1.179  -0.002  1.00  0.00     0.033 A 
HETATM    5  C   LIG     1       0.619   1.230  -0.016  1.00  0.00     0.119 A 
HETATM    6  F   LIG     1      -2.719  -0.143  -0.018  1.00  0.00    -0.204 F 
HETATM    7  N   LIG     1      -1.261  -2.518   0.066  1.00  0.00    -0.099 NA
HETATM    8  C   LIG     1       1.389   0.071   0.002  1.00  0.00     0.044 A 
HETATM    9  F   LIG     1       1.227   2.423  -0.009  1.00  0.00    -0.206 F 
ENDROOT
TORSDOF 0
