REMARK  1 active torsions:
REMARK  status: ('A' for Active; 'I' for Inactive)
REMARK    1  A    between atoms: C_1  and  C_5 
ROOT
HETATM    1  C   LIG     1       1.022  -0.636  -0.005  1.00  0.00     0.119 A 
HETATM    2  N   LIG     1      -0.215  -1.096  -0.005  1.00  0.00    -0.357 N 
ATOM      3  HN  LIG     1      -0.477  -2.082  -0.008  1.00  0.00     0.166 HD
HETATM    4  S   LIG     1       1.179   1.074  -0.001  1.00  0.00    -0.079 SA
HETATM    5  C   LIG     1      -1.101  -0.035  -0.001  1.00  0.00     0.096 A 
HETATM    6  C   LIG     1      -0.529   1.218   0.001  1.00  0.00     0.069 A 
ENDROOT
BRANCH   1   7
HETATM    7  C   LIG     1       2.197  -1.495  -0.009  1.00  0.00     0.179 C 
HETATM    8  O   LIG     1       3.362  -1.091  -0.009  1.00  0.00    -0.291 OA
HETATM    9  C   LIG     1       1.919  -2.980  -0.012  1.00  0.00     0.099 C 
ENDBRANCH   1   7
TORSDOF 1
