REMARK  0 active torsions:
REMARK  status: ('A' for Active; 'I' for Inactive)
ROOT
HETATM    1  C   LIG     1      -0.154  -0.805   0.005  1.00  0.00     0.106 A 
HETATM    2  C   LIG     1       1.134  -1.301   0.038  1.00  0.00     0.066 A 
HETATM    3  C   LIG     1      -0.410   0.544  -0.021  1.00  0.00     0.105 A 
HETATM    4  O   LIG     1      -1.293  -1.550   0.011  1.00  0.00    -0.323 OA
HETATM    5  O   LIG     1      -1.741   0.821  -0.038  1.00  0.00    -0.323 OA
HETATM    6  C   LIG     1      -2.294  -0.511  -0.002  1.00  0.00     0.352 A 
HETATM    7  C   LIG     1       0.606   1.472  -0.003  1.00  0.00     0.041 A 
HETATM    8  C   LIG     1       2.196  -0.390   0.002  1.00  0.00     0.049 A 
HETATM    9  N   LIG     1       3.513  -0.841   0.168  1.00  0.00    -0.102 NA
HETATM   10  C   LIG     1       1.921   0.992   0.031  1.00  0.00     0.029 A 
ENDROOT
TORSDOF 0
