REMARK  1 active torsions:
REMARK  status: ('A' for Active; 'I' for Inactive)
REMARK    1  A    between atoms: C_1  and  C_6 
ROOT
HETATM    1  N   LIG     1       0.760   3.678  -0.312  1.00  0.00    -0.075 N 
ATOM      2  HN1 LIG     1       0.034   4.255   0.112  1.00  0.00     0.277 HD
ATOM      3  HN2 LIG     1       1.267   4.406  -0.815  1.00  0.00     0.277 HD
HETATM    4  C   LIG     1       0.166   0.953   0.613  1.00  0.00     0.090 C 
HETATM    5  C   LIG     1       1.601   3.043   0.704  1.00  0.00     0.233 C 
HETATM    6  C   LIG     1       0.192   2.691  -1.229  1.00  0.00     0.233 C 
HETATM    7  C   LIG     1       0.823   2.007   1.515  1.00  0.00     0.043 C 
HETATM    8  C   LIG     1      -0.645   1.651  -0.487  1.00  0.00     0.043 C 
ENDROOT
BRANCH   4   9
HETATM    9  C   LIG     1       1.206  -0.002   0.057  1.00  0.00     0.177 C 
HETATM   10  O   LIG     1       2.333  -0.185   0.487  1.00  0.00    -0.648 OA
HETATM   11  O   LIG     1       0.751  -0.753  -0.965  1.00  0.00    -0.648 OA
ENDBRANCH   4   9
TORSDOF 1
