REMARK  1 active torsions:
REMARK  status: ('A' for Active; 'I' for Inactive)
REMARK    1  A    between atoms: C_1  and  C_2 
ROOT
HETATM    1  C   LIG     1       0.545  -1.076   0.983  1.00  0.00    -0.051 A 
HETATM    2  C   LIG     1       0.968  -2.413   0.888  1.00  0.00     0.010 A 
HETATM    3  C   LIG     1      -0.327  -0.762   2.040  1.00  0.00     0.010 A 
HETATM    4  C   LIG     1      -0.351  -3.063   2.823  1.00  0.00     0.046 A 
HETATM    5  N   LIG     1      -0.669  -4.002   3.811  1.00  0.00    -0.102 NA
HETATM    6  C   LIG     1      -0.744  -1.735   2.959  1.00  0.00     0.027 A 
HETATM    7  C   LIG     1       0.549  -3.382   1.810  1.00  0.00     0.027 A 
ENDROOT
BRANCH   1   8
HETATM    8  C   LIG     1       0.986  -0.017  -0.043  1.00  0.00    -0.024 C 
HETATM    9  C   LIG     1      -0.020  -0.032  -1.210  1.00  0.00     0.019 C 
HETATM   10  C   LIG     1       2.399  -0.291  -0.607  1.00  0.00     0.019 C 
HETATM   11  C   LIG     1       1.024   1.410   0.553  1.00  0.00     0.019 C 
ENDBRANCH   1   8
TORSDOF 1
