REMARK  3 active torsions:
REMARK  status: ('A' for Active; 'I' for Inactive)
REMARK    1  A    between atoms: C_1  and  C_3 
REMARK    2  A    between atoms: C_2  and  N_8 
REMARK    3  A    between atoms: C_3  and  O_11 
ROOT
HETATM    1  C   LIG     1       0.891  -0.640  -0.070  1.00  0.00     0.106 A 
HETATM    2  C   LIG     1      -0.440  -1.008   0.026  1.00  0.00     0.049 A 
HETATM    3  S   LIG     1       1.044   1.077  -0.007  1.00  0.00    -0.094 SA
HETATM    4  C   LIG     1      -1.317   0.104   0.151  1.00  0.00     0.038 A 
HETATM    5  C   LIG     1      -0.639   1.300   0.144  1.00  0.00     0.053 A 
ENDROOT
BRANCH   1   6
HETATM    6  C   LIG     1       2.060  -1.493  -0.211  1.00  0.00     0.302 C 
HETATM    7  O   LIG     1       2.039  -2.720  -0.304  1.00  0.00    -0.259 OA
BRANCH   6   8
HETATM    8  O   LIG     1       3.210  -0.756  -0.229  1.00  0.00    -0.322 OA
HETATM    9  C   LIG     1       4.417  -1.503  -0.365  1.00  0.00     0.213 C 
ENDBRANCH   6   8
ENDBRANCH   1   6
BRANCH   2  10
HETATM   10  N   LIG     1      -0.895  -2.276   0.009  1.00  0.00    -0.398 N 
ATOM     11  HN2 LIG     1      -0.266  -3.074  -0.081  1.00  0.00     0.156 HD
ATOM     12  HN1 LIG     1      -1.876  -2.547   0.080  1.00  0.00     0.156 HD
ENDBRANCH   2  10
TORSDOF 3
