REMARK  2 active torsions:
REMARK  status: ('A' for Active; 'I' for Inactive)
REMARK    1  A    between atoms: C_1  and  O_2 
REMARK    2  A    between atoms: O_2  and  C_3 
ROOT
HETATM    1  C   LIG     1       1.620   1.131   2.784  1.00  0.00     0.102 A 
HETATM    2  C   LIG     1       1.852   0.364   3.941  1.00  0.00     0.080 A 
HETATM    3  N   LIG     1       1.829  -1.044   3.889  1.00  0.00    -0.100 NA
HETATM    4  C   LIG     1       1.506   2.523   2.881  1.00  0.00     0.039 A 
HETATM    5  C   LIG     1       1.899   0.999   5.187  1.00  0.00     0.029 A 
HETATM    6  C   LIG     1       1.605   3.146   4.128  1.00  0.00     0.003 A 
HETATM    7  C   LIG     1       1.796   2.389   5.277  1.00  0.00     0.002 A 
ENDROOT
BRANCH   1   8
HETATM    8  O   LIG     1       1.498   0.414   1.620  1.00  0.00    -0.253 OA
BRANCH   8   9
HETATM    9  C   LIG     1       1.851   1.079   0.422  1.00  0.00     0.530 C 
HETATM   10  F   LIG     1       3.077   1.638   0.513  1.00  0.00    -0.144 F 
HETATM   11  F   LIG     1       0.945   2.024   0.096  1.00  0.00    -0.144 F 
HETATM   12  F   LIG     1       1.882   0.170  -0.579  1.00  0.00    -0.144 F 
ENDBRANCH   8   9
ENDBRANCH   1   8
TORSDOF 2
