REMARK  2 active torsions:
REMARK  status: ('A' for Active; 'I' for Inactive)
REMARK    1  A    between atoms: N_1  and  C_10 
REMARK    2  A    between atoms: C_9  and  C_10 
ROOT
HETATM    1  N   LIG     1       4.817  -2.257   1.494  1.00  0.00    -0.197 NA
HETATM    2  C   LIG     1       3.712  -1.903   1.527  1.00  0.00     0.060 C 
HETATM    3  C   LIG     1       2.321  -1.446   1.548  1.00  0.00     0.144 C 
ENDROOT
BRANCH   3   4
HETATM    4  C   LIG     1       1.972  -0.774   0.226  1.00  0.00     0.144 C 
BRANCH   4   5
HETATM    5  N   LIG     1       0.598  -0.309   0.204  1.00  0.00    -0.345 N 
HETATM    6  C   LIG     1       0.134   0.928   0.587  1.00  0.00     0.079 A 
HETATM    7  N   LIG     1      -1.174   0.992   0.437  1.00  0.00    -0.355 N 
HETATM    8  C   LIG     1       0.996   2.022   1.102  1.00  0.00     0.089 C 
HETATM    9  C   LIG     1      -1.559  -0.222  -0.062  1.00  0.00     0.106 A 
ATOM     10  HN  LIG     1      -1.777   1.786   0.650  1.00  0.00     0.166 HD
HETATM   11  C   LIG     1      -0.474  -1.050  -0.213  1.00  0.00     0.109 A 
ENDBRANCH   4   5
ENDBRANCH   3   4
TORSDOF 2
