REMARK  2 active torsions:
REMARK  status: ('A' for Active; 'I' for Inactive)
REMARK    1  A    between atoms: C_1  and  O_2 
REMARK    2  A    between atoms: O_2  and  C_3 
ROOT
HETATM    1  C   LIG     1       0.911   2.639  -0.620  1.00  0.00     0.080 A 
HETATM    2  C   LIG     1      -0.060   3.627  -0.840  1.00  0.00     0.063 A 
HETATM    3  C   LIG     1       0.287   4.983  -0.879  1.00  0.00     0.049 A 
HETATM    4  N   LIG     1      -0.718   5.958  -0.941  1.00  0.00    -0.102 NA
HETATM    5  C   LIG     1       2.588   4.363  -0.433  1.00  0.00     0.005 A 
HETATM    6  C   LIG     1       2.240   3.009  -0.455  1.00  0.00     0.037 A 
HETATM    7  C   LIG     1       1.603   5.340  -0.613  1.00  0.00     0.027 A 
ENDROOT
BRANCH   1   8
HETATM    8  O   LIG     1       0.420   1.366  -0.589  1.00  0.00    -0.255 OA
BRANCH   8   9
HETATM    9  C   LIG     1       1.192   0.391   0.092  1.00  0.00     0.530 C 
HETATM   10  F   LIG     1       1.687   0.856   1.260  1.00  0.00    -0.144 F 
HETATM   11  F   LIG     1       2.210  -0.033  -0.689  1.00  0.00    -0.144 F 
HETATM   12  F   LIG     1       0.403  -0.671   0.369  1.00  0.00    -0.144 F 
ENDBRANCH   8   9
ENDBRANCH   1   8
TORSDOF 2
