REMARK  7 active torsions:
REMARK  status: ('A' for Active; 'I' for Inactive)
REMARK    1  A    between atoms: C_1  and  C_6 
REMARK    2  A    between atoms: C_3  and  C_13 
REMARK    3  A    between atoms: C_6  and  N_7 
REMARK    4  A    between atoms: S_8  and  C_13 
REMARK    5  A    between atoms: S_8  and  C_14 
REMARK    6  A    between atoms: N_9  and  C_17 
REMARK    7  A    between atoms: C_14  and  C_17 
ROOT
HETATM    1  C   LIG     1      -1.114  -1.011   0.434  1.00  0.00     0.081 A 
HETATM    2  O   LIG     1       0.081  -0.354   0.425  1.00  0.00    -0.317 OA
HETATM    3  C   LIG     1      -0.189   0.979   0.515  1.00  0.00     0.062 A 
HETATM    4  C   LIG     1      -2.148  -0.100   0.504  1.00  0.00     0.037 A 
HETATM    5  C   LIG     1      -1.553   1.186   0.549  1.00  0.00     0.036 A 
ENDROOT
BRANCH   3   6
HETATM    6  C   LIG     1       0.992   1.878   0.534  1.00  0.00     0.139 C 
BRANCH   6   7
HETATM    7  S   LIG     1       1.572   2.251   2.221  1.00  0.00    -0.161 SA
BRANCH   7   8
HETATM    8  C   LIG     1       1.963   0.562   2.835  1.00  0.00     0.101 C 
BRANCH   8   9
HETATM    9  C   LIG     1       3.038  -0.176   2.025  1.00  0.00     0.239 C 
BRANCH   9  10
HETATM   10  N   LIG     1       4.316   0.541   2.017  1.00  0.00    -0.079 N 
ATOM     11  HN3 LIG     1       4.199   1.499   1.688  1.00  0.00     0.274 HD
ATOM     12  HN2 LIG     1       4.637   0.734   2.966  1.00  0.00     0.274 HD
ATOM     13  HN1 LIG     1       5.030   0.051   1.479  1.00  0.00     0.274 HD
ENDBRANCH   9  10
ENDBRANCH   8   9
ENDBRANCH   7   8
ENDBRANCH   6   7
ENDBRANCH   3   6
BRANCH   1  14
HETATM   14  C   LIG     1      -1.066  -2.499   0.306  1.00  0.00     0.335 C 
BRANCH  14  15
HETATM   15  N   LIG     1      -0.397  -3.193   1.424  1.00  0.00     0.086 N 
HETATM   16  C   LIG     1      -1.104  -3.014   2.692  1.00  0.00     0.309 C 
HETATM   17  C   LIG     1      -0.300  -4.623   1.116  1.00  0.00     0.309 C 
ENDBRANCH  14  15
ENDBRANCH   1  14
TORSDOF 7
