REMARK  1 active torsions:
REMARK  status: ('A' for Active; 'I' for Inactive)
REMARK    1  A    between atoms: C_3  and  O_8 
ROOT
HETATM    1  N   LIG     1      -1.639  -1.117   0.000  1.00  0.00    -0.320 N 
ATOM      2  HN  LIG     1      -1.969  -2.082   0.000  1.00  0.00     0.169 HD
HETATM    3  C   LIG     1      -2.353  -0.024   0.000  1.00  0.00     0.222 A 
HETATM    4  N   LIG     1      -1.602   1.110  -0.000  1.00  0.00    -0.320 N 
ATOM      5  HN  LIG     1      -1.953   2.068   0.000  1.00  0.00     0.169 HD
HETATM    6  C   LIG     1      -0.337  -0.667  -0.000  1.00  0.00     0.062 A 
HETATM    7  C   LIG     1      -0.285   0.726  -0.000  1.00  0.00     0.062 A 
HETATM    8  C   LIG     1       0.862  -1.395  -0.000  1.00  0.00     0.032 A 
HETATM    9  C   LIG     1       0.909   1.450  -0.000  1.00  0.00     0.032 A 
HETATM   10  C   LIG     1       2.075  -0.692  -0.000  1.00  0.00     0.002 A 
HETATM   11  C   LIG     1       2.094   0.705   0.000  1.00  0.00     0.002 A 
ENDROOT
BRANCH   3  12
HETATM   12  O   LIG     1      -3.667  -0.024   0.001  1.00  0.00    -0.332 OA
ATOM     13  HO  LIG     1      -4.187   0.771   0.001  1.00  0.00     0.220 HD
ENDBRANCH   3  12
TORSDOF 1
