REMARK  1 active torsions:
REMARK  status: ('A' for Active; 'I' for Inactive)
REMARK    1  A    between atoms: C_3  and  O_5 
ROOT
HETATM    1  C   LIG     1      -0.779   1.059  -0.141  1.00  0.00     0.063 A 
HETATM    2  C   LIG     1      -1.454  -0.161  -0.048  1.00  0.00     0.049 A 
HETATM    3  C   LIG     1       0.614   1.113  -0.271  1.00  0.00     0.070 A 
HETATM    4  N   LIG     1      -2.832  -0.191   0.203  1.00  0.00    -0.102 NA
HETATM    5  C   LIG     1       0.688  -1.296  -0.107  1.00  0.00     0.005 A 
HETATM    6  C   LIG     1      -0.702  -1.335   0.021  1.00  0.00     0.027 A 
HETATM    7  C   LIG     1       1.346  -0.074  -0.264  1.00  0.00     0.037 A 
ENDROOT
BRANCH   3   8
HETATM    8  O   LIG     1       1.129   2.375  -0.389  1.00  0.00    -0.356 OA
HETATM    9  C   LIG     1       2.540   2.482  -0.531  1.00  0.00     0.210 C 
ENDBRANCH   3   8
TORSDOF 1
