REMARK  1 active torsions:
REMARK  status: ('A' for Active; 'I' for Inactive)
REMARK    1  A    between atoms: C_3  and  O_5 
ROOT
HETATM    1  N   LIG     1       1.183  -0.735  -0.068  1.00  0.00    -0.341 N 
ATOM      2  HN  LIG     1       2.056  -1.262  -0.098  1.00  0.00     0.167 HD
HETATM    3  C   LIG     1      -0.010  -1.343   0.025  1.00  0.00     0.140 A 
HETATM    4  C   LIG     1       1.163   0.619  -0.120  1.00  0.00     0.007 A 
HETATM    5  C   LIG     1      -1.234   0.677   0.022  1.00  0.00     0.006 A 
HETATM    6  C   LIG     1      -1.233  -0.711   0.068  1.00  0.00     0.056 A 
HETATM    7  C   LIG     1      -0.020   1.356  -0.072  1.00  0.00     0.025 A 
HETATM    8  C   LIG     1       2.479   1.323  -0.256  1.00  0.00     0.068 C 
ENDROOT
BRANCH   3   9
HETATM    9  O   LIG     1       0.067  -2.695   0.082  1.00  0.00    -0.346 OA
ATOM     10  HO  LIG     1      -0.777  -3.125   0.148  1.00  0.00     0.219 HD
ENDBRANCH   3   9
TORSDOF 1
