REMARK  2 active torsions:
REMARK  status: ('A' for Active; 'I' for Inactive)
REMARK    1  A    between atoms: C_3  and  O_10 
REMARK    2  A    between atoms: C_4  and  C_9 
ROOT
HETATM    1  N   LIG     1       0.970   0.619  -0.130  1.00  0.00    -0.197 NA
HETATM    2  C   LIG     1       2.108   0.393  -0.126  1.00  0.00     0.063 C 
HETATM    3  C   LIG     1       3.550   0.109  -0.158  1.00  0.00     0.162 C 
ENDROOT
BRANCH   3   4
HETATM    4  C   LIG     1       4.113  -0.230   1.202  1.00  0.00    -0.045 A 
HETATM    5  C   LIG     1       4.616   0.775   2.038  1.00  0.00     0.011 A 
HETATM    6  C   LIG     1       5.134   0.453   3.294  1.00  0.00     0.037 A 
HETATM    7  C   LIG     1       5.155  -0.870   3.741  1.00  0.00     0.068 A 
HETATM    8  C   LIG     1       4.639  -1.872   2.920  1.00  0.00     0.037 A 
HETATM    9  C   LIG     1       4.119  -1.554   1.660  1.00  0.00     0.011 A 
BRANCH   7  10
HETATM   10  O   LIG     1       5.698  -1.048   4.983  1.00  0.00    -0.356 OA
HETATM   11  C   LIG     1       5.744  -2.380   5.479  1.00  0.00     0.210 C 
ENDBRANCH   7  10
ENDBRANCH   3   4
TORSDOF 2
