REMARK  1 active torsions:
REMARK  status: ('A' for Active; 'I' for Inactive)
REMARK    1  A    between atoms: C_1  and  C_4 
ROOT
HETATM    1  C   LIG     1       1.586  -0.157   0.117  1.00  0.00     0.100 A 
HETATM    2  N   LIG     1       0.731  -0.935   0.843  1.00  0.00    -0.360 N 
ATOM      3  HN  LIG     1       1.057  -1.735   1.385  1.00  0.00     0.165 HD
HETATM    4  C   LIG     1       1.139   0.944  -0.622  1.00  0.00     0.035 A 
HETATM    5  N   LIG     1      -0.185   1.280  -0.646  1.00  0.00    -0.366 N 
ATOM      6  HN  LIG     1      -0.525   2.080  -1.180  1.00  0.00     0.165 HD
HETATM    7  C   LIG     1      -0.572  -0.582   0.801  1.00  0.00     0.105 A 
HETATM    8  C   LIG     1      -1.021   0.501   0.073  1.00  0.00     0.105 A 
HETATM    9  C   LIG     1       2.042   1.829  -1.425  1.00  0.00     0.070 C 
ENDROOT
BRANCH   1  10
HETATM   10  C   LIG     1       3.021  -0.571   0.178  1.00  0.00     0.173 C 
HETATM   11  O   LIG     1       3.880  -0.052  -0.531  1.00  0.00    -0.291 OA
HETATM   12  C   LIG     1       3.376  -1.679   1.137  1.00  0.00     0.098 C 
ENDBRANCH   1  10
TORSDOF 1
