REMARK  2 active torsions:
REMARK  status: ('A' for Active; 'I' for Inactive)
REMARK    1  A    between atoms: C_2  and  C_7 
REMARK    2  A    between atoms: C_5  and  C_7 
ROOT
HETATM    1  C   LIG     1      -1.533  -0.214  -0.077  1.00  0.00     0.056 A 
HETATM    2  C   LIG     1      -0.858  -1.437  -0.098  1.00  0.00     0.055 A 
HETATM    3  C   LIG     1      -0.808   0.983  -0.066  1.00  0.00     0.033 A 
HETATM    4  C   LIG     1       0.596   0.969  -0.083  1.00  0.00    -0.046 A 
HETATM    5  C   LIG     1       0.540  -1.458  -0.108  1.00  0.00     0.026 A 
HETATM    6 CL   LIG     1      -3.258  -0.107  -0.076  1.00  0.00    -0.083 Cl
HETATM    7  C   LIG     1       1.263  -0.262  -0.096  1.00  0.00     0.009 A 
HETATM    8 CL   LIG     1      -1.685  -2.954  -0.120  1.00  0.00    -0.083 Cl
ENDROOT
BRANCH   4   9
HETATM    9  C   LIG     1       1.374   2.265  -0.063  1.00  0.00     0.151 C 
BRANCH   9  10
HETATM   10  C   LIG     1       1.673   2.771   1.327  1.00  0.00     0.176 C 
HETATM   11  O   LIG     1       1.349   2.280   2.393  1.00  0.00    -0.648 OA
HETATM   12  O   LIG     1       2.393   3.914   1.301  1.00  0.00    -0.648 OA
ENDBRANCH   9  10
ENDBRANCH   4   9
TORSDOF 2
