REMARK  3 active torsions:
REMARK  status: ('A' for Active; 'I' for Inactive)
REMARK    1  A    between atoms: C_1  and  C_3 
REMARK    2  A    between atoms: C_2  and  C_3 
REMARK    3  A    between atoms: C_4  and  O_7 
ROOT
HETATM    1  C   LIG     1      -0.494  -0.177  -2.035  1.00  0.00    -0.015 A 
HETATM    2  C   LIG     1      -0.940   0.465  -3.194  1.00  0.00     0.072 A 
HETATM    3  C   LIG     1      -0.668  -1.564  -1.931  1.00  0.00     0.010 A 
HETATM    4  C   LIG     1      -1.627  -0.228  -4.189  1.00  0.00     0.037 A 
HETATM    5  C   LIG     1      -1.323  -2.273  -2.939  1.00  0.00     0.001 A 
HETATM    6  C   LIG     1      -1.821  -1.603  -4.056  1.00  0.00     0.003 A 
ENDROOT
BRANCH   1   7
HETATM    7  C   LIG     1       0.175   0.588  -0.920  1.00  0.00     0.154 C 
BRANCH   7   8
HETATM    8  C   LIG     1       1.662   0.764  -1.108  1.00  0.00     0.177 C 
HETATM    9  O   LIG     1       2.500   0.352  -0.320  1.00  0.00    -0.648 OA
HETATM   10  O   LIG     1       1.990   1.473  -2.215  1.00  0.00    -0.648 OA
ENDBRANCH   7   8
ENDBRANCH   1   7
BRANCH   2  11
HETATM   11  O   LIG     1      -0.638   1.791  -3.355  1.00  0.00    -0.360 OA
ATOM     12  HO  LIG     1      -0.941   2.227  -4.143  1.00  0.00     0.217 HD
ENDBRANCH   2  11
TORSDOF 3
