REMARK  3 active torsions:
REMARK  status: ('A' for Active; 'I' for Inactive)
REMARK    1  A    between atoms: C_1  and  C_3 
REMARK    2  A    between atoms: C_2  and  O_8 
REMARK    3  A    between atoms: C_3  and  O_10 
ROOT
HETATM    1  C   LIG     1       0.918  -0.690  -0.132  1.00  0.00     0.113 A 
HETATM    2  C   LIG     1      -0.412  -1.052  -0.035  1.00  0.00     0.089 A 
HETATM    3  S   LIG     1       1.080   1.021   0.016  1.00  0.00    -0.093 SA
HETATM    4  C   LIG     1      -1.291   0.054   0.122  1.00  0.00     0.045 A 
HETATM    5  C   LIG     1      -0.607   1.247   0.160  1.00  0.00     0.053 A 
ENDROOT
BRANCH   1   6
HETATM    6  C   LIG     1       2.126  -1.474  -0.333  1.00  0.00     0.302 C 
HETATM    7  O   LIG     1       3.273  -1.041  -0.339  1.00  0.00    -0.259 OA
BRANCH   6   8
HETATM    8  O   LIG     1       1.822  -2.788  -0.549  1.00  0.00    -0.322 OA
HETATM    9  C   LIG     1       2.949  -3.623  -0.806  1.00  0.00     0.213 C 
ENDBRANCH   6   8
ENDBRANCH   1   6
BRANCH   2  10
HETATM   10  O   LIG     1      -0.826  -2.332  -0.090  1.00  0.00    -0.359 OA
ATOM     11  HO  LIG     1      -1.740  -2.581  -0.023  1.00  0.00     0.217 HD
ENDBRANCH   2  10
TORSDOF 3
