REMARK  2 active torsions:
REMARK  status: ('A' for Active; 'I' for Inactive)
REMARK       I    between atoms: C_1  and  N_6 
REMARK    1  A    between atoms: C_1  and  C_5 
REMARK    2  A    between atoms: N_6  and  C_13 
ROOT
HETATM    1  N   LIG     1      -0.692  -1.779   1.206  1.00  0.00    -0.058 N 
ATOM      2  HN1 LIG     1       0.063  -2.371   0.858  1.00  0.00     0.278 HD
ATOM      3  HN2 LIG     1      -1.318  -1.819   0.401  1.00  0.00     0.278 HD
HETATM    4  C   LIG     1      -0.218  -0.399   1.440  1.00  0.00     0.281 C 
HETATM    5  C   LIG     1      -1.355   0.541   1.854  1.00  0.00     0.082 C 
HETATM    6  C   LIG     1      -2.269  -0.059   2.895  1.00  0.00    -0.048 A 
HETATM    7  C   LIG     1      -1.319  -2.369   2.387  1.00  0.00     0.272 C 
HETATM    8  C   LIG     1      -2.275  -1.450   3.114  1.00  0.00    -0.026 A 
HETATM    9  C   LIG     1      -3.113   0.772   3.642  1.00  0.00     0.008 A 
HETATM   10  C   LIG     1      -3.120  -1.979   4.100  1.00  0.00     0.009 A 
HETATM   11  C   LIG     1      -3.947   0.231   4.617  1.00  0.00     0.001 A 
HETATM   12  C   LIG     1      -3.952  -1.143   4.845  1.00  0.00     0.001 A 
ENDROOT
BRANCH   4  13
HETATM   13  C   LIG     1       1.023  -0.382   2.367  1.00  0.00     0.249 C 
HETATM   14  N   LIG     1       0.792  -0.281   3.723  1.00  0.00    -0.351 N 
ATOM     15  HN  LIG     1      -0.176  -0.175   4.027  1.00  0.00     0.163 HD
HETATM   16  O   LIG     1       2.150  -0.533   1.891  1.00  0.00    -0.271 OA
BRANCH  14  17
HETATM   17  C   LIG     1       1.826  -0.314   4.764  1.00  0.00     0.022 C 
HETATM   18  C   LIG     1       1.135  -0.195   6.137  1.00  0.00     0.037 C 
HETATM   19  C   LIG     1       2.597  -1.643   4.729  1.00  0.00     0.037 C 
HETATM   20  C   LIG     1       2.785   0.874   4.603  1.00  0.00     0.037 C 
ENDBRANCH  14  17
ENDBRANCH   4  13
TORSDOF 2
