REMARK  3 active torsions:
REMARK  status: ('A' for Active; 'I' for Inactive)
REMARK    1  A    between atoms: C_1  and  C_3 
REMARK       I    between atoms: C_1  and  N_4 
REMARK    2  A    between atoms: C_3  and  C_7 
REMARK    3  A    between atoms: C_8  and  O_13 
ROOT
HETATM    1  C   LIG     1       0.476  -0.598  -2.841  1.00  0.00    -0.049 A 
HETATM    2  C   LIG     1       0.911  -0.299  -5.586  1.00  0.00     0.065 A 
HETATM    3  C   LIG     1       0.215   0.626  -3.472  1.00  0.00     0.010 A 
HETATM    4  C   LIG     1       0.973  -1.666  -3.606  1.00  0.00     0.010 A 
HETATM    5  C   LIG     1       1.187  -1.519  -4.978  1.00  0.00     0.037 A 
HETATM    6  C   LIG     1       0.430   0.773  -4.844  1.00  0.00     0.037 A 
ENDROOT
BRANCH   1   7
HETATM    7  C   LIG     1       0.239  -0.763  -1.358  1.00  0.00     0.141 C 
BRANCH   7   8
HETATM    8  C   LIG     1      -0.755  -1.861  -1.024  1.00  0.00     0.219 C 
HETATM    9  O   LIG     1      -0.470  -2.851  -0.365  1.00  0.00    -0.273 OA
HETATM   10  N   LIG     1      -2.029  -1.664  -1.487  1.00  0.00    -0.370 N 
ATOM     11  HN2 LIG     1      -2.697  -2.402  -1.263  1.00  0.00     0.159 HD
ATOM     12  HN1 LIG     1      -2.267  -0.838  -2.037  1.00  0.00     0.159 HD
ENDBRANCH   7   8
ENDBRANCH   1   7
BRANCH   2  13
HETATM   13  O   LIG     1       1.102  -0.111  -6.922  1.00  0.00    -0.361 OA
ATOM     14  HO  LIG     1       0.913   0.722  -7.337  1.00  0.00     0.217 HD
ENDBRANCH   2  13
TORSDOF 3
