REMARK  1 active torsions:
REMARK  status: ('A' for Active; 'I' for Inactive)
REMARK    1  A    between atoms: C_5  and  C_6 
ROOT
HETATM    1  N   LIG     1      -0.529  -3.636  -0.297  1.00  0.00    -0.364 N 
ATOM      2  HN  LIG     1       0.475  -3.574  -0.130  1.00  0.00     0.165 HD
HETATM    3  C   LIG     1      -1.302  -2.514  -0.358  1.00  0.00     0.059 A 
HETATM    4  C   LIG     1      -1.134  -4.833  -0.465  1.00  0.00     0.088 A 
HETATM    5  C   LIG     1      -2.678  -2.598  -0.587  1.00  0.00     0.032 A 
HETATM    6  C   LIG     1      -2.489  -4.988  -0.695  1.00  0.00     0.017 A 
HETATM    7  C   LIG     1      -3.275  -3.846  -0.757  1.00  0.00     0.004 A 
ENDROOT
BRANCH   3   8
HETATM    8  C   LIG     1      -0.611  -1.214  -0.170  1.00  0.00     0.059 A 
HETATM    9  N   LIG     1      -1.386  -0.093  -0.220  1.00  0.00    -0.364 N 
HETATM   10  C   LIG     1      -0.781   1.104  -0.051  1.00  0.00     0.088 A 
ATOM     11  HN  LIG     1      -2.391  -0.156  -0.380  1.00  0.00     0.165 HD
HETATM   12  C   LIG     1       0.576   1.260   0.169  1.00  0.00     0.017 A 
HETATM   13  C   LIG     1       1.363   0.119   0.219  1.00  0.00     0.004 A 
HETATM   14  C   LIG     1       0.766  -1.129   0.048  1.00  0.00     0.032 A 
ENDBRANCH   3   8
TORSDOF 1
