REMARK  0 active torsions:
REMARK  status: ('A' for Active; 'I' for Inactive)
ROOT
HETATM    1  C   LIG     1       0.710   1.228  -0.174  1.00  0.00     0.131 C 
HETATM    2  O   LIG     1       1.260   2.198  -0.689  1.00  0.00    -0.298 OA
HETATM    3  O   LIG     1      -0.656  -1.169   0.269  1.00  0.00    -0.390 OA
HETATM    4  C   LIG     1       1.473  -0.014   0.211  1.00  0.00     0.104 C 
HETATM    5  C   LIG     1      -0.745   1.249   0.220  1.00  0.00     0.104 C 
HETATM    6  C   LIG     1      -1.377  -0.047  -0.248  1.00  0.00     0.175 C 
HETATM    7  C   LIG     1       0.677  -1.221  -0.247  1.00  0.00     0.175 C 
ENDROOT
TORSDOF 0
