REMARK  2 active torsions:
REMARK  status: ('A' for Active; 'I' for Inactive)
REMARK    1  A    between atoms: C_2  and  C_12 
REMARK    2  A    between atoms: N_4  and  C_12 
ROOT
HETATM    1  C   LIG     1      -1.429  -0.081   0.051  1.00  0.00     0.116 A 
HETATM    2  C   LIG     1       1.358   0.027  -0.096  1.00  0.00    -0.033 A 
HETATM    3  F   LIG     1      -2.765  -0.135   0.121  1.00  0.00    -0.206 F 
HETATM    4  C   LIG     1      -0.800   1.147  -0.106  1.00  0.00     0.043 A 
HETATM    5  C   LIG     1      -0.692  -1.257   0.133  1.00  0.00     0.043 A 
HETATM    6  C   LIG     1       0.592   1.202  -0.181  1.00  0.00     0.012 A 
HETATM    7  C   LIG     1       0.701  -1.205   0.058  1.00  0.00     0.012 A 
ENDROOT
BRANCH   2   8
HETATM    8  C   LIG     1       2.862   0.093  -0.178  1.00  0.00     0.268 C 
BRANCH   8   9
HETATM    9  N   LIG     1       3.301   0.499  -1.507  1.00  0.00    -0.075 N 
ATOM     10  HN3 LIG     1       2.912  -0.105  -2.231  1.00  0.00     0.274 HD
ATOM     11  HN2 LIG     1       2.871   1.379  -1.791  1.00  0.00     0.274 HD
ATOM     12  HN1 LIG     1       4.319   0.544  -1.562  1.00  0.00     0.274 HD
ENDBRANCH   8   9
ENDBRANCH   2   8
TORSDOF 2
