REMARK  2 active torsions:
REMARK  status: ('A' for Active; 'I' for Inactive)
REMARK    1  A    between atoms: C_6  and  C_8 
REMARK    2  A    between atoms: C_8  and  C_9 
ROOT
HETATM    1  C   LIG     1      -0.673   1.916  -0.660  1.00  0.00     0.361 C 
HETATM    2  N   LIG     1      -0.403   0.577  -0.659  1.00  0.00    -0.330 N 
ATOM      3  HN  LIG     1      -1.019  -0.144  -1.035  1.00  0.00     0.165 HD
HETATM    4  O   LIG     1       0.202   2.560   0.169  1.00  0.00    -0.302 OA
HETATM    5  O   LIG     1      -1.538   2.460  -1.324  1.00  0.00    -0.239 OA
HETATM    6  C   LIG     1       0.869   0.334  -0.053  1.00  0.00     0.115 C 
HETATM    7  C   LIG     1       0.978   1.556   0.843  1.00  0.00     0.206 C 
ENDROOT
BRANCH   6   8
HETATM    8  C   LIG     1       2.020   0.301  -1.075  1.00  0.00     0.066 C 
BRANCH   8   9
HETATM    9  C   LIG     1       1.915  -0.851  -2.047  1.00  0.00    -0.056 A 
HETATM   10  C   LIG     1       2.490  -2.093  -1.751  1.00  0.00     0.007 A 
HETATM   11  C   LIG     1       2.387  -3.152  -2.656  1.00  0.00     0.001 A 
HETATM   12  C   LIG     1       1.702  -2.981  -3.858  1.00  0.00     0.000 A 
HETATM   13  C   LIG     1       1.121  -1.752  -4.159  1.00  0.00     0.001 A 
HETATM   14  C   LIG     1       1.228  -0.690  -3.260  1.00  0.00     0.007 A 
ENDBRANCH   8   9
ENDBRANCH   6   8
TORSDOF 2
