REMARK  5 active torsions:
REMARK  status: ('A' for Active; 'I' for Inactive)
REMARK    1  A    between atoms: CA_3  and  C_8 
REMARK    2  A    between atoms: C_6  and  C_11 
REMARK    3  A    between atoms: C_8  and  O_9 
REMARK    4  A    between atoms: C_11  and  C_12 
REMARK    5  A    between atoms: C_12  and  C_13 
ROOT
HETATM    1  N   LIG     1      -0.888   0.060  -0.681  1.00  0.00    -0.346 N 
ATOM      2  HN  LIG     1      -1.760   0.025  -1.208  1.00  0.00     0.167 HD
HETATM    3  CA  LIG     1      -0.111   1.174  -0.428  1.00  0.00     0.049 A 
HETATM    4  N   LIG     1       0.872  -0.520   0.528  1.00  0.00    -0.354 N 
ATOM      5  HN  LIG     1       1.523  -1.105   1.052  1.00  0.00     0.166 HD
HETATM    6  C   LIG     1      -0.269  -0.950  -0.100  1.00  0.00     0.081 A 
HETATM    7  C   LIG     1       0.985   0.827   0.330  1.00  0.00     0.116 A 
ENDROOT
BRANCH   6   8
HETATM    8  C   LIG     1      -0.703  -2.378  -0.077  1.00  0.00     0.076 C 
BRANCH   8   9
HETATM    9  C   LIG     1      -0.113  -3.165  -1.248  1.00  0.00     0.007 C 
BRANCH   9  10
HETATM   10  C   LIG     1      -0.530  -4.636  -1.201  1.00  0.00    -0.004 C 
HETATM   11  C   LIG     1       0.056  -5.420  -2.366  1.00  0.00     0.005 C 
ENDBRANCH   9  10
ENDBRANCH   8   9
ENDBRANCH   6   8
BRANCH   3  12
HETATM   12  C   LIG     1      -0.523   2.511  -0.941  1.00  0.00     0.222 C 
BRANCH  12  13
HETATM   13  O   LIG     1      -1.943   2.614  -1.051  1.00  0.00    -0.395 OA
ATOM     14  HO  LIG     1      -2.206   3.466  -1.378  1.00  0.00     0.209 HD
ENDBRANCH  12  13
ENDBRANCH   3  12
TORSDOF 5
