REMARK  3 active torsions:
REMARK  status: ('A' for Active; 'I' for Inactive)
REMARK    1  A    between atoms: C_3  and  C_7 
REMARK    2  A    between atoms: C_4  and  C_9 
REMARK    3  A    between atoms: C_7  and  C_8 
REMARK       I    between atoms: C_8  and  N_13 
ROOT
HETATM    1  N   LIG     1       0.518   0.619   0.048  1.00  0.00    -0.352 N 
ATOM      2  HN  LIG     1       1.270   1.303   0.124  1.00  0.00     0.166 HD
HETATM    3  C   LIG     1       0.687  -0.690   0.019  1.00  0.00     0.060 A 
HETATM    4  C   LIG     1      -0.834   0.929  -0.040  1.00  0.00     0.049 A 
HETATM    5  S   LIG     1      -0.758  -1.614  -0.108  1.00  0.00    -0.086 SA
HETATM    6  C   LIG     1      -1.671  -0.165  -0.137  1.00  0.00     0.081 A 
ENDROOT
BRANCH   4   7
HETATM    7  C   LIG     1      -1.300   2.313  -0.056  1.00  0.00    -0.009 A 
HETATM    8  C   LIG     1      -0.479   3.318  -0.593  1.00  0.00     0.017 A 
HETATM    9  C   LIG     1      -0.908   4.649  -0.622  1.00  0.00     0.043 A 
HETATM   10  C   LIG     1      -2.155   4.978  -0.105  1.00  0.00     0.116 A 
HETATM   11  C   LIG     1      -2.982   4.003   0.436  1.00  0.00     0.043 A 
HETATM   12  F   LIG     1      -2.565   6.253  -0.126  1.00  0.00    -0.206 F 
HETATM   13  C   LIG     1      -2.556   2.672   0.461  1.00  0.00     0.017 A 
ENDBRANCH   4   7
BRANCH   3  14
HETATM   14  C   LIG     1       2.017  -1.369   0.036  1.00  0.00     0.167 C 
BRANCH  14  15
HETATM   15  C   LIG     1       2.454  -1.656   1.457  1.00  0.00     0.221 C 
HETATM   16  O   LIG     1       2.684  -2.790   1.867  1.00  0.00    -0.273 OA
HETATM   17  N   LIG     1       2.677  -0.574   2.256  1.00  0.00    -0.370 N 
ATOM     18  HN2 LIG     1       2.486   0.368   1.915  1.00  0.00     0.159 HD
ATOM     19  HN1 LIG     1       2.971  -0.767   3.213  1.00  0.00     0.159 HD
ENDBRANCH  14  15
ENDBRANCH   3  14
TORSDOF 3
