REMARK  0 active torsions:
REMARK  status: ('A' for Active; 'I' for Inactive)
ROOT
HETATM    1  S   LIG     1      -1.331   1.713   0.162  1.00  0.00     0.176 S 
HETATM    2  C   LIG     1       0.132   0.735   0.098  1.00  0.00     0.073 A 
HETATM    3  C   LIG     1       0.061  -0.657   0.025  1.00  0.00     0.033 A 
HETATM    4  C   LIG     1      -1.221  -1.417   0.040  1.00  0.00     0.162 C 
HETATM    5  C   LIG     1      -2.589   0.616  -0.425  1.00  0.00     0.153 C 
HETATM    6  O   LIG     1      -1.178   2.772  -0.814  1.00  0.00    -0.223 OA
HETATM    7  O   LIG     1      -1.576   1.991   1.562  1.00  0.00    -0.223 OA
HETATM    8  C   LIG     1       1.365   1.400   0.079  1.00  0.00     0.026 A 
HETATM    9  C   LIG     1      -2.515  -0.693   0.320  1.00  0.00     0.099 C 
HETATM   10  C   LIG     1       1.257  -1.389  -0.064  1.00  0.00     0.040 A 
HETATM   11  O   LIG     1      -1.206  -2.633  -0.128  1.00  0.00    -0.292 OA
HETATM   12  C   LIG     1       2.486  -0.728  -0.076  1.00  0.00     0.035 A 
HETATM   13  C   LIG     1       2.545   0.662  -0.005  1.00  0.00     0.025 A 
HETATM   14 CL   LIG     1       3.943  -1.637  -0.182  1.00  0.00    -0.084 Cl
ENDROOT
TORSDOF 0
