REMARK  3 active torsions:
REMARK  status: ('A' for Active; 'I' for Inactive)
REMARK    1  A    between atoms: C_1  and  C_2 
REMARK    2  A    between atoms: C_1  and  C_7 
REMARK    3  A    between atoms: C_10  and  O_13 
ROOT
HETATM    1 CL   LIG     2      -0.456  -3.097   0.896  1.00  0.00     0.000 Cl
ENDROOT
TORSDOF 3
