REMARK  1 active torsions:
REMARK  status: ('A' for Active; 'I' for Inactive)
REMARK    1  A    between atoms: C_3  and  C_8 
ROOT
HETATM    1  N   LIG     1       0.927  -0.662   0.168  1.00  0.00    -0.351 N 
ATOM      2  HN  LIG     1       1.766  -1.236   0.258  1.00  0.00     0.166 HD
HETATM    3  C   LIG     1       0.868   0.708   0.005  1.00  0.00     0.059 A 
HETATM    4  N   LIG     1      -1.189  -0.033   0.037  1.00  0.00    -0.360 N 
ATOM      5  HN  LIG     1      -2.207  -0.097   0.018  1.00  0.00     0.166 HD
HETATM    6  C   LIG     1      -0.319  -1.073   0.183  1.00  0.00     0.180 A 
HETATM    7  C   LIG     1      -0.448   1.113  -0.079  1.00  0.00     0.119 A 
ENDROOT
BRANCH   3   8
HETATM    8  C   LIG     1       2.051   1.554  -0.064  1.00  0.00    -0.008 A 
HETATM    9  C   LIG     1       1.968   2.949  -0.185  1.00  0.00     0.014 A 
HETATM   10  C   LIG     1       3.127   3.730  -0.249  1.00  0.00     0.001 A 
HETATM   11  C   LIG     1       4.382   3.128  -0.191  1.00  0.00     0.000 A 
HETATM   12  C   LIG     1       4.481   1.744  -0.070  1.00  0.00     0.001 A 
HETATM   13  C   LIG     1       3.323   0.964  -0.006  1.00  0.00     0.014 A 
ENDBRANCH   3   8
TORSDOF 1
