REMARK  3 active torsions:
REMARK  status: ('A' for Active; 'I' for Inactive)
REMARK    1  A    between atoms: N_1  and  C_7 
REMARK    2  A    between atoms: C_6  and  C_7 
REMARK    3  A    between atoms: C_6  and  C_8 
ROOT
HETATM    1  N   LIG     1       1.372  -0.913  -0.148  1.00  0.00    -0.355 N 
HETATM    2  C   LIG     1       2.243   0.138  -0.025  1.00  0.00     0.099 A 
HETATM    3  C   LIG     1       1.516   1.311   0.005  1.00  0.00    -0.034 A 
HETATM    4  C   LIG     1       0.073  -0.449  -0.201  1.00  0.00     0.045 A 
HETATM    5  C   LIG     1       0.139   0.947  -0.133  1.00  0.00    -0.002 A 
HETATM    6  C   LIG     1       2.076   2.679   0.163  1.00  0.00     0.050 C 
HETATM    7  C   LIG     1      -1.153  -1.129  -0.299  1.00  0.00     0.030 A 
HETATM    8  C   LIG     1      -1.062   1.686  -0.192  1.00  0.00     0.014 A 
HETATM    9  C   LIG     1      -2.327  -0.370  -0.359  1.00  0.00     0.002 A 
HETATM   10  C   LIG     1      -2.284   1.019  -0.315  1.00  0.00     0.001 A 
ENDROOT
BRANCH   1  11
HETATM   11  C   LIG     1       1.786  -2.306  -0.157  1.00  0.00     0.139 C 
BRANCH  11  12
HETATM   12  C   LIG     1       2.077  -2.832  -1.557  1.00  0.00     0.133 C 
BRANCH  12  13
HETATM   13  C   LIG     1       2.494  -4.267  -1.449  1.00  0.00     0.174 C 
HETATM   14  O   LIG     1       3.121  -4.787  -0.539  1.00  0.00    -0.648 OA
HETATM   15  O   LIG     1       2.143  -4.986  -2.537  1.00  0.00    -0.648 OA
ENDBRANCH  12  13
ENDBRANCH  11  12
ENDBRANCH   1  11
TORSDOF 3
