REMARK  2 active torsions:
REMARK  status: ('A' for Active; 'I' for Inactive)
REMARK    1  A    between atoms: C_1  and  C_3 
REMARK    2  A    between atoms: C_2  and  N_4 
ROOT
HETATM    1  C   LIG     1       0.507  -0.546   0.786  1.00  0.00     0.086 A 
HETATM    2  C   LIG     1       1.898  -0.407   0.732  1.00  0.00     0.097 A 
HETATM    3  N   LIG     1       2.520   0.612   1.375  1.00  0.00    -0.356 N 
ATOM      4  HN  LIG     1       3.531   0.726   1.304  1.00  0.00     0.166 HD
HETATM    5  C   LIG     1      -0.225   0.362   1.576  1.00  0.00     0.021 A 
HETATM    6  C   LIG     1       1.787   1.474   2.110  1.00  0.00     0.089 A 
HETATM    7  C   LIG     1       0.418   1.384   2.253  1.00  0.00     0.018 A 
ENDROOT
BRANCH   2   8
HETATM    8  N   LIG     1       2.696  -1.343   0.055  1.00  0.00    -0.266 NA
HETATM    9  C   LIG     1       3.947  -0.760  -0.488  1.00  0.00     0.124 C 
HETATM   10  C   LIG     1       4.735  -1.846  -1.260  1.00  0.00     0.247 C 
HETATM   11  N   LIG     1       5.072  -3.024  -0.430  1.00  0.00    -0.073 N 
HETATM   12  C   LIG     1       3.825  -3.555   0.163  1.00  0.00     0.247 C 
ATOM     13  HN2 LIG     1       5.782  -2.817   0.273  1.00  0.00     0.277 HD
ATOM     14  HN1 LIG     1       5.591  -3.732  -0.949  1.00  0.00     0.277 HD
HETATM   15  C   LIG     1       2.993  -2.500   0.932  1.00  0.00     0.124 C 
ENDBRANCH   2   8
BRANCH   1  16
HETATM   16  C   LIG     1      -0.249  -1.629   0.073  1.00  0.00     0.420 C 
HETATM   17  F   LIG     1       0.369  -2.217  -0.986  1.00  0.00    -0.166 F 
HETATM   18  F   LIG     1      -0.593  -2.644   0.917  1.00  0.00    -0.166 F 
HETATM   19  F   LIG     1      -1.439  -1.169  -0.427  1.00  0.00    -0.166 F 
ENDBRANCH   1  16
TORSDOF 2
