REMARK  3 active torsions:
REMARK  status: ('A' for Active; 'I' for Inactive)
REMARK    1  A    between atoms: C_1  and  C_3 
REMARK    2  A    between atoms: C_2  and  N_7 
REMARK    3  A    between atoms: N_7  and  N_11 
ROOT
HETATM    1  C   LIG     1       1.917   2.874   0.510  1.00  0.00     0.121 A 
HETATM    2  C   LIG     1       0.304   1.074   0.729  1.00  0.00     0.052 A 
HETATM    3  C   LIG     1       1.440   1.625   0.115  1.00  0.00     0.066 A 
HETATM    4  N   LIG     1       1.301   3.557   1.511  1.00  0.00    -0.351 N 
ATOM      5  HN  LIG     1       1.657   4.463   1.814  1.00  0.00     0.166 HD
HETATM    6  C   LIG     1       0.212   3.019   2.097  1.00  0.00     0.090 A 
HETATM    7  C   LIG     1      -0.321   1.796   1.745  1.00  0.00     0.033 A 
ENDROOT
BRANCH   1   8
HETATM    8  N   LIG     1       3.069   3.454  -0.076  1.00  0.00    -0.288 N 
HETATM    9  C   LIG     1       3.283   3.222  -1.505  1.00  0.00     0.179 C 
BRANCH   8  10
HETATM   10  N   LIG     1       3.432   4.745   0.421  1.00  0.00    -0.342 N 
ATOM     11  HN2 LIG     1       3.283   4.907   1.417  1.00  0.00     0.177 HD
ATOM     12  HN1 LIG     1       4.261   5.163  -0.001  1.00  0.00     0.177 HD
ENDBRANCH   8  10
ENDBRANCH   1   8
BRANCH   2  13
HETATM   13  C   LIG     1      -0.225  -0.273   0.322  1.00  0.00     0.417 C 
HETATM   14  F   LIG     1       0.423  -0.814  -0.746  1.00  0.00    -0.166 F 
HETATM   15  F   LIG     1      -1.541  -0.230  -0.025  1.00  0.00    -0.166 F 
HETATM   16  F   LIG     1      -0.132  -1.192   1.322  1.00  0.00    -0.166 F 
ENDBRANCH   2  13
TORSDOF 3
