REMARK  2 active torsions:
REMARK  status: ('A' for Active; 'I' for Inactive)
REMARK    1  A    between atoms: C_2  and  C_4 
REMARK    2  A    between atoms: C_3  and  C_8 
ROOT
HETATM    1  S   LIG     1       1.328  -0.941  -0.052  1.00  0.00    -0.086 SA
HETATM    2  C   LIG     1      -0.361  -1.253  -0.011  1.00  0.00     0.022 A 
HETATM    3  C   LIG     1       1.123   0.751  -0.003  1.00  0.00     0.051 A 
HETATM    4  C   LIG     1      -1.066  -0.063   0.036  1.00  0.00     0.021 A 
HETATM    5  C   LIG     1      -0.217   1.084   0.039  1.00  0.00     0.024 A 
ENDROOT
BRANCH   2   6
HETATM    6  C   LIG     1      -0.873  -2.610  -0.025  1.00  0.00     0.021 A 
HETATM    7  S   LIG     1      -2.560  -2.946   0.016  1.00  0.00    -0.101 SA
HETATM    8  C   LIG     1      -2.308  -4.634  -0.021  1.00  0.00     0.050 A 
HETATM    9  C   LIG     1      -0.972  -4.954  -0.066  1.00  0.00     0.008 A 
HETATM   10  C   LIG     1      -0.149  -3.791  -0.069  1.00  0.00     0.021 A 
ENDBRANCH   2   6
BRANCH   3  11
HETATM   11  C   LIG     1       2.254   1.671  -0.007  1.00  0.00     0.162 C 
HETATM   12  O   LIG     1       2.102   2.895   0.022  1.00  0.00    -0.292 OA
HETATM   13  C   LIG     1       3.655   1.103  -0.044  1.00  0.00     0.097 C 
ENDBRANCH   3  11
TORSDOF 2
