REMARK  4 active torsions:
REMARK  status: ('A' for Active; 'I' for Inactive)
REMARK    1  A    between atoms: C_1  and  C_8 
REMARK    2  A    between atoms: C_2  and  N_9 
REMARK    3  A    between atoms: C_3  and  C_6 
REMARK    4  A    between atoms: C_8  and  N_15 
ROOT
HETATM    1  C   LIG     1      -0.666   2.549   0.189  1.00  0.00     0.097 A 
HETATM    2  C   LIG     1      -1.834   1.777   0.028  1.00  0.00     0.061 A 
HETATM    3  C   LIG     1      -0.341  -0.171   0.241  1.00  0.00     0.065 A 
HETATM    4  N   LIG     1       0.584   2.034   0.441  1.00  0.00    -0.361 N 
ATOM      5  HN  LIG     1       1.383   2.643   0.618  1.00  0.00     0.165 HD
HETATM    6  C   LIG     1      -1.615   0.387   0.033  1.00  0.00     0.049 A 
HETATM    7  C   LIG     1       0.711   0.696   0.445  1.00  0.00     0.104 A 
ENDROOT
BRANCH   1   8
HETATM    8  C   LIG     1      -0.596   4.038   0.048  1.00  0.00     0.123 C 
HETATM    9  S   LIG     1      -1.127   4.934  -1.264  1.00  0.00    -0.058 SA
BRANCH   8  10
HETATM   10  N   LIG     1       0.102   4.680   1.049  1.00  0.00    -0.388 N 
ATOM     11  HN2 LIG     1       0.425   4.134   1.848  1.00  0.00     0.157 HD
ATOM     12  HN1 LIG     1       0.150   5.694   0.953  1.00  0.00     0.157 HD
ENDBRANCH   8  10
ENDBRANCH   1   8
BRANCH   2  13
HETATM   13  N   LIG     1      -3.121   2.274  -0.104  1.00  0.00    -0.379 N 
HETATM   14  C   LIG     1      -4.228   1.511  -0.679  1.00  0.00     0.123 C 
HETATM   15  C   LIG     1      -5.406   2.468  -0.557  1.00  0.00     0.021 C 
HETATM   16  C   LIG     1      -5.154   3.106   0.799  1.00  0.00     0.021 C 
HETATM   17  C   LIG     1      -3.633   3.287   0.833  1.00  0.00     0.123 C 
ENDBRANCH   2  13
BRANCH   3  18
HETATM   18  C   LIG     1      -0.104  -1.648   0.262  1.00  0.00     0.418 C 
HETATM   19  F   LIG     1      -1.241  -2.386   0.132  1.00  0.00    -0.166 F 
HETATM   20  F   LIG     1       0.724  -2.057  -0.737  1.00  0.00    -0.166 F 
HETATM   21  F   LIG     1       0.477  -2.063   1.422  1.00  0.00    -0.166 F 
ENDBRANCH   3  18
TORSDOF 4
