REMARK  2 active torsions:
REMARK  status: ('A' for Active; 'I' for Inactive)
REMARK    1  A    between atoms: C_1  and  N_2 
REMARK    2  A    between atoms: N_2  and  C_10 
ROOT
HETATM    1  N   LIG     1      -3.918   1.208   1.014  1.00  0.00    -0.375 N 
ATOM      2  HN  LIG     1      -4.910   1.363   1.192  1.00  0.00     0.164 HD
HETATM    3  C   LIG     1      -1.200   0.764   0.481  1.00  0.00     0.036 A 
HETATM    4  C   LIG     1      -1.775   2.016   0.262  1.00  0.00     0.046 A 
HETATM    5  C   LIG     1      -1.994  -0.251   1.006  1.00  0.00     0.046 A 
HETATM    6  C   LIG     1      -3.332   0.016   1.250  1.00  0.00     0.090 A 
HETATM    7  C   LIG     1      -3.124   2.184   0.531  1.00  0.00     0.090 A 
ENDROOT
BRANCH   3   8
HETATM    8  N   LIG     1       0.178   0.631   0.207  1.00  0.00    -0.333 N 
ATOM      9  HN  LIG     1       0.663   1.516   0.059  1.00  0.00     0.168 HD
BRANCH   8  10
HETATM   10  C   LIG     1       0.971  -0.462   0.105  1.00  0.00     0.169 C 
HETATM   11  S   LIG     1       2.626  -0.306   0.122  1.00  0.00    -0.041 SA
HETATM   12  N   LIG     1       0.412  -1.676  -0.061  1.00  0.00    -0.376 N 
ATOM     13  HN2 LIG     1      -0.603  -1.772  -0.071  1.00  0.00     0.158 HD
ATOM     14  HN1 LIG     1       1.009  -2.499  -0.138  1.00  0.00     0.158 HD
ENDBRANCH   8  10
ENDBRANCH   3   8
TORSDOF 2
