REMARK  2 active torsions:
REMARK  status: ('A' for Active; 'I' for Inactive)
REMARK    1  A    between atoms: C_1  and  C_6 
REMARK    2  A    between atoms: C_6  and  O_9 
ROOT
HETATM    1  C   LIG     1       0.999  -0.672   0.010  1.00  0.00     0.063 A 
HETATM    2  C   LIG     1      -0.331  -1.079   0.000  1.00  0.00     0.021 A 
HETATM    3  N   LIG     1      -1.120   0.046  -0.004  1.00  0.00    -0.363 N 
ATOM      4  HN  LIG     1      -2.140   0.044  -0.012  1.00  0.00     0.165 HD
HETATM    5  C   LIG     1       0.977   0.755   0.011  1.00  0.00     0.044 A 
HETATM    6  C   LIG     1      -0.337   1.172   0.005  1.00  0.00     0.006 A 
HETATM    7  C   LIG     1      -0.927  -2.442  -0.002  1.00  0.00     0.069 C 
HETATM    8  C   LIG     1      -0.907   2.541   0.008  1.00  0.00     0.068 C 
ENDROOT
BRANCH   1   9
HETATM    9  C   LIG     1       2.176  -1.540   0.020  1.00  0.00     0.294 C 
HETATM   10  O   LIG     1       2.128  -2.764   0.008  1.00  0.00    -0.259 OA
BRANCH   9  11
HETATM   11  O   LIG     1       3.336  -0.818   0.047  1.00  0.00    -0.322 OA
HETATM   12  C   LIG     1       4.522  -1.609   0.067  1.00  0.00     0.213 C 
ENDBRANCH   9  11
ENDBRANCH   1   9
TORSDOF 2
