REMARK  3 active torsions:
REMARK  status: ('A' for Active; 'I' for Inactive)
REMARK    1  A    between atoms: C_1  and  C_6 
REMARK    2  A    between atoms: N_2  and  C_7 
REMARK    3  A    between atoms: C_7  and  C_8 
ROOT
HETATM    1  C   LIG     1      -0.664  -1.350   0.081  1.00  0.00     0.065 A 
HETATM    2  N   LIG     1       0.560   0.538   0.035  1.00  0.00    -0.349 N 
HETATM    3  C   LIG     1       0.637  -0.849   0.049  1.00  0.00     0.025 A 
HETATM    4  C   LIG     1      -1.525  -0.221   0.164  1.00  0.00     0.045 A 
HETATM    5  C   LIG     1      -0.760   0.925   0.179  1.00  0.00     0.009 A 
HETATM    6  C   LIG     1       1.938  -1.584   0.020  1.00  0.00     0.069 C 
HETATM    7  C   LIG     1      -1.220   2.336   0.296  1.00  0.00     0.068 C 
ENDROOT
BRANCH   2   8
HETATM    8  C   LIG     1       1.700   1.453  -0.097  1.00  0.00     0.174 C 
BRANCH   8   9
HETATM    9  C   LIG     1       2.027   1.750  -1.535  1.00  0.00     0.001 A 
HETATM   10  S   LIG     1       3.646   2.134  -1.963  1.00  0.00    -0.105 SA
HETATM   11  C   LIG     1       3.251   2.266  -3.621  1.00  0.00     0.050 A 
HETATM   12  C   LIG     1       1.910   2.061  -3.849  1.00  0.00     0.008 A 
HETATM   13  C   LIG     1       1.201   1.789  -2.645  1.00  0.00     0.017 A 
ENDBRANCH   8   9
ENDBRANCH   2   8
BRANCH   1  14
HETATM   14  C   LIG     1      -1.069  -2.749   0.057  1.00  0.00     0.211 C 
HETATM   15  O   LIG     1      -0.337  -3.723  -0.013  1.00  0.00    -0.644 OA
HETATM   16  O   LIG     1      -2.409  -2.932   0.121  1.00  0.00    -0.644 OA
ENDBRANCH   1  14
TORSDOF 3
