REMARK  2 active torsions:
REMARK  status: ('A' for Active; 'I' for Inactive)
REMARK    1  A    between atoms: C_1  and  C_10 
REMARK    2  A    between atoms: N_6  and  C_10 
ROOT
HETATM    1  C   LIG     1       0.994  -0.662  -0.032  1.00  0.00     0.013 A 
HETATM    2  C   LIG     1       0.914   0.722   0.066  1.00  0.00    -0.047 A 
HETATM    3  S   LIG     1      -0.558  -1.394  -0.066  1.00  0.00    -0.104 SA
HETATM    4  C   LIG     1      -1.345   0.113   0.054  1.00  0.00     0.051 A 
HETATM    5  C   LIG     1      -0.452   1.157   0.115  1.00  0.00     0.015 A 
HETATM    6  C   LIG     1       2.083   1.650   0.113  1.00  0.00     0.049 C 
ENDROOT
BRANCH   1   7
HETATM    7  C   LIG     1       2.218  -1.526  -0.115  1.00  0.00     0.276 C 
BRANCH   7   8
HETATM    8  N   LIG     1       2.696  -1.871   1.219  1.00  0.00    -0.075 N 
ATOM      9  HN3 LIG     1       2.857  -1.041   1.790  1.00  0.00     0.274 HD
ATOM     10  HN2 LIG     1       1.965  -2.304   1.782  1.00  0.00     0.274 HD
ATOM     11  HN1 LIG     1       3.528  -2.458   1.163  1.00  0.00     0.274 HD
ENDBRANCH   7   8
ENDBRANCH   1   7
TORSDOF 2
