REMARK  4 active torsions:
REMARK  status: ('A' for Active; 'I' for Inactive)
REMARK    1  A    between atoms: C_3  and  C_8 
REMARK    2  A    between atoms: C_4  and  C_9 
REMARK    3  A    between atoms: C_7  and  O_10 
REMARK    4  A    between atoms: O_10  and  C_17 
ROOT
HETATM    1  C   LIG     1       1.113   0.818   0.335  1.00  0.00    -0.002 A 
HETATM    2  C   LIG     1       1.080   2.219   0.284  1.00  0.00     0.017 A 
HETATM    3  C   LIG     1       2.358   0.191   0.168  1.00  0.00     0.017 A 
HETATM    4  C   LIG     1       3.479   2.323  -0.092  1.00  0.00     0.078 A 
HETATM    5  C   LIG     1       2.248   2.960   0.073  1.00  0.00     0.038 A 
HETATM    6  C   LIG     1       3.527   0.932  -0.046  1.00  0.00     0.038 A 
ENDROOT
BRANCH   1   7
HETATM    7  C   LIG     1      -0.085  -0.021   0.547  1.00  0.00     0.085 A 
HETATM    8  N   LIG     1      -0.060  -1.341   0.615  1.00  0.00    -0.347 N 
HETATM    9  C   LIG     1      -1.341  -1.852   0.797  1.00  0.00     0.085 A 
ATOM     10  HN  LIG     1       0.785  -1.908   0.544  1.00  0.00     0.167 HD
HETATM   11  C   LIG     1      -2.332  -0.893   0.868  1.00  0.00     0.085 A 
HETATM   12  S   LIG     1      -1.658   0.666   0.717  1.00  0.00    -0.081 SA
BRANCH   9  13
HETATM   13  C   LIG     1      -1.596  -3.289   0.906  1.00  0.00     0.172 C 
HETATM   14  O   LIG     1      -2.739  -3.732   1.049  1.00  0.00    -0.291 OA
HETATM   15  C   LIG     1      -0.414  -4.218   0.854  1.00  0.00     0.098 C 
ENDBRANCH   9  13
ENDBRANCH   1   7
BRANCH   4  16
HETATM   16  O   LIG     1       4.537   3.164  -0.281  1.00  0.00    -0.255 OA
BRANCH  16  17
HETATM   17  C   LIG     1       5.815   2.573  -0.449  1.00  0.00     0.530 C 
HETATM   18  F   LIG     1       6.157   1.835   0.628  1.00  0.00    -0.144 F 
HETATM   19  F   LIG     1       5.848   1.800  -1.556  1.00  0.00    -0.144 F 
HETATM   20  F   LIG     1       6.733   3.554  -0.593  1.00  0.00    -0.144 F 
ENDBRANCH  16  17
ENDBRANCH   4  16
TORSDOF 4
