REMARK  1 active torsions:
REMARK  status: ('A' for Active; 'I' for Inactive)
REMARK    1  A    between atoms: C_1  and  C_4 
ROOT
HETATM    1  C   LIG     1      -0.528  -1.045   0.048  1.00  0.00     0.077 A 
HETATM    2  N   LIG     1       0.817  -0.662   0.166  1.00  0.00    -0.351 N 
ATOM      3  HN  LIG     1       1.591  -1.304   0.333  1.00  0.00     0.166 HD
HETATM    4  C   LIG     1      -1.387   0.020  -0.178  1.00  0.00     0.084 A 
HETATM    5  C   LIG     1       0.940   0.640   0.031  1.00  0.00     0.047 A 
HETATM    6  S   LIG     1      -0.520   1.496  -0.242  1.00  0.00    -0.087 SA
HETATM    7  C   LIG     1       2.232   1.376   0.103  1.00  0.00     0.076 C 
ENDROOT
BRANCH   1   8
HETATM    8  C   LIG     1      -0.870  -2.460   0.169  1.00  0.00     0.121 C 
HETATM    9  S   LIG     1      -2.427  -3.019   0.045  1.00  0.00    -0.059 SA
HETATM   10  N   LIG     1       0.182  -3.300   0.394  1.00  0.00    -0.388 N 
ATOM     11  HN2 LIG     1       1.139  -2.956   0.470  1.00  0.00     0.157 HD
ATOM     12  HN1 LIG     1      -0.057  -4.288   0.478  1.00  0.00     0.157 HD
ENDBRANCH   1   8
TORSDOF 1
