REMARK  1 active torsions:
REMARK  status: ('A' for Active; 'I' for Inactive)
REMARK    1  A    between atoms: C_5  and  O_10 
ROOT
HETATM    1  N   LIG     1       1.010  -0.386   0.319  1.00  0.00    -0.191 NA
HETATM    2  N   LIG     1       5.737  -1.098  -0.284  1.00  0.00    -0.345 N 
ATOM      3  HN  LIG     1       6.325  -1.931  -0.310  1.00  0.00     0.167 HD
HETATM    4  C   LIG     1       2.151  -0.254   0.153  1.00  0.00     0.101 C 
HETATM    5  C   LIG     1       6.259   0.136  -0.441  1.00  0.00     0.141 A 
HETATM    6  C   LIG     1       3.554  -0.085  -0.051  1.00  0.00     0.060 A 
HETATM    7  C   LIG     1       4.400  -1.183  -0.091  1.00  0.00     0.112 A 
HETATM    8  C   LIG     1       5.491   1.294  -0.432  1.00  0.00     0.057 A 
HETATM    9  C   LIG     1       4.116   1.179  -0.225  1.00  0.00     0.028 A 
ENDROOT
BRANCH   5  10
HETATM   10  O   LIG     1       7.604   0.158  -0.686  1.00  0.00    -0.341 OA
HETATM   11  C   LIG     1       8.305   1.005   0.218  1.00  0.00     0.211 C 
ENDBRANCH   5  10
TORSDOF 1
