REMARK  3 active torsions:
REMARK  status: ('A' for Active; 'I' for Inactive)
REMARK    1  A    between atoms: N_1  and  C_3 
REMARK    2  A    between atoms: C_2  and  C_4 
REMARK    3  A    between atoms: C_2  and  N_11 
ROOT
HETATM    1  C   LIG     1      -0.733  -2.394  -0.071  1.00  0.00     0.039 A 
HETATM    2  C   LIG     1      -2.427  -4.057  -0.661  1.00  0.00     0.004 A 
HETATM    3  C   LIG     1      -1.992  -2.721  -0.605  1.00  0.00     0.044 A 
HETATM    4  C   LIG     1       0.091  -3.428   0.396  1.00  0.00     0.030 A 
HETATM    5  C   LIG     1      -1.593  -5.071  -0.177  1.00  0.00     0.014 A 
HETATM    6  C   LIG     1      -0.338  -4.757   0.342  1.00  0.00     0.003 A 
ENDROOT
BRANCH   1   7
HETATM    7  N   LIG     1      -0.303  -1.029   0.001  1.00  0.00    -0.333 N 
HETATM    8  C   LIG     1      -1.011   0.087  -0.410  1.00  0.00     0.096 A 
HETATM    9  C   LIG     1      -0.265   1.220  -0.174  1.00  0.00     0.019 A 
HETATM   10  C   LIG     1       0.948   0.806   0.405  1.00  0.00     0.019 A 
HETATM   11  C   LIG     1       0.903  -0.568   0.502  1.00  0.00     0.096 A 
ENDBRANCH   1   7
BRANCH   2  12
HETATM   12  C   LIG     1      -3.767  -4.404  -1.218  1.00  0.00     0.104 C 
HETATM   13  S   LIG     1      -5.145  -3.464  -1.095  1.00  0.00    -0.060 SA
BRANCH  12  14
HETATM   14  N   LIG     1      -3.863  -5.597  -1.890  1.00  0.00    -0.390 N 
ATOM     15  HN2 LIG     1      -3.023  -6.170  -1.965  1.00  0.00     0.157 HD
ATOM     16  HN1 LIG     1      -4.779  -5.834  -2.271  1.00  0.00     0.157 HD
ENDBRANCH  12  14
ENDBRANCH   2  12
TORSDOF 3
