REMARK  2 active torsions:
REMARK  status: ('A' for Active; 'I' for Inactive)
REMARK    1  A    between atoms: C_1  and  C_5 
REMARK    2  A    between atoms: C_5  and  N_9 
ROOT
HETATM    1  C   LIG     1      -0.477  -1.117   0.128  1.00  0.00     0.094 A 
HETATM    2  N   LIG     1       0.787  -0.718   0.375  1.00  0.00    -0.258 N 
ATOM      3  HN  LIG     1       1.591  -1.317   0.564  1.00  0.00     0.195 HD
HETATM    4  C   LIG     1      -1.309   0.018  -0.086  1.00  0.00     0.069 A 
HETATM    5  O   LIG     1       0.779   0.661   0.321  1.00  0.00    -0.242 OA
HETATM    6  C   LIG     1      -0.475   1.099   0.046  1.00  0.00     0.074 A 
HETATM    7  C   LIG     1      -0.656   2.557  -0.047  1.00  0.00     0.079 C 
ENDROOT
BRANCH   1   8
HETATM    8  C   LIG     1      -0.794  -2.541   0.116  1.00  0.00     0.123 C 
HETATM    9  S   LIG     1      -2.336  -3.080  -0.184  1.00  0.00    -0.058 SA
BRANCH   8  10
HETATM   10  N   LIG     1       0.232  -3.412   0.362  1.00  0.00    -0.388 N 
ATOM     11  HN2 LIG     1       1.179  -3.081   0.546  1.00  0.00     0.157 HD
ATOM     12  HN1 LIG     1       0.010  -4.408   0.354  1.00  0.00     0.157 HD
ENDBRANCH   8  10
ENDBRANCH   1   8
TORSDOF 2
