REMARK  0 active torsions:
REMARK  status: ('A' for Active; 'I' for Inactive)
ROOT
HETATM    1  N   LIG     1      -1.085  -1.492  -0.001  1.00  0.00    -0.326 N 
ATOM      2  HN  LIG     1      -1.207  -2.505  -0.002  1.00  0.00     0.169 HD
HETATM    3  C   LIG     1       0.025  -0.809  -0.001  1.00  0.00     0.155 A 
HETATM    4  N   LIG     1      -0.161   0.539   0.000  1.00  0.00    -0.310 N 
HETATM    5  C   LIG     1      -2.057  -0.509   0.001  1.00  0.00     0.121 A 
HETATM    6  C   LIG     1      -1.502   0.762   0.001  1.00  0.00     0.141 A 
HETATM    7  S   LIG     1       1.714  -1.208  -0.003  1.00  0.00    -0.064 SA
HETATM    8  C   LIG     1       0.985   1.299   0.001  1.00  0.00     0.106 A 
HETATM    9  C   LIG     1       2.086   0.527  -0.001  1.00  0.00     0.071 A 
HETATM   10 CL   LIG     1      -3.719  -0.871   0.002  1.00  0.00    -0.063 Cl
ENDROOT
TORSDOF 0
