REMARK  0 active torsions:
REMARK  status: ('A' for Active; 'I' for Inactive)
ROOT
HETATM    1  N   LIG     1       0.927  -0.645   0.007  1.00  0.00    -0.345 N 
ATOM      2  HN  LIG     1       1.743  -1.257   0.012  1.00  0.00     0.167 HD
HETATM    3  C   LIG     1      -0.390  -1.071   0.005  1.00  0.00     0.121 A 
HETATM    4  C   LIG     1       0.965   0.672   0.002  1.00  0.00     0.047 A 
HETATM    5  S   LIG     1      -0.567   1.457  -0.005  1.00  0.00    -0.086 SA
HETATM    6  N   LIG     1      -0.968  -3.601   0.015  1.00  0.00    -0.190 NA
HETATM    7  C   LIG     1      -0.687  -2.474   0.010  1.00  0.00     0.118 C 
HETATM    8  C   LIG     1      -1.341  -0.074  -0.002  1.00  0.00     0.092 A 
HETATM    9  C   LIG     1       2.214   1.481   0.004  1.00  0.00     0.076 C 
ENDROOT
TORSDOF 0
