REMARK  2 active torsions:
REMARK  status: ('A' for Active; 'I' for Inactive)
REMARK    1  A    between atoms: C_1  and  N_2 
REMARK    2  A    between atoms: N_2  and  C_4 
ROOT
HETATM    1  C   LIG     1      -1.303  -0.869   0.770  1.00  0.00     0.040 A 
HETATM    2  C   LIG     1      -1.937  -1.932   1.448  1.00  0.00    -0.035 A 
HETATM    3  C   LIG     1      -2.090   0.166   0.248  1.00  0.00     0.030 A 
HETATM    4  C   LIG     1      -1.168  -3.099   2.008  1.00  0.00     0.050 C 
HETATM    5  C   LIG     1      -3.333  -1.909   1.617  1.00  0.00     0.009 A 
HETATM    6  C   LIG     1      -3.475   0.177   0.426  1.00  0.00     0.002 A 
HETATM    7  C   LIG     1      -4.096  -0.856   1.116  1.00  0.00     0.001 A 
ENDROOT
BRANCH   1   8
HETATM    8  N   LIG     1       0.098  -0.917   0.586  1.00  0.00    -0.333 N 
ATOM      9  HN  LIG     1       0.508  -1.838   0.741  1.00  0.00     0.168 HD
BRANCH   8  10
HETATM   10  C   LIG     1       0.995   0.037   0.242  1.00  0.00     0.170 C 
HETATM   11  S   LIG     1       2.534  -0.382  -0.228  1.00  0.00    -0.041 SA
HETATM   12  N   LIG     1       0.653   1.336   0.337  1.00  0.00    -0.376 N 
ATOM     13  HN2 LIG     1      -0.291   1.593   0.625  1.00  0.00     0.158 HD
ATOM     14  HN1 LIG     1       1.329   2.055   0.078  1.00  0.00     0.158 HD
ENDBRANCH   8  10
ENDBRANCH   1   8
TORSDOF 2
