REMARK  3 active torsions:
REMARK  status: ('A' for Active; 'I' for Inactive)
REMARK    1  A    between atoms: C_1  and  C_5 
REMARK    2  A    between atoms: C_5  and  O_9 
REMARK    3  A    between atoms: O_9  and  C_11 
ROOT
HETATM    1  C   LIG     1      -0.179  -0.429  -0.073  1.00  0.00     0.115 A 
HETATM    2  N   LIG     1       1.155  -0.026   0.017  1.00  0.00    -0.349 N 
ATOM      3  HN  LIG     1       1.949  -0.659   0.115  1.00  0.00     0.166 HD
HETATM    4  C   LIG     1      -1.077   0.619  -0.186  1.00  0.00     0.087 A 
HETATM    5  C   LIG     1       1.243   1.284  -0.043  1.00  0.00     0.047 A 
HETATM    6  S   LIG     1      -0.251   2.119  -0.185  1.00  0.00    -0.087 SA
HETATM    7  C   LIG     1       2.523   2.043  -0.005  1.00  0.00     0.076 C 
ENDROOT
BRANCH   1   8
HETATM    8  C   LIG     1      -0.581  -1.838  -0.064  1.00  0.00     0.310 C 
HETATM    9  O   LIG     1      -1.743  -2.205  -0.209  1.00  0.00    -0.258 OA
BRANCH   8  10
HETATM   10  O   LIG     1       0.477  -2.682   0.118  1.00  0.00    -0.317 OA
BRANCH  10  11
HETATM   11  C   LIG     1       0.182  -4.083   0.085  1.00  0.00     0.175 C 
HETATM   12  C   LIG     1      -0.297  -4.562   1.443  1.00  0.00     0.034 C 
ENDBRANCH  10  11
ENDBRANCH   8  10
ENDBRANCH   1   8
TORSDOF 3
