REMARK  2 active torsions:
REMARK  status: ('A' for Active; 'I' for Inactive)
REMARK    1  A    between atoms: C_1  and  C_2 
REMARK    2  A    between atoms: C_2  and  O_5 
ROOT
HETATM    1  C   LIG     1      -0.782  -0.527  -0.185  1.00  0.00     0.078 A 
HETATM    2  C   LIG     1       0.261  -1.439  -0.022  1.00  0.00     0.132 A 
HETATM    3  F   LIG     1       0.055  -2.762  -0.102  1.00  0.00    -0.205 F 
HETATM    4  C   LIG     1      -0.506   0.847  -0.146  1.00  0.00     0.021 A 
HETATM    5  C   LIG     1       1.564  -0.994   0.199  1.00  0.00     0.043 A 
HETATM    6  C   LIG     1       0.799   1.295   0.077  1.00  0.00     0.001 A 
HETATM    7  C   LIG     1       1.833   0.374   0.252  1.00  0.00     0.003 A 
ENDROOT
BRANCH   1   8
HETATM    8  C   LIG     1      -2.175  -0.955  -0.428  1.00  0.00     0.296 C 
HETATM    9  O   LIG     1      -2.981  -0.278  -1.047  1.00  0.00    -0.259 OA
BRANCH   8  10
HETATM   10  O   LIG     1      -2.428  -2.132   0.190  1.00  0.00    -0.322 OA
HETATM   11  C   LIG     1      -3.761  -2.611   0.013  1.00  0.00     0.213 C 
ENDBRANCH   8  10
ENDBRANCH   1   8
TORSDOF 2
