REMARK  1 active torsions:
REMARK  status: ('A' for Active; 'I' for Inactive)
REMARK       I    between atoms: C_5  and  N_6 
REMARK    1  A    between atoms: N_6  and  C_9 
ROOT
HETATM    1  C   LIG     1      -0.640   0.702  -0.031  1.00  0.00     0.016 A 
HETATM    2  C   LIG     1      -0.320  -0.648   0.012  1.00  0.00    -0.042 A 
HETATM    3  C   LIG     1      -2.089   0.837   0.010  1.00  0.00     0.160 A 
HETATM    4  C   LIG     1       0.316   1.693  -0.111  1.00  0.00     0.018 A 
HETATM    5  C   LIG     1       1.011  -1.042  -0.028  1.00  0.00     0.037 A 
HETATM    6  C   LIG     1       2.015  -0.062  -0.138  1.00  0.00     0.035 A 
HETATM    7  C   LIG     1      -1.534  -1.519   0.080  1.00  0.00     0.047 A 
HETATM    8  C   LIG     1      -2.716  -0.534   0.074  1.00  0.00     0.088 A 
HETATM    9  O   LIG     1      -2.680   1.900  -0.011  1.00  0.00    -0.292 OA
HETATM   10  C   LIG     1       1.657   1.299  -0.167  1.00  0.00     0.030 A 
ENDROOT
BRANCH   6  11
HETATM   11  N   LIG     1       3.348  -0.516  -0.222  1.00  0.00    -0.328 N 
HETATM   12  C   LIG     1       4.470   0.239  -0.519  1.00  0.00     0.218 C 
HETATM   13  O   LIG     1       4.509   1.437  -0.769  1.00  0.00    -0.274 OA
HETATM   14  C   LIG     1       5.729  -0.592  -0.519  1.00  0.00     0.117 C 
ATOM     15  HN  LIG     1       3.502  -1.509  -0.045  1.00  0.00     0.169 HD
ENDBRANCH   6  11
TORSDOF 1
