REMARK  1 active torsions:
REMARK  status: ('A' for Active; 'I' for Inactive)
REMARK    1  A    between atoms: C_1  and  C_2 
ROOT
HETATM    1  C   LIG     1      -1.426  -0.150  -0.086  1.00  0.00     0.046 A 
HETATM    2  C   LIG     1      -0.626  -1.309  -0.150  1.00  0.00    -0.043 A 
HETATM    3  C   LIG     1      -0.819   1.118  -0.031  1.00  0.00     0.020 A 
HETATM    4  C   LIG     1       0.775  -1.165  -0.103  1.00  0.00     0.031 A 
HETATM    5  C   LIG     1       1.362   0.099  -0.029  1.00  0.00     0.034 A 
HETATM    6  C   LIG     1       0.571   1.242  -0.001  1.00  0.00     0.025 A 
HETATM    7 CL   LIG     1       3.075   0.244   0.019  1.00  0.00    -0.084 Cl
HETATM    8  C   LIG     1      -1.196  -2.696  -0.254  1.00  0.00     0.049 C 
ENDROOT
BRANCH   1   9
HETATM    9  C   LIG     1      -2.911  -0.153  -0.089  1.00  0.00     0.209 C 
HETATM   10  O   LIG     1      -3.619   0.741  -0.516  1.00  0.00    -0.644 OA
HETATM   11  O   LIG     1      -3.440  -1.217   0.536  1.00  0.00    -0.644 OA
ENDBRANCH   1   9
TORSDOF 1
