REMARK  2 active torsions:
REMARK  status: ('A' for Active; 'I' for Inactive)
REMARK    1  A    between atoms: C_1  and  C_2 
REMARK    2  A    between atoms: C_2  and  O_5 
ROOT
HETATM    1  C   LIG     1      -0.799  -0.672  -0.118  1.00  0.00     0.061 A 
HETATM    2  C   LIG     1       0.321  -1.514  -0.155  1.00  0.00     0.050 A 
HETATM    3 CL   LIG     1       0.235  -3.235  -0.305  1.00  0.00    -0.083 Cl
HETATM    4  C   LIG     1      -0.605   0.722  -0.084  1.00  0.00     0.019 A 
HETATM    5  C   LIG     1       1.609  -0.960  -0.126  1.00  0.00     0.025 A 
HETATM    6  C   LIG     1       0.682   1.265  -0.063  1.00  0.00     0.001 A 
HETATM    7  C   LIG     1       1.789   0.423  -0.078  1.00  0.00     0.002 A 
ENDROOT
BRANCH   1   8
HETATM    8  C   LIG     1      -2.210  -1.132  -0.132  1.00  0.00     0.294 C 
HETATM    9  O   LIG     1      -3.116  -0.482  -0.626  1.00  0.00    -0.259 OA
BRANCH   8  10
HETATM   10  O   LIG     1      -2.351  -2.281   0.569  1.00  0.00    -0.322 OA
HETATM   11  C   LIG     1      -3.690  -2.772   0.646  1.00  0.00     0.213 C 
ENDBRANCH   8  10
ENDBRANCH   1   8
TORSDOF 2
