REMARK  1 active torsions:
REMARK  status: ('A' for Active; 'I' for Inactive)
REMARK    1  A    between atoms: N_1  and  C_3 
REMARK       I    between atoms: N_1  and  C_4 
ROOT
HETATM    1  C   LIG     1       0.475  -1.773  -0.448  1.00  0.00     0.040 A 
HETATM    2  C   LIG     1       0.437  -3.177  -0.323  1.00  0.00    -0.034 A 
HETATM    3  C   LIG     1      -0.334  -3.922  -1.234  1.00  0.00     0.032 A 
HETATM    4  C   LIG     1      -0.296  -1.148  -1.438  1.00  0.00     0.032 A 
HETATM    5  C   LIG     1      -1.083  -3.284  -2.221  1.00  0.00     0.034 A 
HETATM    6  C   LIG     1      -1.077  -1.899  -2.319  1.00  0.00     0.026 A 
HETATM    7 CL   LIG     1      -2.009  -4.218  -3.330  1.00  0.00    -0.084 Cl
HETATM    8  C   LIG     1       1.291  -3.921   0.668  1.00  0.00     0.050 C 
ENDROOT
BRANCH   1   9
HETATM    9  N   LIG     1       1.277  -1.017   0.435  1.00  0.00    -0.327 N 
HETATM   10  C   LIG     1       1.872   0.192   0.135  1.00  0.00     0.218 C 
HETATM   11  O   LIG     1       1.854   0.757  -0.960  1.00  0.00    -0.274 OA
HETATM   12  C   LIG     1       2.623   0.795   1.293  1.00  0.00     0.117 C 
ATOM     13  HN  LIG     1       1.429  -1.395   1.370  1.00  0.00     0.169 HD
ENDBRANCH   1   9
TORSDOF 1
