REMARK  2 active torsions:
REMARK  status: ('A' for Active; 'I' for Inactive)
REMARK    1  A    between atoms: C_1  and  C_2 
REMARK    2  A    between atoms: C_3  and  C_4 
REMARK       I    between atoms: C_4  and  N_9 
ROOT
HETATM    1  C   LIG     1       0.354   1.099   0.998  1.00  0.00     0.063 A 
HETATM    2  C   LIG     1       1.057   2.180   0.433  1.00  0.00     0.046 A 
HETATM    3  C   LIG     1      -0.704   1.377   1.890  1.00  0.00     0.017 A 
HETATM    4  C   LIG     1       0.713   3.496   0.791  1.00  0.00     0.018 A 
HETATM    5  C   LIG     1      -1.043   2.688   2.226  1.00  0.00     0.001 A 
HETATM    6  C   LIG     1      -0.332   3.748   1.680  1.00  0.00     0.001 A 
ENDROOT
BRANCH   2   7
HETATM    7  C   LIG     1       2.207   2.050  -0.506  1.00  0.00     0.250 C 
HETATM    8  O   LIG     1       3.130   2.852  -0.483  1.00  0.00    -0.268 OA
HETATM    9  N   LIG     1       2.181   1.055  -1.437  1.00  0.00    -0.366 N 
ATOM     10  HN2 LIG     1       1.411   0.386  -1.456  1.00  0.00     0.159 HD
ATOM     11  HN1 LIG     1       2.968   0.966  -2.080  1.00  0.00     0.159 HD
ENDBRANCH   2   7
BRANCH   1  12
HETATM   12  C   LIG     1       0.708  -0.334   0.713  1.00  0.00     0.418 C 
HETATM   13  F   LIG     1       2.013  -0.630   0.949  1.00  0.00    -0.166 F 
HETATM   14  F   LIG     1       0.461  -0.680  -0.585  1.00  0.00    -0.166 F 
HETATM   15  F   LIG     1      -0.007  -1.226   1.458  1.00  0.00    -0.166 F 
ENDBRANCH   1  12
TORSDOF 2
