REMARK  2 active torsions:
REMARK  status: ('A' for Active; 'I' for Inactive)
REMARK    1  A    between atoms: C_1  and  O_2 
REMARK    2  A    between atoms: O_2  and  C_6 
ROOT
HETATM    1  C   LIG     1       0.879  -2.149  -1.520  1.00  0.00     0.078 A 
HETATM    2  C   LIG     1       0.786  -3.690  -3.880  1.00  0.00     0.046 A 
HETATM    3  N   LIG     1       0.919  -4.476  -5.029  1.00  0.00    -0.102 NA
HETATM    4  C   LIG     1       1.004  -1.541  -2.772  1.00  0.00     0.039 A 
HETATM    5  C   LIG     1       0.703  -3.529  -1.453  1.00  0.00     0.039 A 
HETATM    6  C   LIG     1       0.987  -2.311  -3.939  1.00  0.00     0.029 A 
HETATM    7  C   LIG     1       0.687  -4.295  -2.625  1.00  0.00     0.029 A 
ENDROOT
BRANCH   1   8
HETATM    8  O   LIG     1       0.953  -1.296  -0.456  1.00  0.00    -0.255 OA
BRANCH   8   9
HETATM    9  C   LIG     1       1.268  -1.872   0.801  1.00  0.00     0.530 C 
HETATM   10  F   LIG     1       2.344  -2.685   0.722  1.00  0.00    -0.144 F 
HETATM   11  F   LIG     1       0.217  -2.563   1.291  1.00  0.00    -0.144 F 
HETATM   12  F   LIG     1       1.560  -0.879   1.672  1.00  0.00    -0.144 F 
ENDBRANCH   8   9
ENDBRANCH   1   8
TORSDOF 2
