REMARK  1 active torsions:
REMARK  status: ('A' for Active; 'I' for Inactive)
REMARK    1  A    between atoms: C_1  and  C_3 
ROOT
HETATM    1  C   LIG     1      -1.419  -0.138  -0.052  1.00  0.00     0.065 A 
HETATM    2  C   LIG     1      -0.635  -1.306   0.024  1.00  0.00     0.063 A 
HETATM    3  C   LIG     1      -0.799   1.114  -0.204  1.00  0.00     0.021 A 
HETATM    4  C   LIG     1       0.764  -1.172   0.016  1.00  0.00     0.034 A 
HETATM    5  N   LIG     1      -1.171  -2.570   0.345  1.00  0.00    -0.101 NA
HETATM    6  C   LIG     1       0.592   1.218  -0.260  1.00  0.00     0.008 A 
HETATM    7  C   LIG     1       1.385   0.074  -0.158  1.00  0.00    -0.060 A 
HETATM    8  C   LIG     1       2.881   0.185  -0.149  1.00  0.00     0.048 C 
ENDROOT
BRANCH   1   9
HETATM    9  C   LIG     1      -2.906  -0.129  -0.002  1.00  0.00     0.211 C 
HETATM   10  O   LIG     1      -3.603   0.858   0.156  1.00  0.00    -0.644 OA
HETATM   11  O   LIG     1      -3.474  -1.332  -0.221  1.00  0.00    -0.644 OA
ENDBRANCH   1   9
TORSDOF 1
