REMARK  4 active torsions:
REMARK  status: ('A' for Active; 'I' for Inactive)
REMARK    1  A    between atoms: C_1  and  C_4 
REMARK    2  A    between atoms: C_1  and  O_6 
REMARK    3  A    between atoms: S_2  and  C_4 
REMARK    4  A    between atoms: S_2  and  C_5 
ROOT
HETATM    1  C   LIG     1       0.224  -2.304   2.975  1.00  0.00     0.001 A 
HETATM    2  C   LIG     1       1.187  -3.277   3.261  1.00  0.00     0.018 A 
HETATM    3  C   LIG     1      -1.056  -2.706   2.580  1.00  0.00     0.018 A 
HETATM    4  C   LIG     1       0.883  -4.635   3.125  1.00  0.00     0.001 A 
HETATM    5  C   LIG     1      -1.360  -4.063   2.444  1.00  0.00     0.001 A 
HETATM    6  C   LIG     1      -0.389  -5.027   2.713  1.00  0.00     0.000 A 
ENDROOT
BRANCH   1   7
HETATM    7  S   LIG     1       0.624  -0.577   3.188  1.00  0.00    -0.120 SA
BRANCH   7   8
HETATM    8  C   LIG     1       0.377   0.041   1.488  1.00  0.00     0.190 C 
BRANCH   8   9
HETATM    9  C   LIG     1       1.399  -0.503   0.514  1.00  0.00     0.268 C 
HETATM   10  O   LIG     1       2.531  -0.885   0.789  1.00  0.00    -0.264 OA
BRANCH   9  11
HETATM   11  O   LIG     1       0.907  -0.421  -0.758  1.00  0.00    -0.326 OA
HETATM   12  C   LIG     1       1.847  -0.789  -1.771  1.00  0.00     0.213 C 
ENDBRANCH   9  11
ENDBRANCH   8   9
ENDBRANCH   7   8
ENDBRANCH   1   7
TORSDOF 4
