REMARK  3 active torsions:
REMARK  status: ('A' for Active; 'I' for Inactive)
REMARK    1  A    between atoms: C_1  and  C_2 
REMARK    2  A    between atoms: C_8  and  C_10 
REMARK    3  A    between atoms: C_10  and  C_11 
ROOT
HETATM    1  C   LIG     1       0.295  -0.393  -0.821  1.00  0.00     0.009 A 
HETATM    2  C   LIG     1       0.051  -1.706  -1.243  1.00  0.00     0.015 A 
HETATM    3  C   LIG     1       0.002   0.667  -1.686  1.00  0.00     0.015 A 
HETATM    4  C   LIG     1      -0.521   0.414  -2.959  1.00  0.00     0.008 A 
HETATM    5  C   LIG     1      -0.471  -1.956  -2.516  1.00  0.00     0.008 A 
HETATM    6  C   LIG     1      -0.761  -0.899  -3.387  1.00  0.00    -0.058 A 
ENDROOT
BRANCH   1   7
HETATM    7  C   LIG     1       0.869  -0.175   0.543  1.00  0.00     0.155 C 
HETATM    8  O   LIG     1       1.096  -1.134   1.275  1.00  0.00    -0.293 OA
HETATM    9  C   LIG     1       1.176   1.233   0.986  1.00  0.00     0.096 C 
ENDBRANCH   1   7
BRANCH   6  10
HETATM   10  C   LIG     1      -1.290  -1.167  -4.778  1.00  0.00     0.038 C 
BRANCH  10  11
HETATM   11  C   LIG     1      -0.161  -1.290  -5.804  1.00  0.00     0.000 C 
HETATM   12  C   LIG     1      -0.683  -1.573  -7.206  1.00  0.00     0.005 C 
ENDBRANCH  10  11
ENDBRANCH   6  10
TORSDOF 3
