REMARK  4 active torsions:
REMARK  status: ('A' for Active; 'I' for Inactive)
REMARK    1  A    between atoms: C_1  and  C_11 
REMARK    2  A    between atoms: C_2  and  O_12 
REMARK    3  A    between atoms: C_5  and  O_13 
REMARK    4  A    between atoms: N_7  and  C_11 
ROOT
HETATM    1  C   LIG     1      -1.824   0.575   0.012  1.00  0.00     0.003 A 
HETATM    2  C   LIG     1      -1.381  -0.757   0.031  1.00  0.00     0.076 A 
HETATM    3  C   LIG     1      -0.872   1.613  -0.040  1.00  0.00     0.048 A 
HETATM    4  C   LIG     1      -0.005  -1.027   0.042  1.00  0.00     0.040 A 
HETATM    5  C   LIG     1       0.497   1.345  -0.017  1.00  0.00     0.069 A 
HETATM    6  C   LIG     1       0.920   0.023   0.030  1.00  0.00     0.039 A 
ENDROOT
BRANCH   1   7
HETATM    7  C   LIG     1      -3.302   0.915   0.002  1.00  0.00     0.271 C 
BRANCH   7   8
HETATM    8  N   LIG     1      -3.590   2.216   0.619  1.00  0.00    -0.075 N 
ATOM      9  HN3 LIG     1      -3.210   2.264   1.564  1.00  0.00     0.274 HD
ATOM     10  HN2 LIG     1      -3.042   2.957   0.182  1.00  0.00     0.274 HD
ATOM     11  HN1 LIG     1      -4.584   2.445   0.612  1.00  0.00     0.274 HD
ENDBRANCH   7   8
ENDBRANCH   1   7
BRANCH   2  12
HETATM   12  O   LIG     1      -2.353  -1.722  -0.012  1.00  0.00    -0.355 OA
HETATM   13  C   LIG     1      -1.997  -3.017   0.459  1.00  0.00     0.210 C 
ENDBRANCH   2  12
BRANCH   5  14
HETATM   14  O   LIG     1       1.485   2.290  -0.037  1.00  0.00    -0.356 OA
HETATM   15  C   LIG     1       1.057   3.648  -0.094  1.00  0.00     0.210 C 
ENDBRANCH   5  14
TORSDOF 4
