REMARK  2 active torsions:
REMARK  status: ('A' for Active; 'I' for Inactive)
REMARK    1  A    between atoms: C_1  and  C_2 
REMARK    2  A    between atoms: C_1  and  O_10 
ROOT
HETATM    1  C   LIG     1       0.094   1.948  -0.297  1.00  0.00     0.041 A 
HETATM    2  C   LIG     1      -0.098   4.365  -0.277  1.00  0.00     0.041 A 
HETATM    3  C   LIG     1       0.536   3.199   0.150  1.00  0.00     0.042 A 
HETATM    4  C   LIG     1      -1.185   4.306  -1.161  1.00  0.00    -0.040 A 
HETATM    5  C   LIG     1      -0.997   1.877  -1.170  1.00  0.00     0.018 A 
HETATM    6  C   LIG     1      -1.631   3.048  -1.598  1.00  0.00     0.009 A 
HETATM    7 CL   LIG     1       0.508   5.869   0.320  1.00  0.00    -0.084 Cl
HETATM    8  C   LIG     1      -1.876   5.551  -1.638  1.00  0.00     0.050 C 
ENDROOT
BRANCH   1   9
HETATM    9  C   LIG     1       0.767   0.690   0.130  1.00  0.00     0.293 C 
HETATM   10  O   LIG     1       0.414  -0.426  -0.203  1.00  0.00    -0.259 OA
BRANCH   9  11
HETATM   11  O   LIG     1       1.822   0.998   0.925  1.00  0.00    -0.323 OA
HETATM   12  C   LIG     1       2.596  -0.104   1.393  1.00  0.00     0.213 C 
ENDBRANCH   9  11
ENDBRANCH   1   9
TORSDOF 2
