REMARK  2 active torsions:
REMARK  status: ('A' for Active; 'I' for Inactive)
REMARK    1  A    between atoms: C_1  and  C_2 
REMARK    2  A    between atoms: C_1  and  O_5 
ROOT
HETATM    1  C   LIG     1       0.401  -1.325  -1.404  1.00  0.00     0.045 A 
HETATM    2  C   LIG     1      -0.466  -0.898  -2.430  1.00  0.00    -0.046 A 
HETATM    3  C   LIG     1       0.391  -2.676  -1.006  1.00  0.00     0.018 A 
HETATM    4  C   LIG     1      -0.551   0.533  -2.887  1.00  0.00     0.049 C 
HETATM    5  C   LIG     1      -1.305  -1.847  -3.043  1.00  0.00     0.008 A 
HETATM    6  C   LIG     1      -0.446  -3.601  -1.626  1.00  0.00     0.001 A 
HETATM    7  C   LIG     1      -1.290  -3.186  -2.649  1.00  0.00     0.001 A 
ENDROOT
BRANCH   1   8
HETATM    8  C   LIG     1       1.326  -0.386  -0.701  1.00  0.00     0.293 C 
HETATM    9  O   LIG     1       1.142   0.812  -0.556  1.00  0.00    -0.259 OA
BRANCH   8  10
HETATM   10  O   LIG     1       2.404  -1.086  -0.261  1.00  0.00    -0.323 OA
HETATM   11  C   LIG     1       3.348  -0.356   0.521  1.00  0.00     0.213 C 
ENDBRANCH   8  10
ENDBRANCH   1   8
TORSDOF 2
