REMARK  0 active torsions:
REMARK  status: ('A' for Active; 'I' for Inactive)
ROOT
HETATM    1  N   LIG     1       0.966  -0.017  -0.191  1.00  0.00    -0.191 NA
HETATM    2  C   LIG     1       3.562  -0.037  -0.046  1.00  0.00     0.056 A 
HETATM    3  C   LIG     1       2.128  -0.024  -0.140  1.00  0.00     0.100 C 
HETATM    4  C   LIG     1       4.273   1.175   0.115  1.00  0.00    -0.041 A 
HETATM    5  C   LIG     1       4.263  -1.264  -0.083  1.00  0.00    -0.041 A 
HETATM    6  C   LIG     1       6.347  -0.078   0.314  1.00  0.00     0.001 A 
HETATM    7  C   LIG     1       5.668   1.137   0.278  1.00  0.00     0.008 A 
HETATM    8  C   LIG     1       5.651  -1.269   0.131  1.00  0.00     0.008 A 
HETATM    9  C   LIG     1       3.600  -2.587  -0.369  1.00  0.00     0.050 C 
HETATM   10  C   LIG     1       3.613   2.530   0.096  1.00  0.00     0.050 C 
ENDROOT
TORSDOF 0
