REMARK  1 active torsions:
REMARK  status: ('A' for Active; 'I' for Inactive)
REMARK    1  A    between atoms: C_1  and  C_2 
REMARK       I    between atoms: C_2  and  N_6 
ROOT
HETATM    1  C   LIG     1       0.182  -1.436   0.143  1.00  0.00     0.038 A 
HETATM    2  C   LIG     1       1.364  -0.669   0.036  1.00  0.00    -0.040 A 
HETATM    3  C   LIG     1       1.245   0.735  -0.104  1.00  0.00    -0.055 A 
HETATM    4  C   LIG     1      -1.078  -0.836   0.021  1.00  0.00     0.017 A 
HETATM    5  C   LIG     1       2.724  -1.317   0.077  1.00  0.00     0.050 C 
HETATM    6  C   LIG     1      -1.183   0.539  -0.157  1.00  0.00     0.002 A 
HETATM    7  C   LIG     1      -0.030   1.318  -0.209  1.00  0.00     0.007 A 
HETATM    8  C   LIG     1       2.452   1.631  -0.186  1.00  0.00     0.049 C 
ENDROOT
BRANCH   1   9
HETATM    9  C   LIG     1       0.179  -2.899   0.393  1.00  0.00     0.249 C 
HETATM   10  O   LIG     1      -0.502  -3.667  -0.273  1.00  0.00    -0.268 OA
HETATM   11  N   LIG     1       0.910  -3.330   1.464  1.00  0.00    -0.366 N 
ATOM     12  HN2 LIG     1       1.478  -2.690   2.019  1.00  0.00     0.159 HD
ATOM     13  HN1 LIG     1       0.908  -4.335   1.636  1.00  0.00     0.159 HD
ENDBRANCH   1   9
TORSDOF 1
