REMARK  2 active torsions:
REMARK  status: ('A' for Active; 'I' for Inactive)
REMARK    1  A    between atoms: C_1  and  C_2 
REMARK    2  A    between atoms: C_1  and  O_6 
ROOT
HETATM    1  C   LIG     1       0.046  -0.022  -1.881  1.00  0.00     0.041 A 
HETATM    2  C   LIG     1      -0.178  -1.263  -2.498  1.00  0.00     0.044 A 
HETATM    3  C   LIG     1      -0.731  -1.330  -3.781  1.00  0.00     0.047 A 
HETATM    4  N   LIG     1      -1.081  -2.567  -4.338  1.00  0.00    -0.102 NA
HETATM    5  C   LIG     1      -0.316   1.156  -2.547  1.00  0.00     0.018 A 
HETATM    6  C   LIG     1      -0.925   1.092  -3.797  1.00  0.00     0.003 A 
HETATM    7  C   LIG     1      -1.152  -0.147  -4.396  1.00  0.00     0.026 A 
ENDROOT
BRANCH   1   8
HETATM    8  C   LIG     1       0.617   0.003  -0.505  1.00  0.00     0.293 C 
HETATM    9  O   LIG     1       0.868  -0.990   0.154  1.00  0.00    -0.259 OA
BRANCH   8  10
HETATM   10  O   LIG     1       0.779   1.291  -0.106  1.00  0.00    -0.323 OA
HETATM   11  C   LIG     1       1.213   1.455   1.243  1.00  0.00     0.213 C 
ENDBRANCH   8  10
ENDBRANCH   1   8
TORSDOF 2
