REMARK  2 active torsions:
REMARK  status: ('A' for Active; 'I' for Inactive)
REMARK       I    between atoms: C_1  and  N_2 
REMARK    1  A    between atoms: N_2  and  C_8 
REMARK    2  A    between atoms: C_7  and  C_8 
ROOT
HETATM    1  N   LIG     1      -2.019  -2.965  -3.771  1.00  0.00    -0.375 N 
ATOM      2  HN  LIG     1      -2.131  -3.925  -4.098  1.00  0.00     0.164 HD
HETATM    3  C   LIG     1      -1.487  -1.401  -1.998  1.00  0.00    -0.025 A 
HETATM    4  C   LIG     1      -1.658  -2.688  -2.499  1.00  0.00     0.096 A 
HETATM    5  C   LIG     1      -2.224  -1.910  -4.589  1.00  0.00     0.087 A 
HETATM    6  C   LIG     1      -1.700  -0.336  -2.878  1.00  0.00     0.011 A 
HETATM    7  C   LIG     1      -2.078  -0.591  -4.193  1.00  0.00     0.018 A 
ENDROOT
BRANCH   3   8
HETATM    8  C   LIG     1      -1.034  -1.176  -0.589  1.00  0.00     0.162 C 
BRANCH   8   9
HETATM    9  N   LIG     1       0.391  -0.943  -0.538  1.00  0.00    -0.357 N 
HETATM   10  C   LIG     1       1.022  -0.684   0.652  1.00  0.00     0.213 C 
HETATM   11  O   LIG     1       0.436  -0.626   1.728  1.00  0.00    -0.274 OA
HETATM   12  C   LIG     1       2.507  -0.476   0.534  1.00  0.00     0.117 C 
ATOM     13  HN  LIG     1       0.936  -0.972  -1.400  1.00  0.00     0.162 HD
ENDBRANCH   8   9
ENDBRANCH   3   8
TORSDOF 2
