REMARK  0 active torsions:
REMARK  status: ('A' for Active; 'I' for Inactive)
ROOT
HETATM    1  N   LIG     1       0.888  -0.686   0.006  1.00  0.00    -0.266 N 
ATOM      2  HN  LIG     1       1.725  -1.269   0.008  1.00  0.00     0.194 HD
HETATM    3  O   LIG     1       0.833   0.697   0.003  1.00  0.00    -0.243 OA
HETATM    4  C   LIG     1      -1.280  -0.007   0.002  1.00  0.00     0.060 A 
HETATM    5  C   LIG     1      -0.466   1.098   0.002  1.00  0.00     0.074 A 
HETATM    6  C   LIG     1      -0.384  -1.100   0.006  1.00  0.00     0.031 A 
HETATM    7  C   LIG     1      -0.704   2.551   0.001  1.00  0.00     0.079 C 
HETATM    8  C   LIG     1      -0.698  -2.546   0.010  1.00  0.00     0.070 C 
ENDROOT
TORSDOF 0
