REMARK  2 active torsions:
REMARK  status: ('A' for Active; 'I' for Inactive)
REMARK    1  A    between atoms: C_3  and  C_8 
REMARK    2  A    between atoms: N_4  and  C_8 
ROOT
HETATM    1  N   LIG     1       0.854   1.299   0.126  1.00  0.00    -0.375 N 
ATOM      2  HN  LIG     1       1.264   2.232   0.175  1.00  0.00     0.164 HD
HETATM    3  C   LIG     1      -1.097  -0.131  -0.082  1.00  0.00    -0.017 A 
HETATM    4  C   LIG     1      -0.480   1.114  -0.006  1.00  0.00     0.096 A 
HETATM    5  C   LIG     1       1.615   0.186   0.189  1.00  0.00     0.087 A 
HETATM    6  C   LIG     1      -0.270  -1.258  -0.007  1.00  0.00     0.011 A 
HETATM    7  C   LIG     1       1.106  -1.100   0.129  1.00  0.00     0.018 A 
ENDROOT
BRANCH   3   8
HETATM    8  C   LIG     1      -2.592  -0.255  -0.203  1.00  0.00     0.271 C 
BRANCH   8   9
HETATM    9  N   LIG     1      -2.973  -1.004  -1.401  1.00  0.00    -0.075 N 
HETATM   10  C   LIG     1      -4.421  -1.107  -1.514  1.00  0.00     0.267 C 
ATOM     11  HN2 LIG     1      -2.558  -0.604  -2.242  1.00  0.00     0.277 HD
ATOM     12  HN1 LIG     1      -2.527  -1.921  -1.429  1.00  0.00     0.277 HD
ENDBRANCH   8   9
ENDBRANCH   3   8
TORSDOF 2
