REMARK  2 active torsions:
REMARK  status: ('A' for Active; 'I' for Inactive)
REMARK    1  A    between atoms: C_1  and  C_3 
REMARK    2  A    between atoms: C_1  and  O_7 
ROOT
HETATM    1  N   LIG     1      -1.620   1.869   2.538  1.00  0.00    -0.191 NA
HETATM    2  C   LIG     1      -0.247  -1.232   1.420  1.00  0.00     0.060 A 
HETATM    3  C   LIG     1      -1.385   0.738   2.441  1.00  0.00     0.100 C 
HETATM    4  C   LIG     1      -1.114  -0.670   2.369  1.00  0.00     0.060 A 
HETATM    5  C   LIG     1       0.023  -2.610   1.452  1.00  0.00     0.019 A 
HETATM    6  C   LIG     1      -1.727  -1.507   3.317  1.00  0.00     0.024 A 
HETATM    7  C   LIG     1      -0.592  -3.430   2.399  1.00  0.00     0.001 A 
HETATM    8  C   LIG     1      -1.471  -2.880   3.327  1.00  0.00     0.002 A 
ENDROOT
BRANCH   2   9
HETATM    9  C   LIG     1       0.423  -0.455   0.349  1.00  0.00     0.294 C 
HETATM   10  O   LIG     1       1.533  -0.721  -0.081  1.00  0.00    -0.259 OA
BRANCH   9  11
HETATM   11  O   LIG     1      -0.429   0.475  -0.141  1.00  0.00    -0.322 OA
HETATM   12  C   LIG     1       0.075   1.207  -1.259  1.00  0.00     0.213 C 
ENDBRANCH   9  11
ENDBRANCH   2   9
TORSDOF 2
