REMARK  1 active torsions:
REMARK  status: ('A' for Active; 'I' for Inactive)
REMARK    1  A    between atoms: C_1  and  C_2 
ROOT
HETATM    1  C   LIG     1       0.365  -0.699  -0.984  1.00  0.00     0.042 A 
HETATM    2  C   LIG     1      -0.806  -1.032  -3.071  1.00  0.00     0.041 A 
HETATM    3  C   LIG     1      -0.325  -0.172  -2.079  1.00  0.00     0.042 A 
HETATM    4  C   LIG     1      -0.597  -2.419  -2.987  1.00  0.00    -0.040 A 
HETATM    5  C   LIG     1       0.602  -2.073  -0.898  1.00  0.00     0.019 A 
HETATM    6  C   LIG     1       0.119  -2.927  -1.892  1.00  0.00     0.009 A 
HETATM    7 CL   LIG     1      -1.661  -0.328  -4.397  1.00  0.00    -0.084 Cl
HETATM    8  C   LIG     1      -1.102  -3.364  -4.042  1.00  0.00     0.050 C 
ENDROOT
BRANCH   1   9
HETATM    9  C   LIG     1       0.897   0.175   0.085  1.00  0.00     0.209 C 
HETATM   10  O   LIG     1       1.978  -0.007   0.615  1.00  0.00    -0.644 OA
HETATM   11  O   LIG     1       0.041   1.154   0.446  1.00  0.00    -0.644 OA
ENDBRANCH   1   9
TORSDOF 1
