REMARK  4 active torsions:
REMARK  status: ('A' for Active; 'I' for Inactive)
REMARK    1  A    between atoms: C_1  and  O_2 
REMARK    2  A    between atoms: O_2  and  C_6 
REMARK    3  A    between atoms: C_7  and  C_14 
REMARK    4  A    between atoms: O_12  and  C_14 
ROOT
HETATM    1  C   LIG     1       0.853  -2.838  -1.363  1.00  0.00     0.078 A 
HETATM    2  C   LIG     1       0.918  -4.807  -3.380  1.00  0.00    -0.035 A 
HETATM    3  C   LIG     1       1.192  -2.495  -2.672  1.00  0.00     0.037 A 
HETATM    4  C   LIG     1       0.565  -4.173  -1.066  1.00  0.00     0.037 A 
HETATM    5  C   LIG     1       1.227  -3.473  -3.672  1.00  0.00     0.012 A 
HETATM    6  C   LIG     1       0.602  -5.153  -2.062  1.00  0.00     0.012 A 
ENDROOT
BRANCH   1   7
HETATM    7  O   LIG     1       0.769  -1.988  -0.298  1.00  0.00    -0.255 OA
BRANCH   7   8
HETATM    8  C   LIG     1       1.037  -0.616  -0.529  1.00  0.00     0.530 C 
HETATM    9  F   LIG     1       0.180  -0.094  -1.433  1.00  0.00    -0.144 F 
HETATM   10  F   LIG     1       2.306  -0.432  -0.953  1.00  0.00    -0.144 F 
HETATM   11  F   LIG     1       0.881   0.059   0.632  1.00  0.00    -0.144 F 
ENDBRANCH   7   8
ENDBRANCH   1   7
BRANCH   2  12
HETATM   12  C   LIG     1       0.973  -5.855  -4.458  1.00  0.00     0.202 C 
BRANCH  12  13
HETATM   13  O   LIG     1       2.278  -6.407  -4.560  1.00  0.00    -0.396 OA
ATOM     14  HO  LIG     1       2.313  -7.069  -5.241  1.00  0.00     0.209 HD
ENDBRANCH  12  13
ENDBRANCH   2  12
TORSDOF 4
