REMARK  2 active torsions:
REMARK  status: ('A' for Active; 'I' for Inactive)
REMARK    1  A    between atoms: C_1  and  O_3 
REMARK    2  A    between atoms: O_3  and  C_6 
ROOT
HETATM    1  N   LIG     1      -0.740   3.211   1.639  1.00  0.00    -0.191 NA
HETATM    2  C   LIG     1      -0.196   3.267   0.614  1.00  0.00     0.102 C 
HETATM    3  C   LIG     1       0.478   3.377  -0.648  1.00  0.00     0.078 A 
HETATM    4  C   LIG     1       0.866   2.238  -1.375  1.00  0.00     0.099 A 
HETATM    5  C   LIG     1       0.764   4.658  -1.144  1.00  0.00     0.025 A 
HETATM    6  C   LIG     1       1.494   2.403  -2.615  1.00  0.00     0.039 A 
HETATM    7  C   LIG     1       1.416   4.809  -2.367  1.00  0.00     0.002 A 
HETATM    8  C   LIG     1       1.773   3.683  -3.103  1.00  0.00     0.003 A 
ENDROOT
BRANCH   4   9
HETATM    9  O   LIG     1       0.559   1.019  -0.831  1.00  0.00    -0.254 OA
BRANCH   9  10
HETATM   10  C   LIG     1       1.432  -0.057  -1.147  1.00  0.00     0.530 C 
HETATM   11  F   LIG     1       2.724   0.299  -0.989  1.00  0.00    -0.144 F 
HETATM   12  F   LIG     1       1.233  -0.481  -2.413  1.00  0.00    -0.144 F 
HETATM   13  F   LIG     1       1.173  -1.088  -0.314  1.00  0.00    -0.144 F 
ENDBRANCH   9  10
ENDBRANCH   4   9
TORSDOF 2
