REMARK  3 active torsions:
REMARK  status: ('A' for Active; 'I' for Inactive)
REMARK    1  A    between atoms: C_1  and  C_7 
REMARK    2  A    between atoms: C_7  and  C_8 
REMARK    3  A    between atoms: C_8  and  O_10 
ROOT
HETATM    1  C   LIG     1      -0.349  -1.022  -0.013  1.00  0.00     0.032 A 
HETATM    2  N   LIG     1       0.966  -0.576  -0.018  1.00  0.00    -0.356 N 
ATOM      3  HN  LIG     1       1.786  -1.182  -0.021  1.00  0.00     0.166 HD
HETATM    4  S   LIG     1      -0.521   1.519   0.020  1.00  0.00    -0.080 SA
HETATM    5  C   LIG     1      -1.299  -0.009   0.042  1.00  0.00     0.004 A 
HETATM    6  C   LIG     1       1.004   0.738  -0.018  1.00  0.00     0.047 A 
HETATM    7  C   LIG     1      -2.786  -0.079   0.080  1.00  0.00     0.058 C 
HETATM    8  C   LIG     1       2.252   1.544  -0.043  1.00  0.00     0.076 C 
ENDROOT
BRANCH   1   9
HETATM    9  C   LIG     1      -0.577  -2.500  -0.025  1.00  0.00     0.169 C 
BRANCH   9  10
HETATM   10  C   LIG     1      -1.387  -2.961  -1.215  1.00  0.00     0.264 C 
HETATM   11  O   LIG     1      -1.824  -2.263  -2.118  1.00  0.00    -0.265 OA
BRANCH  10  12
HETATM   12  O   LIG     1      -1.627  -4.305  -1.104  1.00  0.00    -0.326 OA
HETATM   13  C   LIG     1      -2.531  -4.806  -2.090  1.00  0.00     0.213 C 
ENDBRANCH  10  12
ENDBRANCH   9  10
ENDBRANCH   1   9
TORSDOF 3
