REMARK  2 active torsions:
REMARK  status: ('A' for Active; 'I' for Inactive)
REMARK    1  A    between atoms: S_1  and  C_2 
REMARK    2  A    between atoms: S_1  and  N_10 
ROOT
HETATM    1  C   LIG     1       0.484  -1.266   1.206  1.00  0.00     0.089 A 
HETATM    2  C   LIG     1      -0.175  -0.930   2.413  1.00  0.00    -0.017 A 
HETATM    3  C   LIG     1      -0.451  -1.974   3.319  1.00  0.00     0.044 A 
HETATM    4  C   LIG     1       0.800  -2.597   0.904  1.00  0.00     0.068 A 
HETATM    5  C   LIG     1      -0.130  -3.299   3.016  1.00  0.00     0.066 A 
HETATM    6  C   LIG     1       0.484  -3.595   1.810  1.00  0.00     0.119 A 
HETATM    7 CL   LIG     1      -1.183  -1.686   4.860  1.00  0.00    -0.084 Cl
HETATM    8  F   LIG     1       0.790  -4.866   1.521  1.00  0.00    -0.206 F 
HETATM    9  C   LIG     1      -0.525   0.498   2.751  1.00  0.00     0.052 C 
ENDROOT
BRANCH   1  10
HETATM   10  S   LIG     1       0.964  -0.001   0.056  1.00  0.00     0.257 S 
HETATM   11  O   LIG     1       1.726   1.001   0.763  1.00  0.00    -0.201 OA
HETATM   12  O   LIG     1      -0.177   0.310  -0.770  1.00  0.00    -0.201 OA
BRANCH  10  13
HETATM   13  N   LIG     1       2.078  -0.739  -0.964  1.00  0.00    -0.324 N 
ATOM     14  HN2 LIG     1       2.399  -1.706  -0.919  1.00  0.00     0.169 HD
ATOM     15  HN1 LIG     1       2.354  -0.012  -1.625  1.00  0.00     0.169 HD
ENDBRANCH  10  13
ENDBRANCH   1  10
TORSDOF 2
