REMARK  3 active torsions:
REMARK  status: ('A' for Active; 'I' for Inactive)
REMARK    1  A    between atoms: C_1  and  O_6 
REMARK    2  A    between atoms: C_5  and  O_10 
REMARK    3  A    between atoms: O_6  and  C_8 
ROOT
HETATM    1  C   LIG     1      -0.470   1.058  -0.035  1.00  0.00     0.091 A 
HETATM    2  C   LIG     1      -1.224  -0.132  -0.147  1.00  0.00    -0.019 A 
HETATM    3  C   LIG     1      -0.565  -1.376   0.025  1.00  0.00    -0.020 A 
HETATM    4  C   LIG     1       0.919   1.045   0.186  1.00  0.00    -0.025 A 
HETATM    5  C   LIG     1       0.829  -1.375   0.199  1.00  0.00     0.072 A 
HETATM    6  C   LIG     1       1.556  -0.191   0.300  1.00  0.00     0.046 A 
HETATM    7  C   LIG     1      -2.706  -0.074  -0.414  1.00  0.00     0.052 C 
HETATM    8  C   LIG     1      -1.319  -2.679  -0.030  1.00  0.00     0.052 C 
HETATM    9  C   LIG     1       1.734   2.304   0.255  1.00  0.00     0.051 C 
ENDROOT
BRANCH   1  10
HETATM   10  O   LIG     1      -1.084   2.290  -0.336  1.00  0.00    -0.278 OA
BRANCH  10  11
HETATM   11  C   LIG     1      -1.241   3.171   0.725  1.00  0.00     0.260 C 
HETATM   12  O   LIG     1      -1.221   2.893   1.921  1.00  0.00    -0.265 OA
HETATM   13  C   LIG     1      -1.434   4.556   0.182  1.00  0.00     0.126 C 
ENDBRANCH  10  11
ENDBRANCH   1  10
BRANCH   5  14
HETATM   14  O   LIG     1       1.572  -2.522   0.257  1.00  0.00    -0.360 OA
ATOM     15  HO  LIG     1       2.515  -2.521   0.375  1.00  0.00     0.217 HD
ENDBRANCH   5  14
TORSDOF 3
