REMARK  1 active torsions:
REMARK  status: ('A' for Active; 'I' for Inactive)
REMARK    1  A    between atoms: C_3  and  C_7 
ROOT
HETATM    1  N   UNL     1       0.896   0.844  -0.442  1.00  0.00    -0.300 N 
ATOM      2  HN  UNL     1       1.529   1.478  -0.929  1.00  0.00     0.187 HD
HETATM    3  C   UNL     1      -0.319   1.122   0.059  1.00  0.00     0.059 A 
HETATM    4  N   UNL     1       1.092  -0.453  -0.159  1.00  0.00    -0.311 N 
HETATM    5  C   UNL     1      -0.895  -0.045   0.635  1.00  0.00     0.050 A 
HETATM    6  C   UNL     1       0.040  -1.037   0.476  1.00  0.00     0.109 A 
HETATM    7  H   UNL     1       1.919  -0.936  -0.388  1.00  0.00     0.186 HD
ENDROOT
BRANCH   3   8
HETATM    8  C   UNL     1      -0.897   2.464  -0.016  1.00  0.00    -0.008 A 
HETATM    9  C   UNL     1      -0.552   3.330  -1.064  1.00  0.00     0.014 A 
HETATM   10  C   UNL     1      -1.104   4.611  -1.140  1.00  0.00     0.001 A 
HETATM   11  C   UNL     1      -2.003   5.042  -0.165  1.00  0.00     0.000 A 
HETATM   12  C   UNL     1      -2.350   4.194   0.884  1.00  0.00     0.001 A 
HETATM   13  C   UNL     1      -1.802   2.911   0.958  1.00  0.00     0.014 A 
ENDBRANCH   3   8
TORSDOF 1
