REMARK  1 active torsions:
REMARK  status: ('A' for Active; 'I' for Inactive)
REMARK    1  A    between atoms: C_9  and  N_10 
ROOT
HETATM    1  N   UNL     1      -2.388   0.007   0.217  1.00  0.00    -0.311 N 
ATOM      2  HN  UNL     1      -3.405   0.042   0.283  1.00  0.00     0.186 HD
HETATM    3  C   UNL     1      -0.227  -0.736   0.078  1.00  0.00     0.011 A 
HETATM    4  N   UNL     1      -1.521   1.033   0.141  1.00  0.00    -0.300 N 
HETATM    5  C   UNL     1      -0.207   0.653   0.051  1.00  0.00     0.059 A 
HETATM    6  C   UNL     1      -1.596  -1.068   0.185  1.00  0.00     0.120 A 
HETATM    7  C   UNL     1       0.988  -1.442   0.017  1.00  0.00     0.044 A 
HETATM    8  C   UNL     1       0.974   1.391  -0.029  1.00  0.00     0.034 A 
HETATM    9  C   UNL     1       2.191  -0.733  -0.118  1.00  0.00     0.026 A 
HETATM   10  C   UNL     1       2.172   0.665  -0.090  1.00  0.00     0.031 A 
HETATM   11  H   UNL     1      -1.805   1.976   0.149  1.00  0.00     0.187 HD
ENDROOT
BRANCH   9  12
HETATM   12  N   UNL     1       3.414  -1.417  -0.045  1.00  0.00    -0.399 N 
HETATM   13  H   UNL     1       3.430  -2.401  -0.064  1.00  0.00     0.156 HD
HETATM   14  H   UNL     1       4.256  -0.912   0.026  1.00  0.00     0.156 HD
ENDBRANCH   9  12
TORSDOF 1
