REMARK  5 active torsions:
REMARK  status: ('A' for Active; 'I' for Inactive)
REMARK    1  A    between atoms: N_1  and  C_3 
REMARK    2  A    between atoms: N_2  and  C_15 
REMARK    3  A    between atoms: C_3  and  C_8 
REMARK    4  A    between atoms: C_15  and  C_17 
REMARK    5  A    between atoms: O_16  and  C_17 
ROOT
HETATM    1  N   UNL     1      -1.449   0.035   0.591  1.00  0.00    -0.064 N 
HETATM    2  N   UNL     1       1.370  -0.115  -0.602  1.00  0.00    -0.066 N 
HETATM    3  C   UNL     1      -0.872  -1.211   0.051  1.00  0.00     0.263 C 
HETATM    4  C   UNL     1      -0.783   1.184  -0.054  1.00  0.00     0.263 C 
HETATM    5  C   UNL     1       0.680  -1.271   0.016  1.00  0.00     0.262 C 
HETATM    6  C   UNL     1       0.769   1.137  -0.098  1.00  0.00     0.262 C 
HETATM    7  H   UNL     1      -2.447   0.042   0.377  1.00  0.00     0.280 HD
HETATM    8  H   UNL     1       2.353  -0.119  -0.329  1.00  0.00     0.280 HD
ENDROOT
BRANCH   1   9
HETATM    9  C   UNL     1      -1.365   0.123   2.059  1.00  0.00     0.273 C 
BRANCH   9  10
HETATM   10  C   UNL     1      -2.325  -0.789   2.813  1.00  0.00    -0.032 A 
HETATM   11  C   UNL     1      -1.840  -1.687   3.777  1.00  0.00     0.012 A 
HETATM   12  C   UNL     1      -2.717  -2.430   4.574  1.00  0.00     0.043 A 
HETATM   13  C   UNL     1      -4.088  -2.275   4.414  1.00  0.00     0.116 A 
HETATM   14  C   UNL     1      -4.596  -1.405   3.456  1.00  0.00     0.043 A 
HETATM   15  F   UNL     1      -4.929  -2.956   5.203  1.00  0.00    -0.206 F 
HETATM   16  C   UNL     1      -3.720  -0.668   2.654  1.00  0.00     0.012 A 
ENDBRANCH   9  10
ENDBRANCH   1   9
BRANCH   2  17
HETATM   17  C   UNL     1       1.382  -0.210  -2.077  1.00  0.00     0.260 C 
BRANCH  17  18
HETATM   18  C   UNL     1       2.412   0.736  -2.732  1.00  0.00     0.192 C 
BRANCH  18  19
HETATM   19  O   UNL     1       3.715   0.499  -2.201  1.00  0.00    -0.399 OA
HETATM   20  H   UNL     1       4.349   1.100  -2.621  1.00  0.00     0.209 HD
ENDBRANCH  18  19
ENDBRANCH  17  18
ENDBRANCH   2  17
TORSDOF 5
