REMARK  2 active torsions:
REMARK  status: ('A' for Active; 'I' for Inactive)
REMARK    1  A    between atoms: N_1  and  C_3 
REMARK    2  A    between atoms: C_3  and  C_4 
ROOT
HETATM    1  N   UNL     1      -1.514   0.153   0.187  1.00  0.00    -0.066 N 
HETATM    2  N   UNL     1       1.468  -0.685  -0.260  1.00  0.00    -0.073 N 
HETATM    3  C   UNL     1      -0.786   1.201  -0.535  1.00  0.00     0.237 C 
HETATM    4  C   UNL     1       0.524   1.646   0.120  1.00  0.00     0.055 C 
HETATM    5  C   UNL     1       1.592   0.596   0.420  1.00  0.00     0.234 C 
HETATM    6  C   UNL     1      -1.012  -1.198  -0.115  1.00  0.00     0.262 C 
HETATM    7  C   UNL     1       0.422  -1.506   0.356  1.00  0.00     0.260 C 
HETATM    8  H   UNL     1      -1.337   0.322   1.177  1.00  0.00     0.280 HD
HETATM    9  H   UNL     1       1.231  -0.522  -1.239  1.00  0.00     0.277 HD
HETATM   10  H   UNL     1       2.357  -1.181  -0.187  1.00  0.00     0.277 HD
ENDROOT
BRANCH   1  11
HETATM   11  C   UNL     1      -2.975   0.243  -0.024  1.00  0.00     0.273 C 
BRANCH  11  12
HETATM   12  C   UNL     1      -3.486   0.083  -1.446  1.00  0.00    -0.032 A 
HETATM   13  C   UNL     1      -3.798  -1.188  -1.960  1.00  0.00     0.012 A 
HETATM   14  C   UNL     1      -4.289  -1.329  -3.260  1.00  0.00     0.043 A 
HETATM   15  C   UNL     1      -4.476  -0.202  -4.049  1.00  0.00     0.116 A 
HETATM   16  C   UNL     1      -4.176   1.065  -3.565  1.00  0.00     0.043 A 
HETATM   17  F   UNL     1      -4.960  -0.336  -5.290  1.00  0.00    -0.206 F 
HETATM   18  C   UNL     1      -3.681   1.208  -2.266  1.00  0.00     0.012 A 
ENDBRANCH  11  12
ENDBRANCH   1  11
TORSDOF 2
