REMARK  4 active torsions:
REMARK  status: ('A' for Active; 'I' for Inactive)
REMARK    1  A    between atoms: C_1  and  O_8 
REMARK    2  A    between atoms: C_3  and  C_10 
REMARK    3  A    between atoms: C_4  and  O_9 
REMARK    4  A    between atoms: C_10  and  O_11 
ROOT
HETATM    1  C   UNL     1       0.130   1.180   0.030  1.00  0.00     0.123 A 
HETATM    2  C   UNL     1      -0.486  -0.102   0.017  1.00  0.00     0.078 A 
HETATM    3  C   UNL     1       0.296  -1.286  -0.010  1.00  0.00    -0.010 A 
HETATM    4  C   UNL     1       1.544   1.238   0.015  1.00  0.00     0.103 A 
HETATM    5  C   UNL     1       1.691  -1.184  -0.039  1.00  0.00     0.014 A 
HETATM    6  C   UNL     1       2.302   0.061  -0.019  1.00  0.00     0.040 A 
HETATM    7 CL   UNL     1      -2.211  -0.330   0.012  1.00  0.00    -0.081 Cl
ENDROOT
BRANCH   3   8
HETATM    8  C   UNL     1      -0.290  -2.678  -0.060  1.00  0.00     0.204 C 
BRANCH   8   9
HETATM    9  O   UNL     1      -0.495  -3.074  -1.409  1.00  0.00    -0.396 OA
HETATM   10  H   UNL     1      -1.111  -2.458  -1.837  1.00  0.00     0.209 HD
ENDBRANCH   8   9
ENDBRANCH   3   8
BRANCH   1  11
HETATM   11  O   UNL     1      -0.478   2.404   0.042  1.00  0.00    -0.351 OA
HETATM   12  C   UNL     1      -1.876   2.600   0.085  1.00  0.00     0.210 C 
ENDBRANCH   1  11
BRANCH   4  13
HETATM   13  O   UNL     1       2.368   2.339   0.023  1.00  0.00    -0.353 OA
HETATM   14  C   UNL     1       1.821   3.646   0.054  1.00  0.00     0.210 C 
ENDBRANCH   4  13
TORSDOF 4
