REMARK  4 active torsions:
REMARK  status: ('A' for Active; 'I' for Inactive)
REMARK    1  A    between atoms: C_1  and  N_6 
REMARK    2  A    between atoms: C_4  and  O_5 
REMARK    3  A    between atoms: O_5  and  C_7 
REMARK    4  A    between atoms: C_7  and  C_8 
ROOT
HETATM    1  C   UNL     1       0.985  -0.192   1.268  1.00  0.00     0.132 A 
HETATM    2  N   UNL     1       0.375   0.884   1.812  1.00  0.00    -0.350 N 
ATOM      3  HN  UNL     1       0.919   1.661   2.188  1.00  0.00     0.166 HD
HETATM    4  C   UNL     1       0.274  -1.280   0.745  1.00  0.00     0.112 A 
HETATM    5  C   UNL     1      -0.973   0.902   1.844  1.00  0.00     0.090 A 
HETATM    6  C   UNL     1      -1.122  -1.231   0.825  1.00  0.00     0.042 A 
HETATM    7  C   UNL     1      -1.763  -0.128   1.375  1.00  0.00     0.020 A 
ENDROOT
BRANCH   4   8
HETATM    8  O   UNL     1       0.714  -2.420   0.135  1.00  0.00    -0.343 OA
BRANCH   8   9
HETATM    9  C   UNL     1       2.102  -2.662  -0.080  1.00  0.00     0.214 C 
BRANCH   9  10
HETATM   10  C   UNL     1       2.674  -1.989  -1.314  1.00  0.00    -0.034 A 
HETATM   11  C   UNL     1       1.872  -1.325  -2.254  1.00  0.00     0.009 A 
HETATM   12  C   UNL     1       2.445  -0.693  -3.360  1.00  0.00     0.001 A 
HETATM   13  C   UNL     1       3.823  -0.735  -3.552  1.00  0.00     0.000 A 
HETATM   14  C   UNL     1       4.630  -1.417  -2.645  1.00  0.00     0.001 A 
HETATM   15  C   UNL     1       4.059  -2.042  -1.534  1.00  0.00     0.009 A 
ENDBRANCH   9  10
ENDBRANCH   8   9
ENDBRANCH   4   8
BRANCH   1  16
HETATM   16  N   UNL     1       2.373  -0.086   1.289  1.00  0.00    -0.383 N 
HETATM   17  H   UNL     1       2.800   0.712   1.675  1.00  0.00     0.157 HD
HETATM   18  H   UNL     1       2.927  -0.810   0.916  1.00  0.00     0.157 HD
ENDBRANCH   1  16
TORSDOF 4
