REMARK  3 active torsions:
REMARK  status: ('A' for Active; 'I' for Inactive)
REMARK    1  A    between atoms: C_1  and  O_2 
REMARK    2  A    between atoms: O_2  and  C_3 
REMARK    3  A    between atoms: C_6  and  N_8 
ROOT
HETATM    1  C   UNL     1       0.365  -1.012  -0.049  1.00  0.00     0.174 C 
HETATM    2  N   UNL     1       1.215  -0.135  -0.648  1.00  0.00    -0.345 N 
ATOM      3  HN  UNL     1       2.096  -0.441  -1.061  1.00  0.00     0.167 HD
HETATM    4  C   UNL     1      -0.924  -0.680   0.396  1.00  0.00     0.077 C 
HETATM    5  C   UNL     1       0.836   1.155  -0.668  1.00  0.00     0.090 C 
HETATM    6  C   UNL     1      -1.262   0.674   0.361  1.00  0.00     0.035 C 
HETATM    7  C   UNL     1      -0.372   1.606  -0.173  1.00  0.00     0.019 C 
ENDROOT
BRANCH   1   8
HETATM    8  O   UNL     1       0.778  -2.336   0.111  1.00  0.00    -0.288 OA
BRANCH   8   9
HETATM    9  C   UNL     1       2.140  -2.557   0.134  1.00  0.00     0.116 A 
HETATM   10  C   UNL     1       3.025  -1.804   0.911  1.00  0.00     0.150 A 
HETATM   11  F   UNL     1       2.577  -0.846   1.738  1.00  0.00    -0.203 F 
HETATM   12  C   UNL     1       4.396  -2.034   0.854  1.00  0.00     0.045 A 
HETATM   13  C   UNL     1       4.892  -3.064   0.056  1.00  0.00     0.003 A 
HETATM   14  C   UNL     1       4.010  -3.868  -0.669  1.00  0.00     0.003 A 
HETATM   15  C   UNL     1       2.633  -3.615  -0.630  1.00  0.00     0.040 A 
ENDBRANCH   8   9
ENDBRANCH   1   8
BRANCH   4  16
HETATM   16  N   UNL     1      -1.767  -1.581   1.075  1.00  0.00    -0.396 N 
HETATM   17  H   UNL     1      -1.540  -2.538   1.107  1.00  0.00     0.156 HD
HETATM   18  H   UNL     1      -2.583  -1.253   1.517  1.00  0.00     0.156 HD
ENDBRANCH   4  16
TORSDOF 3
