REMARK  2 active torsions:
REMARK  status: ('A' for Active; 'I' for Inactive)
REMARK    1  A    between atoms: S_1  and  C_2 
REMARK    2  A    between atoms: S_1  and  N_9 
ROOT
HETATM    1  C   UNL     1       0.300   0.146   1.746  1.00  0.00     0.077 A 
HETATM    2  C   UNL     1       0.022  -1.039   2.433  1.00  0.00     0.048 A 
HETATM    3  C   UNL     1       0.134   1.389   2.361  1.00  0.00     0.048 A 
HETATM    4  C   UNL     1      -0.440  -0.967   3.745  1.00  0.00     0.037 A 
HETATM    5  C   UNL     1      -0.328   1.438   3.673  1.00  0.00     0.037 A 
HETATM    6  C   UNL     1      -0.617   0.266   4.371  1.00  0.00     0.047 A 
HETATM    7 CL   UNL     1      -0.791  -2.415   4.603  1.00  0.00    -0.084 Cl
HETATM    8 CL   UNL     1      -0.541   2.962   4.443  1.00  0.00    -0.084 Cl
ENDROOT
BRANCH   1   9
HETATM    9  S   UNL     1       0.936   0.066   0.100  1.00  0.00     0.239 S 
HETATM   10  O   UNL     1       1.545  -1.226  -0.107  1.00  0.00    -0.206 OA
HETATM   11  O   UNL     1       1.611   1.304  -0.205  1.00  0.00    -0.206 OA
BRANCH   9  12
HETATM   12  N   UNL     1      -0.476   0.068  -0.806  1.00  0.00    -0.225 NA
HETATM   13  H   UNL     1      -0.996  -0.791  -0.627  1.00  0.00     0.136 HD
HETATM   14  H   UNL     1      -0.243   0.125  -1.797  1.00  0.00     0.136 HD
ENDBRANCH   9  12
ENDBRANCH   1   9
TORSDOF 2
