REMARK  2 active torsions:
REMARK  status: ('A' for Active; 'I' for Inactive)
REMARK    1  A    between atoms: C_1  and  C_3 
REMARK    2  A    between atoms: C_2  and  N_8 
ROOT
HETATM    1  C   UNL     1      -2.049   0.817   0.017  1.00  0.00     0.067 A 
HETATM    2  C   UNL     1      -1.690  -0.550   0.002  1.00  0.00     0.044 A 
HETATM    3  C   UNL     1      -1.045   1.802   0.046  1.00  0.00     0.022 A 
HETATM    4  C   UNL     1      -0.327  -0.884  -0.047  1.00  0.00     0.053 A 
HETATM    5  C   UNL     1       0.657   0.105  -0.014  1.00  0.00     0.036 A 
HETATM    6  C   UNL     1       0.305   1.448   0.033  1.00  0.00     0.025 A 
HETATM    7 CL   UNL     1       2.319  -0.341  -0.054  1.00  0.00    -0.084 Cl
ENDROOT
BRANCH   1   8
HETATM    8  C   UNL     1      -3.454   1.317   0.042  1.00  0.00     0.211 C 
HETATM    9  O   UNL     1      -3.782   2.491   0.027  1.00  0.00    -0.644 OA
HETATM   10  O   UNL     1      -4.393   0.355   0.120  1.00  0.00    -0.644 OA
ENDBRANCH   1   8
BRANCH   2  11
HETATM   11  N   UNL     1      -2.622  -1.586  -0.197  1.00  0.00    -0.398 N 
HETATM   12  H   UNL     1      -3.587  -1.393  -0.170  1.00  0.00     0.156 HD
HETATM   13  H   UNL     1      -2.308  -2.505  -0.362  1.00  0.00     0.156 HD
ENDBRANCH   2  11
TORSDOF 2
