REMARK  3 active torsions:
REMARK  status: ('A' for Active; 'I' for Inactive)
REMARK    1  A    between atoms: C_1  and  O_4 
REMARK    2  A    between atoms: C_3  and  O_4 
REMARK    3  A    between atoms: C_9  and  N_12 
ROOT
HETATM    1  O   UNL     1       0.852  -2.368  -0.222  1.00  0.00    -0.291 OA
ENDROOT
BRANCH   1   2
HETATM    2  C   UNL     1       0.201  -1.321   0.393  1.00  0.00     0.174 A 
HETATM    3  N   UNL     1      -1.082  -1.647   0.703  1.00  0.00    -0.345 N 
HETATM    4  C   UNL     1      -1.859  -0.696   1.258  1.00  0.00     0.090 A 
ATOM      5  HN  UNL     1      -1.445  -2.583   0.521  1.00  0.00     0.167 HD
HETATM    6  C   UNL     1      -1.418   0.578   1.551  1.00  0.00     0.019 A 
HETATM    7  C   UNL     1      -0.109   0.907   1.219  1.00  0.00     0.035 A 
HETATM    8  C   UNL     1       0.741  -0.035   0.621  1.00  0.00     0.077 A 
BRANCH   8   9
HETATM    9  N   UNL     1       1.953   0.454   0.096  1.00  0.00    -0.396 N 
HETATM   10  H   UNL     1       2.587  -0.164  -0.335  1.00  0.00     0.156 HD
HETATM   11  H   UNL     1       2.167   1.413   0.159  1.00  0.00     0.156 HD
ENDBRANCH   8   9
ENDBRANCH   1   2
BRANCH   1  12
HETATM   12  C   UNL     1       2.181  -2.617   0.001  1.00  0.00     0.084 C 
HETATM   13  C   UNL     1       2.880  -3.222  -1.042  1.00  0.00    -0.017 C 
HETATM   14  C   UNL     1       4.270  -3.343  -1.001  1.00  0.00    -0.043 C 
HETATM   15  C   UNL     1       2.312  -3.771  -2.309  1.00  0.00     0.042 C 
HETATM   16  C   UNL     1       4.997  -2.883   0.093  1.00  0.00    -0.055 C 
HETATM   17  C   UNL     1       4.798  -3.949  -2.263  1.00  0.00     0.040 C 
HETATM   18  C   UNL     1       4.280  -2.408   1.200  1.00  0.00     0.010 C 
HETATM   19  C   UNL     1       6.496  -2.899   0.097  1.00  0.00     0.049 C 
HETATM   20  C   UNL     1       2.879  -2.302   1.168  1.00  0.00     0.038 C 
HETATM   21  C   UNL     1       3.531  -4.378  -3.014  1.00  0.00     0.009 C 
ENDBRANCH   1  12
TORSDOF 3
