REMARK  4 active torsions:
REMARK  status: ('A' for Active; 'I' for Inactive)
REMARK    1  A    between atoms: C_1  and  C_6 
REMARK    2  A    between atoms: C_2  and  C_5 
REMARK    3  A    between atoms: C_4  and  O_8 
REMARK    4  A    between atoms: C_5  and  C_6 
ROOT
HETATM    1  C   UNL     1       1.921  -2.843  -0.042  1.00  0.00    -0.024 A 
HETATM    2  C   UNL     1       2.796  -1.776  -0.329  1.00  0.00     0.074 A 
HETATM    3  C   UNL     1       2.494  -4.107   0.210  1.00  0.00     0.010 A 
HETATM    4  C   UNL     1       4.185  -1.965  -0.255  1.00  0.00     0.037 A 
HETATM    5  C   UNL     1       3.877  -4.289   0.267  1.00  0.00     0.001 A 
HETATM    6  C   UNL     1       4.725  -3.213   0.051  1.00  0.00     0.003 A 
ENDROOT
BRANCH   1   7
HETATM    7  C   UNL     1       0.423  -2.638   0.091  1.00  0.00     0.052 C 
BRANCH   7   8
HETATM    8  C   UNL     1      -0.383  -3.839   0.596  1.00  0.00     0.118 C 
BRANCH   8   9
HETATM    9  C   UNL     1      -1.810  -3.481   0.878  1.00  0.00     0.172 C 
HETATM   10  O   UNL     1      -2.360  -2.411   0.680  1.00  0.00    -0.648 OA
HETATM   11  O   UNL     1      -2.486  -4.523   1.404  1.00  0.00    -0.648 OA
ENDBRANCH   8   9
ENDBRANCH   7   8
ENDBRANCH   1   7
BRANCH   2  12
HETATM   12  O   UNL     1       2.427  -0.478  -0.570  1.00  0.00    -0.355 OA
HETATM   13  C   UNL     1       1.433  -0.289  -1.572  1.00  0.00     0.210 C 
ENDBRANCH   2  12
TORSDOF 4
