REMARK  0 active torsions:
REMARK  status: ('A' for Active; 'I' for Inactive)
ROOT
HETATM    1  C   UNL     1       0.275   0.720   0.001  1.00  0.00     0.091 A 
HETATM    2  C   UNL     1       0.295  -0.738  -0.000  1.00  0.00     0.085 A 
HETATM    3  N   UNL     1       1.543   1.152   0.000  1.00  0.00    -0.239 N 
ATOM      4  HN  UNL     1       1.862   2.121  -0.000  1.00  0.00     0.197 HD
HETATM    5  O   UNL     1       2.331   0.014  -0.001  1.00  0.00    -0.156 OA
HETATM    6  N   UNL     1       1.570  -1.143  -0.001  1.00  0.00    -0.240 N 
ATOM      7  HN  UNL     1       1.911  -2.104  -0.002  1.00  0.00     0.197 HD
HETATM    8  C   UNL     1      -0.927   1.465   0.002  1.00  0.00    -0.031 A 
HETATM    9  C   UNL     1      -2.072  -0.759   0.001  1.00  0.00     0.003 A 
HETATM   10  C   UNL     1      -0.882  -1.509   0.001  1.00  0.00     0.034 A 
HETATM   11  C   UNL     1      -2.093   0.661   0.002  1.00  0.00     0.009 A 
HETATM   12  C   UNL     1      -0.993   2.956   0.007  1.00  0.00     0.050 C 
ENDROOT
TORSDOF 0
