REMARK  4 active torsions:
REMARK  status: ('A' for Active; 'I' for Inactive)
REMARK    1  A    between atoms: C_1  and  C_3 
REMARK    2  A    between atoms: C_3  and  C_10 
REMARK    3  A    between atoms: C_4  and  C_11 
REMARK    4  A    between atoms: C_10  and  C_11 
ROOT
HETATM    1  C   UNL     1      -0.134   2.573  -0.058  1.00  0.00     0.166 C 
HETATM    2  O   UNL     1      -0.718   2.215   0.968  1.00  0.00    -0.292 OA
ENDROOT
BRANCH   1   3
HETATM    3  C   UNL     1      -0.537   2.091  -1.375  1.00  0.00     0.050 A 
HETATM    4  S   UNL     1      -0.134   2.917  -2.820  1.00  0.00    -0.098 SA
HETATM    5  C   UNL     1      -0.967   1.781  -3.789  1.00  0.00     0.050 A 
HETATM    6  C   UNL     1      -1.542   0.784  -3.034  1.00  0.00     0.009 A 
HETATM    7  C   UNL     1      -1.298   0.967  -1.642  1.00  0.00     0.023 A 
ENDBRANCH   1   3
BRANCH   1   8
HETATM    8  C   UNL     1       1.027   3.558   0.033  1.00  0.00     0.095 C 
BRANCH   8   9
HETATM    9  C   UNL     1       1.671   3.563   1.416  1.00  0.00     0.121 C 
BRANCH   9  10
HETATM   10  C   UNL     1       2.236   2.212   1.763  1.00  0.00     0.172 C 
HETATM   11  O   UNL     1       2.370   1.259   1.015  1.00  0.00    -0.648 OA
HETATM   12  O   UNL     1       2.647   2.149   3.043  1.00  0.00    -0.648 OA
ENDBRANCH   9  10
ENDBRANCH   8   9
ENDBRANCH   1   8
TORSDOF 4
