REMARK  2 active torsions:
REMARK  status: ('A' for Active; 'I' for Inactive)
REMARK    1  A    between atoms: C_1  and  C_2 
REMARK    2  A    between atoms: C_3  and  O_9 
ROOT
HETATM    1  C   UNL     1      -0.627   1.234  -0.024  1.00  0.00     0.043 A 
HETATM    2  C   UNL     1      -1.311   0.009  -0.021  1.00  0.00     0.079 A 
HETATM    3  C   UNL     1       0.777   1.226  -0.005  1.00  0.00     0.024 A 
HETATM    4  C   UNL     1      -0.613  -1.195  -0.012  1.00  0.00     0.038 A 
HETATM    5  C   UNL     1       1.487   0.015   0.013  1.00  0.00    -0.061 A 
HETATM    6  C   UNL     1       0.782  -1.193   0.005  1.00  0.00     0.009 A 
HETATM    7  C   UNL     1       2.987   0.001   0.053  1.00  0.00     0.048 C 
ENDROOT
BRANCH   1   8
HETATM    8  C   UNL     1      -1.394   2.515  -0.044  1.00  0.00     0.158 C 
HETATM    9  O   UNL     1      -2.625   2.476  -0.047  1.00  0.00    -0.293 OA
HETATM   10  C   UNL     1      -0.652   3.825  -0.056  1.00  0.00     0.097 C 
ENDBRANCH   1   8
BRANCH   2  11
HETATM   11  O   UNL     1      -2.677  -0.089  -0.025  1.00  0.00    -0.360 OA
HETATM   12  H   UNL     1      -3.203   0.687  -0.031  1.00  0.00     0.217 HD
ENDBRANCH   2  11
TORSDOF 2
