REMARK  1 active torsions:
REMARK  status: ('A' for Active; 'I' for Inactive)
REMARK    1  A    between atoms: C_4  and  O_8 
ROOT
HETATM    1  C   UNL     1      -2.002  -0.039  -0.001  1.00  0.00     0.250 A 
HETATM    2  C   UNL     1      -1.470  -1.419   0.005  1.00  0.00     0.112 A 
HETATM    3  N   UNL     1      -1.084   1.003   0.000  1.00  0.00    -0.318 N 
HETATM    4  C   UNL     1      -0.158  -1.665  -0.001  1.00  0.00     0.083 A 
HETATM    5  C   UNL     1       0.326   0.767  -0.000  1.00  0.00     0.050 A 
HETATM    6  C   UNL     1       0.803  -0.558  -0.010  1.00  0.00     0.024 A 
HETATM    7  O   UNL     1      -3.224   0.106  -0.009  1.00  0.00    -0.268 OA
HETATM    8  C   UNL     1      -1.590   2.366   0.002  1.00  0.00     0.159 C 
HETATM    9  C   UNL     1       2.186  -0.798  -0.020  1.00  0.00     0.016 A 
HETATM   10  C   UNL     1       1.254   1.821   0.011  1.00  0.00     0.031 A 
HETATM   11  C   UNL     1       3.095   0.259  -0.007  1.00  0.00     0.001 A 
HETATM   12  C   UNL     1       2.628   1.568   0.012  1.00  0.00     0.002 A 
ENDROOT
BRANCH   4  13
HETATM   13  O   UNL     1       0.364  -2.942   0.011  1.00  0.00    -0.360 OA
HETATM   14  H   UNL     1      -0.209  -3.683   0.018  1.00  0.00     0.217 HD
ENDBRANCH   4  13
TORSDOF 1
