REMARK  2 active torsions:
REMARK  status: ('A' for Active; 'I' for Inactive)
REMARK    1  A    between atoms: C_3  and  C_8 
REMARK    2  A    between atoms: C_6  and  N_9 
ROOT
HETATM    1  N   UNL     1      -0.082   1.035  -0.932  1.00  0.00    -0.321 N 
ATOM      2  HN  UNL     1       0.120   1.686  -1.691  1.00  0.00     0.169 HD
HETATM    3  C   UNL     1      -1.071   1.210   0.043  1.00  0.00     0.123 A 
HETATM    4  N   UNL     1      -1.194   0.275   0.996  1.00  0.00    -0.309 N 
ATOM      5  HN  UNL     1      -1.854   0.285   1.773  1.00  0.00     0.176 HD
HETATM    6  C   UNL     1       0.543  -0.096  -0.717  1.00  0.00     0.160 A 
HETATM    7  S   UNL     1      -0.066  -0.906   0.672  1.00  0.00     0.024 SA
ENDROOT
BRANCH   3   8
HETATM    8  C   UNL     1      -1.945   2.388  -0.006  1.00  0.00     0.009 A 
HETATM    9  C   UNL     1      -1.814   3.326  -1.041  1.00  0.00     0.015 A 
HETATM   10  C   UNL     1      -2.660   4.437  -1.110  1.00  0.00     0.001 A 
HETATM   11  C   UNL     1      -3.643   4.626  -0.141  1.00  0.00     0.000 A 
HETATM   12  C   UNL     1      -3.781   3.709   0.898  1.00  0.00     0.001 A 
HETATM   13  C   UNL     1      -2.936   2.597   0.967  1.00  0.00     0.015 A 
ENDBRANCH   3   8
BRANCH   6  14
HETATM   14  N   UNL     1       1.547  -0.562  -1.478  1.00  0.00    -0.379 N 
HETATM   15  H   UNL     1       1.849  -0.049  -2.261  1.00  0.00     0.158 HD
HETATM   16  H   UNL     1       1.980  -1.417  -1.251  1.00  0.00     0.158 HD
ENDBRANCH   6  14
TORSDOF 2
