REMARK  2 active torsions:
REMARK  status: ('A' for Active; 'I' for Inactive)
REMARK    1  A    between atoms: C_1  and  C_3 
REMARK    2  A    between atoms: C_2  and  O_13 
ROOT
HETATM    1  C   UNL     1       0.753   0.776   1.145  1.00  0.00     0.052 C 
HETATM    2  C   UNL     1      -1.502   0.291   0.110  1.00  0.00     0.060 C 
HETATM    3  C   UNL     1      -0.765   1.040   1.234  1.00  0.00     0.058 C 
HETATM    4  C   UNL     1       1.265   1.241  -0.238  1.00  0.00     0.025 C 
HETATM    5  C   UNL     1       0.993  -0.749   1.269  1.00  0.00     0.025 C 
HETATM    6  C   UNL     1       0.531   0.491  -1.364  1.00  0.00    -0.010 C 
HETATM    7  C   UNL     1       0.259  -1.506   0.149  1.00  0.00    -0.010 C 
HETATM    8  C   UNL     1      -0.977   0.766  -1.257  1.00  0.00     0.042 C 
HETATM    9  C   UNL     1      -1.246  -1.218   0.251  1.00  0.00     0.042 C 
HETATM   10  C   UNL     1       0.778  -1.020  -1.214  1.00  0.00     0.009 C 
ENDROOT
BRANCH   1  11
HETATM   11  C   UNL     1       1.484   1.510   2.257  1.00  0.00     0.182 C 
HETATM   12  O   UNL     1       2.175   1.014   3.131  1.00  0.00    -0.647 OA
HETATM   13  O   UNL     1       1.312   2.847   2.216  1.00  0.00    -0.647 OA
ENDBRANCH   1  11
BRANCH   2  14
HETATM   14  O   UNL     1      -2.898   0.533   0.203  1.00  0.00    -0.390 OA
HETATM   15  H   UNL     1      -3.068   1.484   0.115  1.00  0.00     0.210 HD
ENDBRANCH   2  14
TORSDOF 2
