REMARK  3 active torsions:
REMARK  status: ('A' for Active; 'I' for Inactive)
REMARK    1  A    between atoms: C_2  and  C_7 
REMARK    2  A    between atoms: C_6  and  C_9 
REMARK    3  A    between atoms: C_7  and  C_9 
ROOT
HETATM    1  N   UNL     1      -1.468   1.091  -0.214  1.00  0.00    -0.365 N 
HETATM    2  C   UNL     1      -1.569  -1.136  -0.119  1.00  0.00    -0.030 A 
HETATM    3  C   UNL     1      -2.311   0.017  -0.298  1.00  0.00     0.096 A 
HETATM    4  C   UNL     1      -0.194  -0.730  -0.060  1.00  0.00    -0.002 A 
HETATM    5  C   UNL     1      -0.166   0.665  -0.103  1.00  0.00     0.042 A 
HETATM    6  C   UNL     1       1.035  -1.418   0.029  1.00  0.00     0.014 A 
HETATM    7  C   UNL     1       1.019   1.406  -0.042  1.00  0.00     0.030 A 
HETATM    8  C   UNL     1       2.233  -0.693   0.059  1.00  0.00     0.001 A 
HETATM    9  C   UNL     1       2.221   0.699   0.028  1.00  0.00     0.002 A 
HETATM   10  H   UNL     1      -1.752   2.034  -0.230  1.00  0.00     0.165 HD
ENDROOT
BRANCH   2  11
HETATM   11  C   UNL     1      -2.111  -2.533  -0.047  1.00  0.00     0.051 C 
BRANCH  11  12
HETATM   12  C   UNL     1      -1.816  -3.227   1.285  1.00  0.00     0.118 C 
BRANCH  12  13
HETATM   13  C   UNL     1      -2.426  -4.601   1.312  1.00  0.00     0.172 C 
HETATM   14  O   UNL     1      -3.040  -5.156   0.424  1.00  0.00    -0.648 OA
HETATM   15  O   UNL     1      -2.229  -5.222   2.495  1.00  0.00    -0.648 OA
ENDBRANCH  12  13
ENDBRANCH  11  12
ENDBRANCH   2  11
TORSDOF 3
