REMARK  2 active torsions:
REMARK  status: ('A' for Active; 'I' for Inactive)
REMARK    1  A    between atoms: C_1  and  C_2 
REMARK    2  A    between atoms: C_1  and  N_12 
ROOT
HETATM    1  C   UNL     1       0.372   1.122   0.847  1.00  0.00     0.004 A 
HETATM    2  C   UNL     1       0.198   3.368   1.633  1.00  0.00     0.105 A 
HETATM    3  C   UNL     1       0.800   2.459   0.789  1.00  0.00     0.054 A 
HETATM    4  C   UNL     1      -0.807   3.006   2.497  1.00  0.00     0.105 A 
HETATM    5  O   UNL     1       0.512   4.687   1.725  1.00  0.00    -0.323 OA
HETATM    6  O   UNL     1      -1.250   4.053   3.243  1.00  0.00    -0.323 OA
HETATM    7  C   UNL     1      -0.373   5.103   2.786  1.00  0.00     0.352 A 
HETATM    8  C   UNL     1      -0.672   0.760   1.731  1.00  0.00     0.017 A 
HETATM    9  C   UNL     1      -1.273   1.712   2.563  1.00  0.00     0.040 A 
ENDROOT
BRANCH   1  10
HETATM   10  C   UNL     1       1.038   0.101  -0.011  1.00  0.00     0.104 C 
HETATM   11  S   UNL     1       0.307  -1.255  -0.658  1.00  0.00    -0.060 SA
BRANCH  10  12
HETATM   12  N   UNL     1       2.371   0.299  -0.272  1.00  0.00    -0.390 N 
HETATM   13  H   UNL     1       2.832   1.088   0.094  1.00  0.00     0.157 HD
HETATM   14  H   UNL     1       2.865  -0.347  -0.826  1.00  0.00     0.157 HD
ENDBRANCH  10  12
ENDBRANCH   1  10
TORSDOF 2
