REMARK  2 active torsions:
REMARK  status: ('A' for Active; 'I' for Inactive)
REMARK    1  A    between atoms: C_6  and  C_11 
REMARK    2  A    between atoms: N_9  and  C_11 
ROOT
HETATM    1  C   UNL     1       0.058   0.776   0.010  1.00  0.00    -0.022 A 
HETATM    2  C   UNL     1       0.134  -0.814  -0.095  1.00  0.00     0.075 A 
HETATM    3  O   UNL     1       1.619  -1.287  -0.225  1.00  0.00    -0.350 OA
HETATM    4  C   UNL     1      -1.179   1.384   0.090  1.00  0.00     0.019 A 
HETATM    5  C   UNL     1      -1.027  -1.555  -0.082  1.00  0.00     0.038 A 
HETATM    6  C   UNL     1      -2.334   0.566   0.054  1.00  0.00    -0.032 A 
HETATM    7  C   UNL     1      -2.250  -0.859  -0.012  1.00  0.00     0.011 A 
HETATM    8  C   UNL     1       2.772  -0.146  -0.214  1.00  0.00     0.180 A 
HETATM    9  C   UNL     1       1.744   1.449  -0.045  1.00  0.00     0.068 A 
ENDROOT
BRANCH   6  10
HETATM   10  C   UNL     1      -3.687   1.231   0.027  1.00  0.00     0.268 C 
BRANCH  10  11
HETATM   11  N   UNL     1      -3.895   2.064   1.205  1.00  0.00    -0.075 N 
HETATM   12  H   UNL     1      -4.817   2.498   1.156  1.00  0.00     0.274 HD
HETATM   13  H   UNL     1      -3.179   2.790   1.239  1.00  0.00     0.274 HD
HETATM   14  H   UNL     1      -3.835   1.488   2.044  1.00  0.00     0.274 HD
ENDBRANCH  10  11
ENDBRANCH   6  10
TORSDOF 2
