REMARK  3 active torsions:
REMARK  status: ('A' for Active; 'I' for Inactive)
REMARK       I    between atoms: C_1  and  N_2 
REMARK    1  A    between atoms: C_1  and  O_6 
REMARK    2  A    between atoms: N_2  and  C_3 
REMARK    3  A    between atoms: O_6  and  C_10 
ROOT
HETATM    1  C   UNL     1       0.764   0.231  -0.222  1.00  0.00     0.365 C 
HETATM    2  N   UNL     1       2.088   0.547  -0.355  1.00  0.00    -0.302 N 
HETATM    3  O   UNL     1      -0.062   0.935  -0.798  1.00  0.00    -0.238 OA
HETATM    4  H   UNL     1       2.254   1.320  -0.941  1.00  0.00     0.171 HD
ENDROOT
BRANCH   1   5
HETATM    5  O   UNL     1       0.458  -0.837   0.560  1.00  0.00    -0.294 OA
BRANCH   5   6
HETATM    6  C   UNL     1      -0.942  -1.195   0.744  1.00  0.00     0.061 C 
HETATM    7  C   UNL     1      -1.647  -1.470  -0.597  1.00  0.00     0.046 C 
HETATM    8  C   UNL     1      -0.939  -2.495   1.572  1.00  0.00     0.046 C 
HETATM    9  C   UNL     1      -1.690  -0.123   1.550  1.00  0.00     0.046 C 
ENDBRANCH   5   6
ENDBRANCH   1   5
BRANCH   2  10
HETATM   10  C   UNL     1       3.238  -0.010   0.174  1.00  0.00     0.043 A 
HETATM   11  C   UNL     1       3.414  -1.206   0.930  1.00  0.00     0.037 A 
HETATM   12  C   UNL     1       4.722  -1.390   1.334  1.00  0.00     0.052 A 
HETATM   13  S   UNL     1       5.755  -0.156   0.759  1.00  0.00    -0.111 SA
HETATM   14  C   UNL     1       4.452   0.624  -0.026  1.00  0.00     0.079 A 
ENDBRANCH   2  10
TORSDOF 3
