REMARK  1 active torsions:
REMARK  status: ('A' for Active; 'I' for Inactive)
REMARK    1  A    between atoms: C_1  and  C_2 
ROOT
HETATM    1  C   UNL     1       0.213   1.203   0.324  1.00  0.00     0.041 A 
HETATM    2  C   UNL     1      -0.909   1.202   1.168  1.00  0.00     0.028 A 
HETATM    3  C   UNL     1      -1.570   2.400   1.374  1.00  0.00    -0.022 A 
HETATM    4  C   UNL     1      -1.125   3.569   0.774  1.00  0.00     0.075 A 
HETATM    5  O   UNL     1      -1.889   4.666   1.076  1.00  0.00    -0.350 OA
HETATM    6  C   UNL     1       0.650   2.396  -0.290  1.00  0.00     0.021 A 
HETATM    7  C   UNL     1      -0.019   3.599  -0.049  1.00  0.00     0.038 A 
HETATM    8  C   UNL     1      -3.079   4.095   1.671  1.00  0.00     0.180 C 
HETATM    9  C   UNL     1      -2.744   2.708   2.223  1.00  0.00     0.068 C 
ENDROOT
BRANCH   1  10
HETATM   10  C   UNL     1       0.886  -0.092   0.052  1.00  0.00     0.209 C 
HETATM   11  O   UNL     1       0.294  -1.154   0.033  1.00  0.00    -0.644 OA
HETATM   12  O   UNL     1       2.218   0.020  -0.142  1.00  0.00    -0.644 OA
ENDBRANCH   1  10
TORSDOF 1
