REMARK  1 active torsions:
REMARK  status: ('A' for Active; 'I' for Inactive)
REMARK    1  A    between atoms: C_1  and  C_3 
ROOT
HETATM    1  C   UNL     1      -0.103   1.183  -0.012  1.00  0.00     0.111 A 
HETATM    2  N   UNL     1       0.715   0.068  -0.016  1.00  0.00    -0.356 N 
HETATM    3  C   UNL     1      -1.408   0.698  -0.010  1.00  0.00     0.038 A 
HETATM    4  C   UNL     1      -0.050  -1.076  -0.006  1.00  0.00     0.091 A 
HETATM    5  C   UNL     1      -1.373  -0.712  -0.005  1.00  0.00     0.020 A 
HETATM    6  C   UNL     1       2.162   0.018  -0.034  1.00  0.00     0.156 C 
ENDROOT
BRANCH   1   7
HETATM    7  C   UNL     1       0.322   2.562  -0.012  1.00  0.00     0.227 C 
HETATM    8  O   UNL     1       1.457   3.013  -0.016  1.00  0.00    -0.643 OA
HETATM    9  O   UNL     1      -0.735   3.404  -0.006  1.00  0.00    -0.643 OA
ENDBRANCH   1   7
TORSDOF 1
