REMARK  2 active torsions:
REMARK  status: ('A' for Active; 'I' for Inactive)
REMARK    1  A    between atoms: C_3  and  C_6 
REMARK    2  A    between atoms: O_5  and  C_6 
ROOT
HETATM    1  N   UNL     1      -1.351  -0.048  -0.012  1.00  0.00    -0.375 N 
ATOM      2  HN  UNL     1      -2.370  -0.086  -0.018  1.00  0.00     0.164 HD
HETATM    3  C   UNL     1       0.701   1.243   0.011  1.00  0.00    -0.019 A 
HETATM    4  C   UNL     1      -0.685   1.129  -0.004  1.00  0.00     0.096 A 
HETATM    5  C   UNL     1      -0.601  -1.170  -0.012  1.00  0.00     0.087 A 
HETATM    6  C   UNL     1       1.442   0.057   0.004  1.00  0.00     0.012 A 
HETATM    7  C   UNL     1       0.784  -1.171  -0.007  1.00  0.00     0.018 A 
ENDROOT
BRANCH   3   8
HETATM    8  C   UNL     1       1.372   2.582   0.021  1.00  0.00     0.204 C 
BRANCH   8   9
HETATM    9  O   UNL     1       2.184   2.727   1.178  1.00  0.00    -0.396 OA
HETATM   10  H   UNL     1       2.610   3.599   1.167  1.00  0.00     0.209 HD
ENDBRANCH   8   9
ENDBRANCH   3   8
TORSDOF 2
