REMARK  1 active torsions:
REMARK  status: ('A' for Active; 'I' for Inactive)
REMARK    1  A    between atoms: CA_3  and  C_4 
ROOT
HETATM    1  N   UNL     1       2.439  -0.611   0.004  1.00  0.00    -0.360 N 
ATOM      2  HN  UNL     1       3.335  -1.099   0.005  1.00  0.00     0.165 HD
HETATM    3  CA  UNL     1       2.364   0.745   0.010  1.00  0.00     0.110 A 
HETATM    4  C   UNL     1       1.164   1.448   0.006  1.00  0.00     0.049 A 
HETATM    5  C   UNL     1      -0.038   0.732  -0.003  1.00  0.00    -0.022 A 
HETATM    6  C   UNL     1       1.264  -1.281  -0.003  1.00  0.00     0.100 A 
HETATM    7  C   UNL     1       0.004  -0.676  -0.004  1.00  0.00    -0.011 A 
HETATM    8  C   UNL     1      -1.285   1.380  -0.009  1.00  0.00     0.012 A 
HETATM    9  C   UNL     1      -1.195  -1.409  -0.008  1.00  0.00     0.013 A 
HETATM   10  C   UNL     1      -2.470   0.641  -0.015  1.00  0.00     0.001 A 
HETATM   11  C   UNL     1      -2.426  -0.751  -0.013  1.00  0.00     0.001 A 
ENDROOT
BRANCH   3  12
HETATM   12  C   UNL     1       3.640   1.521   0.026  1.00  0.00     0.226 C 
HETATM   13  O   UNL     1       3.728   2.738   0.033  1.00  0.00    -0.643 OA
HETATM   14  OXT UNL     1       4.744   0.748   0.034  1.00  0.00    -0.643 OA
ENDBRANCH   3  12
TORSDOF 1
