REMARK  1 active torsions:
REMARK  status: ('A' for Active; 'I' for Inactive)
REMARK    1  A    between atoms: C_1  and  CA_2 
ROOT
ATOM      1  CA  LYS A   1       0.359  -1.074   0.766  1.00  0.00     0.109 A 
ATOM      2  N   LYS A   1      -0.748  -1.596   0.156  1.00  0.00    -0.360 N 
ATOM      3  HN  LYS A   1      -1.075  -1.264  -0.751  1.00  0.00     0.165 HD
ATOM      4  CE  LYS A   1      -1.382  -2.580   0.832  1.00  0.00     0.088 A 
ATOM      5  CB  LYS A   1       0.843  -1.483   2.000  1.00  0.00     0.037 A 
ATOM      6  CD  LYS A   1      -0.974  -3.055   2.071  1.00  0.00     0.017 A 
ATOM      7  CG  LYS A   1       0.155  -2.495   2.663  1.00  0.00     0.004 A 
ENDROOT
BRANCH   1   8
ATOM      8  C   LYS A   1       1.051   0.009   0.010  1.00  0.00     0.226 C 
ATOM      9  O   LYS A   1       2.068   0.576   0.370  1.00  0.00    -0.643 OA
ATOM     10  OXT LYS A   1       0.385   0.282  -1.139  1.00  0.00    -0.643 OA
ENDBRANCH   1   8
TORSDOF 1
