REMARK  1 active torsions:
REMARK  status: ('A' for Active; 'I' for Inactive)
REMARK    1  A    between atoms: C_1  and  C_2 
ROOT
HETATM    1  C   UNL     1       0.279  -1.074  -0.817  1.00  0.00     0.056 A 
HETATM    2  N   UNL     1      -1.422  -1.763  -2.389  1.00  0.00    -0.374 N 
ATOM      3  HN  UNL     1      -2.187  -1.532  -3.023  1.00  0.00     0.164 HD
HETATM    4  C   UNL     1      -0.783  -0.807  -1.671  1.00  0.00     0.105 A 
HETATM    5  C   UNL     1       0.685  -2.400  -0.658  1.00  0.00     0.021 A 
HETATM    6  C   UNL     1      -0.998  -3.037  -2.226  1.00  0.00     0.087 A 
HETATM    7  C   UNL     1       0.037  -3.401  -1.379  1.00  0.00     0.018 A 
ENDROOT
BRANCH   1   8
HETATM    8  C   UNL     1       0.901   0.043  -0.082  1.00  0.00     0.210 C 
HETATM    9  O   UNL     1       0.285   1.035   0.260  1.00  0.00    -0.644 OA
HETATM   10  O   UNL     1       2.221  -0.130   0.145  1.00  0.00    -0.644 OA
ENDBRANCH   1   8
TORSDOF 1
