REMARK  2 active torsions:
REMARK  status: ('A' for Active; 'I' for Inactive)
REMARK    1  A    between atoms: C_6  and  C_8 
REMARK    2  A    between atoms: C_8  and  N_9 
ROOT
HETATM    1  N   UNL     1      -1.193   0.806  -0.021  1.00  0.00    -0.301 N 
ATOM      2  HN  UNL     1      -1.722   1.678  -0.040  1.00  0.00     0.187 HD
HETATM    3  N   UNL     1       0.147   0.649  -0.006  1.00  0.00    -0.301 N 
HETATM    4  C   UNL     1       0.547  -0.662   0.006  1.00  0.00     0.026 A 
HETATM    5  C   UNL     1      -0.622  -1.398   0.013  1.00  0.00     0.054 A 
HETATM    6  C   UNL     1      -1.670  -0.448  -0.005  1.00  0.00     0.053 A 
HETATM    7  C   UNL     1       0.992   1.821   0.011  1.00  0.00     0.177 C 
HETATM    8  C   UNL     1       1.956  -1.122   0.002  1.00  0.00     0.070 C 
ENDROOT
BRANCH   6   9
HETATM    9  C   UNL     1      -3.140  -0.720  -0.002  1.00  0.00     0.287 C 
BRANCH   9  10
HETATM   10  N   UNL     1      -3.624  -0.838  -1.380  1.00  0.00    -0.074 N 
HETATM   11  H   UNL     1      -3.443   0.034  -1.879  1.00  0.00     0.274 HD
HETATM   12  H   UNL     1      -4.626  -1.025  -1.374  1.00  0.00     0.274 HD
HETATM   13  H   UNL     1      -3.138  -1.603  -1.846  1.00  0.00     0.274 HD
ENDBRANCH   9  10
ENDBRANCH   6   9
TORSDOF 2
