REMARK  3 active torsions:
REMARK  status: ('A' for Active; 'I' for Inactive)
REMARK    1  A    between atoms: C_1  and  C_6 
REMARK    2  A    between atoms: C_5  and  C_11 
REMARK    3  A    between atoms: C_11  and  O_13 
ROOT
HETATM    1  C   UNK     1       0.204  -1.158  -0.016  1.00  0.00     0.086 A 
HETATM    2  N   UNK     1       1.396  -0.587  -0.064  1.00  0.00    -0.351 N 
ATOM      3  HN  UNK     1       2.280  -1.092  -0.121  1.00  0.00     0.166 HD
HETATM    4  S   UNK     1      -1.118  -0.047   0.002  1.00  0.00    -0.081 SA
HETATM    5  C   UNK     1       1.275   0.800  -0.026  1.00  0.00     0.040 A 
HETATM    6  C   UNK     1      -0.024   1.264  -0.007  1.00  0.00     0.079 A 
ENDROOT
BRANCH   1   7
HETATM    7  C   UNK     1      -0.028  -2.609  -0.023  1.00  0.00     0.013 A 
HETATM    8  C   UNK     1      -1.155  -3.206   0.540  1.00  0.00     0.101 A 
HETATM    9  N   UNK     1      -1.405  -4.541   0.545  1.00  0.00    -0.374 N 
HETATM   10  C   UNK     1      -0.480  -5.332  -0.037  1.00  0.00     0.087 A 
ATOM     11  HN  UNK     1      -2.250  -4.926   0.968  1.00  0.00     0.164 HD
HETATM   12  C   UNK     1       0.682  -4.850  -0.615  1.00  0.00     0.018 A 
HETATM   13  C   UNK     1       0.909  -3.474  -0.600  1.00  0.00     0.017 A 
ENDBRANCH   1   7
BRANCH   5  14
HETATM   14  C   UNK     1       2.515   1.633  -0.024  1.00  0.00     0.221 C 
BRANCH  14  15
HETATM   15  O   UNK     1       3.343   1.341  -1.144  1.00  0.00    -0.395 OA
HETATM   16  H   UNK     1       3.615   0.410  -1.112  1.00  0.00     0.209 HD
ENDBRANCH  14  15
ENDBRANCH   5  14
TORSDOF 3
