REMARK  3 active torsions:
REMARK  status: ('A' for Active; 'I' for Inactive)
REMARK    1  A    between atoms: N_1  and  C_2 
REMARK    2  A    between atoms: N_8  and  C_14 
REMARK    3  A    between atoms: C_9  and  C_14 
ROOT
HETATM    1  C   UNL     1      -2.619  -0.023  -0.890  1.00  0.00     0.030 A 
HETATM    2  C   UNL     1      -2.607   0.585  -2.153  1.00  0.00     0.030 A 
HETATM    3  C   UNL     1      -3.798  -0.690  -0.527  1.00  0.00     0.030 A 
HETATM    4  C   UNL     1      -3.725   0.567  -2.998  1.00  0.00     0.011 A 
HETATM    5  C   UNL     1      -4.914  -0.731  -1.372  1.00  0.00     0.011 A 
HETATM    6  C   UNL     1      -4.898  -0.088  -2.613  1.00  0.00    -0.033 A 
ENDROOT
BRANCH   1   7
HETATM    7  N   UNL     1      -1.535   0.098  -0.040  1.00  0.00    -0.377 N 
HETATM    8  C   UNL     1      -1.674   0.025   1.424  1.00  0.00     0.149 C 
HETATM    9  C   UNL     1      -1.101  -1.294   1.955  1.00  0.00     0.187 C 
HETATM   10  O   UNL     1       0.269  -1.460   1.553  1.00  0.00    -0.388 OA
HETATM   11  C   UNL     1       0.365  -1.482   0.118  1.00  0.00     0.187 C 
HETATM   12  C   UNL     1      -0.173  -0.189  -0.524  1.00  0.00     0.149 C 
ENDBRANCH   1   7
BRANCH   6  13
HETATM   13  C   UNL     1      -6.141  -0.058  -3.475  1.00  0.00     0.270 C 
BRANCH  13  14
HETATM   14  N   UNL     1      -5.928  -0.687  -4.779  1.00  0.00    -0.075 N 
HETATM   15  C   UNL     1      -7.146  -0.649  -5.576  1.00  0.00     0.267 C 
HETATM   16  H   UNL     1      -5.649  -1.658  -4.641  1.00  0.00     0.277 HD
HETATM   17  H   UNL     1      -5.198  -0.174  -5.274  1.00  0.00     0.277 HD
ENDBRANCH  13  14
ENDBRANCH   6  13
TORSDOF 3
