REMARK  3 active torsions:
REMARK  status: ('A' for Active; 'I' for Inactive)
REMARK    1  A    between atoms: N_1  and  C_5 
REMARK    2  A    between atoms: C_12  and  C_14 
REMARK    3  A    between atoms: O_13  and  C_14 
ROOT
HETATM    1  C   UNL     1      -0.712   2.471   0.038  1.00  0.00     0.039 A 
HETATM    2  C   UNL     1      -1.611   2.906   1.020  1.00  0.00     0.030 A 
HETATM    3  C   UNL     1      -0.210   3.399  -0.886  1.00  0.00     0.030 A 
HETATM    4  C   UNL     1      -0.598   4.740  -0.824  1.00  0.00     0.011 A 
HETATM    5  C   UNL     1      -1.989   4.252   1.083  1.00  0.00     0.011 A 
HETATM    6  C   UNL     1      -1.487   5.179   0.161  1.00  0.00    -0.035 A 
ENDROOT
BRANCH   1   7
HETATM    7  N   UNL     1      -0.292   1.112  -0.007  1.00  0.00    -0.317 N 
HETATM    8  C   UNL     1      -0.713   0.078   0.805  1.00  0.00     0.188 A 
HETATM    9  N   UNL     1      -0.096  -1.054   0.546  1.00  0.00    -0.360 N 
HETATM   10  C   UNL     1       0.754  -0.766  -0.482  1.00  0.00     0.106 A 
ATOM     11  HN  UNL     1      -0.225  -1.952   1.012  1.00  0.00     0.166 HD
HETATM   12  C   UNL     1       0.637   0.551  -0.856  1.00  0.00     0.115 A 
ENDBRANCH   1   7
BRANCH   6  13
HETATM   13  C   UNL     1      -1.894   6.624   0.241  1.00  0.00     0.202 C 
BRANCH  13  14
HETATM   14  O   UNL     1      -3.301   6.749   0.086  1.00  0.00    -0.396 OA
HETATM   15  H   UNL     1      -3.551   7.685   0.139  1.00  0.00     0.209 HD
ENDBRANCH  13  14
ENDBRANCH   6  13
TORSDOF 3
