REMARK  2 active torsions:
REMARK  status: ('A' for Active; 'I' for Inactive)
REMARK    1  A    between atoms: N_1  and  C_4 
REMARK    2  A    between atoms: C_10  and  N_11 
ROOT
HETATM    1  C   UNL     1      -0.752  -2.446   0.024  1.00  0.00     0.056 A 
HETATM    2  C   UNL     1      -0.259  -3.324   0.998  1.00  0.00     0.034 A 
HETATM    3  C   UNL     1      -1.654  -2.926  -0.934  1.00  0.00     0.034 A 
HETATM    4  C   UNL     1      -1.539  -5.153   0.036  1.00  0.00     0.025 A 
HETATM    5  C   UNL     1      -0.676  -4.660   1.016  1.00  0.00     0.031 A 
HETATM    6  C   UNL     1      -2.054  -4.267  -0.910  1.00  0.00     0.031 A 
ENDROOT
BRANCH   1   7
HETATM    7  N   UNL     1      -0.350  -1.082   0.033  1.00  0.00    -0.268 N 
HETATM    8  N   UNL     1       0.554  -0.620   0.939  1.00  0.00    -0.305 N 
HETATM    9  C   UNL     1       0.703   0.670   0.640  1.00  0.00     0.109 A 
ATOM     10  HN  UNL     1       1.015  -1.145   1.682  1.00  0.00     0.186 HD
HETATM   11  C   UNL     1      -0.098   1.071  -0.437  1.00  0.00     0.038 A 
HETATM   12  C   UNL     1      -0.771  -0.068  -0.804  1.00  0.00     0.118 A 
ENDBRANCH   1   7
BRANCH   4  13
HETATM   13  N   UNL     1      -2.062  -6.447   0.141  1.00  0.00    -0.399 N 
HETATM   14  H   UNL     1      -2.671  -6.790  -0.553  1.00  0.00     0.156 HD
HETATM   15  H   UNL     1      -1.822  -7.015   0.909  1.00  0.00     0.156 HD
ENDBRANCH   4  13
TORSDOF 2
