REMARK  2 active torsions:
REMARK  status: ('A' for Active; 'I' for Inactive)
REMARK    1  A    between atoms: C_1  and  C_2 
REMARK    2  A    between atoms: C_4  and  C_8 
ROOT
HETATM    1  C   UNL     1       0.722   1.279  -0.039  1.00  0.00     0.057 A 
HETATM    2  C   UNL     1       1.447   0.080  -0.051  1.00  0.00     0.033 A 
HETATM    3  C   UNL     1       0.785  -1.160  -0.020  1.00  0.00    -0.009 A 
HETATM    4  N   UNL     1      -1.349   0.046  -0.006  1.00  0.00    -0.373 N 
ATOM      5  HN  UNL     1      -2.369   0.026  -0.000  1.00  0.00     0.164 HD
HETATM    6  C   UNL     1      -0.661   1.210  -0.023  1.00  0.00     0.106 A 
HETATM    7  C   UNL     1      -0.613  -1.095   0.003  1.00  0.00     0.100 A 
ENDROOT
BRANCH   3   8
HETATM    8  C   UNL     1       1.514  -2.449   0.021  1.00  0.00    -0.025 A 
HETATM    9  C   UNL     1       2.758  -2.570   0.669  1.00  0.00     0.012 A 
HETATM   10  C   UNL     1       3.430  -3.795   0.742  1.00  0.00     0.001 A 
HETATM   11  C   UNL     1       2.870  -4.934   0.174  1.00  0.00     0.000 A 
HETATM   12  C   UNL     1       1.647  -4.844  -0.481  1.00  0.00     0.001 A 
HETATM   13  C   UNL     1       0.982  -3.615  -0.563  1.00  0.00     0.012 A 
ENDBRANCH   3   8
BRANCH   1  14
HETATM   14  C   UNL     1       1.356   2.610  -0.028  1.00  0.00     0.210 C 
HETATM   15  O   UNL     1       0.772   3.677  -0.025  1.00  0.00    -0.644 OA
HETATM   16  O   UNL     1       2.699   2.546  -0.001  1.00  0.00    -0.644 OA
ENDBRANCH   1  14
TORSDOF 2
