REMARK  1 active torsions:
REMARK  status: ('A' for Active; 'I' for Inactive)
REMARK    1  A    between atoms: C_1  and  C_4 
ROOT
HETATM    1  C   UNL     1      -1.545  -1.305   0.005  1.00  0.00     0.076 A 
HETATM    2  C   UNL     1      -2.320  -0.161  -0.007  1.00  0.00     0.162 A 
HETATM    3  C   UNL     1      -0.190  -0.851   0.005  1.00  0.00     0.017 A 
HETATM    4  O   UNL     1      -1.548   0.955  -0.013  1.00  0.00    -0.321 OA
HETATM    5  C   UNL     1      -0.253   0.539  -0.006  1.00  0.00     0.086 A 
HETATM    6  C   UNL     1       1.082  -1.456   0.013  1.00  0.00     0.015 A 
HETATM    7  C   UNL     1       0.859   1.376  -0.011  1.00  0.00     0.038 A 
HETATM    8  C   UNL     1       2.223  -0.639   0.006  1.00  0.00     0.001 A 
HETATM    9  C   UNL     1       2.111   0.754  -0.005  1.00  0.00     0.003 A 
ENDROOT
BRANCH   1  10
HETATM   10  C   UNL     1      -2.047  -2.657   0.013  1.00  0.00     0.212 C 
HETATM   11  O   UNL     1      -1.367  -3.672   0.028  1.00  0.00    -0.644 OA
HETATM   12  O   UNL     1      -3.397  -2.750   0.003  1.00  0.00    -0.644 OA
ENDBRANCH   1  10
TORSDOF 1
