REMARK  1 active torsions:
REMARK  status: ('A' for Active; 'I' for Inactive)
REMARK    1  A    between atoms: C_2  and  C_4 
ROOT
HETATM    1  C   UNL     1      -0.321  -0.653   0.038  1.00  0.00     0.093 A 
HETATM    2  C   UNL     1      -1.458  -1.450   0.005  1.00  0.00     0.074 A 
HETATM    3  O   UNL     1       0.972  -1.105   0.080  1.00  0.00    -0.339 OA
HETATM    4  C   UNL     1      -0.409   0.733   0.042  1.00  0.00    -0.021 A 
HETATM    5  C   UNL     1       1.820   0.072  -0.008  1.00  0.00     0.064 C 
HETATM    6  C   UNL     1       0.942   1.335   0.118  1.00  0.00     0.079 C 
HETATM    7  C   UNL     1      -2.705  -0.803  -0.029  1.00  0.00     0.021 A 
HETATM    8  C   UNL     1      -1.635   1.378   0.014  1.00  0.00     0.010 A 
HETATM    9  C   UNL     1      -2.791   0.599  -0.025  1.00  0.00     0.002 A 
HETATM   10  C   UNL     1       2.542   0.024  -1.359  1.00  0.00     0.046 C 
HETATM   11  C   UNL     1       2.837  -0.013   1.132  1.00  0.00     0.046 C 
ENDROOT
BRANCH   2  12
HETATM   12  C   UNL     1      -1.357  -2.931   0.005  1.00  0.00     0.212 C 
HETATM   13  O   UNL     1      -0.352  -3.616   0.029  1.00  0.00    -0.644 OA
HETATM   14  O   UNL     1      -2.571  -3.519  -0.028  1.00  0.00    -0.644 OA
ENDBRANCH   2  12
TORSDOF 1
