REMARK  2 active torsions:
REMARK  status: ('A' for Active; 'I' for Inactive)
REMARK    1  A    between atoms: C_6  and  C_9 
REMARK    2  A    between atoms: C_9  and  O_10 
ROOT
HETATM    1  N   UNL     1      -1.277  -1.042  -0.125  1.00  0.00    -0.283 NA
HETATM    2  O   UNL     1      -0.676   1.813   0.047  1.00  0.00    -0.341 OA
HETATM    3  C   UNL     1       0.046  -0.543  -0.067  1.00  0.00     0.044 A 
HETATM    4  C   UNL     1       0.305   0.845   0.037  1.00  0.00     0.090 A 
HETATM    5  C   UNL     1      -2.251  -0.032   0.321  1.00  0.00     0.130 C 
HETATM    6  C   UNL     1      -1.966   1.316  -0.340  1.00  0.00     0.166 C 
HETATM    7  C   UNL     1      -1.509  -2.388   0.397  1.00  0.00     0.116 C 
HETATM    8  C   UNL     1       1.607   1.342   0.142  1.00  0.00     0.039 A 
HETATM    9  C   UNL     1       1.164  -1.389  -0.163  1.00  0.00     0.026 A 
HETATM   10  C   UNL     1       2.693   0.471   0.093  1.00  0.00     0.003 A 
HETATM   11  C   UNL     1       2.470  -0.890  -0.080  1.00  0.00     0.002 A 
ENDROOT
BRANCH   6  12
HETATM   12  C   UNL     1      -2.107   1.305  -1.869  1.00  0.00     0.197 C 
BRANCH  12  13
HETATM   13  O   UNL     1      -3.382   0.820  -2.283  1.00  0.00    -0.398 OA
HETATM   14  H   UNL     1      -3.496  -0.093  -1.976  1.00  0.00     0.209 HD
ENDBRANCH  12  13
ENDBRANCH   6  12
TORSDOF 2
