REMARK  1 active torsions:
REMARK  status: ('A' for Active; 'I' for Inactive)
REMARK    1  A    between atoms: C_1  and  C_4 
ROOT
HETATM    1  O   UNL     1       0.257  -3.633  -2.101  1.00  0.00    -0.391 OA
HETATM    2  C   UNL     1       0.207  -1.217  -0.544  1.00  0.00     0.091 C 
HETATM    3  C   UNL     1       0.083  -3.724  -0.688  1.00  0.00     0.168 C 
HETATM    4  C   UNL     1      -0.352  -2.464  -2.646  1.00  0.00     0.168 C 
HETATM    5  C   UNL     1       0.741  -2.543   0.011  1.00  0.00     0.041 C 
HETATM    6  C   UNL     1       0.288  -1.210  -2.072  1.00  0.00     0.041 C 
ENDROOT
BRANCH   2   7
HETATM    7  C   UNL     1       0.959  -0.045   0.037  1.00  0.00     0.177 C 
HETATM    8  O   UNL     1       1.862  -0.080   0.855  1.00  0.00    -0.648 OA
HETATM    9  O   UNL     1       0.490   1.141  -0.401  1.00  0.00    -0.648 OA
ENDBRANCH   2   7
TORSDOF 1
