REMARK  3 active torsions:
REMARK  status: ('A' for Active; 'I' for Inactive)
REMARK    1  A    between atoms: C_3  and  C_7 
REMARK    2  A    between atoms: C_5  and  C_8 
REMARK    3  A    between atoms: C_8  and  N_9 
ROOT
HETATM    1  N   UNL     1      -0.677   1.185   0.044  1.00  0.00    -0.353 N 
ATOM      2  HN  UNL     1      -1.277   2.010   0.023  1.00  0.00     0.166 HD
HETATM    3  C   UNL     1       0.640   1.219   0.066  1.00  0.00     0.085 A 
HETATM    4  S   UNL     1       1.392  -0.330   0.101  1.00  0.00    -0.072 SA
HETATM    5  C   UNL     1      -0.145  -1.089   0.061  1.00  0.00     0.032 A 
HETATM    6  C   UNL     1      -1.139  -0.124   0.054  1.00  0.00     0.021 A 
HETATM    7  C   UNL     1      -2.610  -0.338   0.023  1.00  0.00     0.069 C 
ENDROOT
BRANCH   3   8
HETATM    8  C   UNL     1       1.443   2.451  -0.003  1.00  0.00    -0.002 A 
HETATM    9  C   UNL     1       2.726   2.555   0.558  1.00  0.00     0.014 A 
HETATM   10  C   UNL     1       3.463   3.737   0.450  1.00  0.00     0.001 A 
HETATM   11  C   UNL     1       2.927   4.836  -0.216  1.00  0.00     0.000 A 
HETATM   12  C   UNL     1       1.652   4.758  -0.767  1.00  0.00     0.001 A 
HETATM   13  C   UNL     1       0.913   3.576  -0.656  1.00  0.00     0.014 A 
ENDBRANCH   3   8
BRANCH   5  14
HETATM   14  C   UNL     1      -0.243  -2.582   0.029  1.00  0.00     0.279 C 
BRANCH  14  15
HETATM   15  N   UNL     1      -0.979  -3.084  -1.137  1.00  0.00    -0.075 N 
HETATM   16  C   UNL     1      -0.304  -2.782  -2.395  1.00  0.00     0.267 C 
HETATM   17  H   UNL     1      -1.904  -2.654  -1.150  1.00  0.00     0.277 HD
HETATM   18  H   UNL     1      -1.039  -4.099  -1.052  1.00  0.00     0.277 HD
ENDBRANCH  14  15
ENDBRANCH   5  14
TORSDOF 3
