REMARK  3 active torsions:
REMARK  status: ('A' for Active; 'I' for Inactive)
REMARK    1  A    between atoms: C_1  and  C_7 
REMARK    2  A    between atoms: C_6  and  C_9 
REMARK    3  A    between atoms: N_8  and  C_9 
ROOT
HETATM    1  C   UNL     1      -0.840   0.905  -0.049  1.00  0.00     0.111 A 
HETATM    2  N   UNL     1       0.933  -0.479  -0.095  1.00  0.00    -0.263 N 
ATOM      3  HN  UNL     1       1.891  -0.827  -0.120  1.00  0.00     0.194 HD
HETATM    4  C   UNL     1      -1.335  -0.376  -0.041  1.00  0.00     0.069 A 
HETATM    5  O   UNL     1       0.522   0.845  -0.095  1.00  0.00    -0.237 OA
HETATM    6  C   UNL     1      -0.191  -1.205  -0.055  1.00  0.00     0.060 A 
ENDROOT
BRANCH   1   7
HETATM    7  C   UNL     1      -1.448   2.229  -0.012  1.00  0.00    -0.000 A 
HETATM    8  C   UNL     1      -2.842   2.352   0.111  1.00  0.00     0.014 A 
HETATM    9  C   UNL     1      -3.452   3.607   0.142  1.00  0.00     0.001 A 
HETATM   10  C   UNL     1      -2.676   4.757   0.051  1.00  0.00     0.000 A 
HETATM   11  C   UNL     1      -1.291   4.655  -0.064  1.00  0.00     0.001 A 
HETATM   12  C   UNL     1      -0.680   3.398  -0.093  1.00  0.00     0.014 A 
ENDBRANCH   1   7
BRANCH   6  13
HETATM   13  C   UNL     1      -0.144  -2.692  -0.019  1.00  0.00     0.288 C 
BRANCH  13  14
HETATM   14  N   UNL     1      -0.795  -3.174   1.202  1.00  0.00    -0.074 N 
HETATM   15  H   UNL     1      -0.762  -4.193   1.226  1.00  0.00     0.274 HD
HETATM   16  H   UNL     1      -1.767  -2.865   1.213  1.00  0.00     0.274 HD
HETATM   17  H   UNL     1      -0.309  -2.799   2.017  1.00  0.00     0.274 HD
ENDBRANCH  13  14
ENDBRANCH   6  13
TORSDOF 3
