REMARK  2 active torsions:
REMARK  status: ('A' for Active; 'I' for Inactive)
REMARK    1  A    between atoms: C_6  and  C_10 
REMARK    2  A    between atoms: N_8  and  C_10 
ROOT
HETATM    1  C   UNL     1       0.040  -0.749   0.027  1.00  0.00    -0.024 A 
HETATM    2  C   UNL     1      -0.003   0.647  -0.008  1.00  0.00     0.075 A 
HETATM    3  O   UNL     1      -1.169   1.368  -0.022  1.00  0.00    -0.351 OA
HETATM    4  C   UNL     1       1.285  -1.395   0.069  1.00  0.00     0.018 A 
HETATM    5  C   UNL     1       1.177   1.385  -0.066  1.00  0.00     0.038 A 
HETATM    6  C   UNL     1       2.483  -0.661   0.019  1.00  0.00    -0.032 A 
HETATM    7  C   UNL     1       2.414   0.737  -0.056  1.00  0.00     0.011 A 
HETATM    8  C   UNL     1      -1.223  -1.561   0.036  1.00  0.00     0.043 C 
HETATM    9  C   UNL     1      -2.327   0.624   0.366  1.00  0.00     0.176 C 
HETATM   10  C   UNL     1      -2.413  -0.704  -0.367  1.00  0.00     0.031 C 
ENDROOT
BRANCH   6  11
HETATM   11  C   UNL     1       3.821  -1.365   0.062  1.00  0.00     0.270 C 
BRANCH  11  12
HETATM   12  N   UNL     1       4.006  -2.246  -1.093  1.00  0.00    -0.075 N 
HETATM   13  C   UNL     1       5.283  -2.939  -1.024  1.00  0.00     0.267 C 
HETATM   14  H   UNL     1       3.975  -1.687  -1.946  1.00  0.00     0.277 HD
HETATM   15  H   UNL     1       3.260  -2.941  -1.092  1.00  0.00     0.277 HD
ENDBRANCH  11  12
ENDBRANCH   6  11
TORSDOF 2
