REMARK  2 active torsions:
REMARK  status: ('A' for Active; 'I' for Inactive)
REMARK    1  A    between atoms: C_6  and  C_10 
REMARK    2  A    between atoms: N_8  and  C_10 
ROOT
HETATM    1  C   UNL     1       0.049  -0.758   0.012  1.00  0.00    -0.024 A 
HETATM    2  C   UNL     1       0.005   0.640  -0.015  1.00  0.00     0.075 A 
HETATM    3  O   UNL     1      -1.162   1.360  -0.027  1.00  0.00    -0.351 OA
HETATM    4  C   UNL     1       1.295  -1.399   0.057  1.00  0.00     0.018 A 
HETATM    5  C   UNL     1       1.184   1.381  -0.064  1.00  0.00     0.038 A 
HETATM    6  C   UNL     1       2.490  -0.662   0.037  1.00  0.00    -0.032 A 
HETATM    7  C   UNL     1       2.422   0.735  -0.039  1.00  0.00     0.011 A 
HETATM    8  C   UNL     1      -1.213  -1.571   0.021  1.00  0.00     0.043 C 
HETATM    9  C   UNL     1      -2.316   0.611   0.368  1.00  0.00     0.176 C 
HETATM   10  C   UNL     1      -2.404  -0.709  -0.376  1.00  0.00     0.031 C 
ENDROOT
BRANCH   6  11
HETATM   11  C   UNL     1       3.821  -1.369   0.084  1.00  0.00     0.268 C 
BRANCH  11  12
HETATM   12  N   UNL     1       3.960  -2.161   1.301  1.00  0.00    -0.075 N 
HETATM   13  H   UNL     1       4.869  -2.626   1.302  1.00  0.00     0.274 HD
HETATM   14  H   UNL     1       3.220  -2.862   1.336  1.00  0.00     0.274 HD
HETATM   15  H   UNL     1       3.889  -1.551   2.115  1.00  0.00     0.274 HD
ENDBRANCH  11  12
ENDBRANCH   6  11
TORSDOF 2
