REMARK  3 active torsions:
REMARK  status: ('A' for Active; 'I' for Inactive)
REMARK    1  A    between atoms: N_1  and  C_2 
REMARK    2  A    between atoms: C_5  and  C_13 
REMARK    3  A    between atoms: O_9  and  C_13 
ROOT
HETATM    1  C   UNL     1      -2.603   0.005  -0.931  1.00  0.00     0.030 A 
HETATM    2  C   UNL     1      -2.596   0.612  -2.192  1.00  0.00     0.038 A 
HETATM    3  C   UNL     1      -3.703   0.539  -3.062  1.00  0.00    -0.033 A 
HETATM    4  C   UNL     1      -3.776  -0.670  -0.555  1.00  0.00     0.029 A 
HETATM    5  C   UNL     1      -4.890  -0.740  -1.394  1.00  0.00     0.003 A 
HETATM    6  C   UNL     1      -4.853  -0.139  -2.647  1.00  0.00     0.009 A 
ENDROOT
BRANCH   1   7
HETATM    7  N   UNL     1      -1.532   0.058  -0.061  1.00  0.00    -0.377 N 
HETATM    8  C   UNL     1      -0.584   1.180  -0.017  1.00  0.00     0.149 C 
HETATM    9  C   UNL     1       0.812   0.749  -0.491  1.00  0.00     0.187 C 
HETATM   10  O   UNL     1       1.280  -0.410   0.218  1.00  0.00    -0.388 OA
HETATM   11  C   UNL     1       0.377  -1.509   0.016  1.00  0.00     0.187 C 
HETATM   12  C   UNL     1      -1.032  -1.191   0.543  1.00  0.00     0.149 C 
ENDBRANCH   1   7
BRANCH   3  13
HETATM   13  C   UNL     1      -3.641   1.168  -4.429  1.00  0.00     0.203 C 
BRANCH  13  14
HETATM   14  O   UNL     1      -3.427   2.569  -4.333  1.00  0.00    -0.396 OA
HETATM   15  H   UNL     1      -3.391   2.952  -5.223  1.00  0.00     0.209 HD
ENDBRANCH  13  14
ENDBRANCH   3  13
TORSDOF 3
