REMARK  2 active torsions:
REMARK  status: ('A' for Active; 'I' for Inactive)
REMARK    1  A    between atoms: C_6  and  C_12 
REMARK    2  A    between atoms: N_11  and  C_12 
ROOT
HETATM    1  N   UNL     1      -0.227   0.678  -0.003  1.00  0.00    -0.317 N 
HETATM    2  C   UNL     1      -0.333  -0.707   0.023  1.00  0.00     0.111 A 
HETATM    3  C   UNL     1       0.987   1.362  -0.024  1.00  0.00     0.106 A 
HETATM    4  N   UNL     1      -1.591  -1.095   0.034  1.00  0.00    -0.351 N 
ATOM      5  HN  UNL     1      -1.944  -2.052   0.051  1.00  0.00     0.166 HD
HETATM    6  C   UNL     1       2.145   0.669  -0.023  1.00  0.00    -0.017 A 
HETATM    7  C   UNL     1       0.881  -1.447   0.040  1.00  0.00     0.050 A 
HETATM    8  C   UNL     1       2.061  -0.797   0.030  1.00  0.00     0.014 A 
HETATM    9  C   UNL     1      -2.326   0.064   0.017  1.00  0.00     0.107 A 
HETATM   10  C   UNL     1      -1.507   1.170  -0.000  1.00  0.00     0.115 A 
ENDROOT
BRANCH   6  11
HETATM   11  C   UNL     1       3.504   1.323  -0.043  1.00  0.00     0.271 C 
BRANCH  11  12
HETATM   12  N   UNL     1       4.253   0.964  -1.248  1.00  0.00    -0.075 N 
HETATM   13  C   UNL     1       5.563   1.599  -1.264  1.00  0.00     0.267 C 
HETATM   14  H   UNL     1       3.727   1.266  -2.068  1.00  0.00     0.277 HD
HETATM   15  H   UNL     1       4.384  -0.047  -1.257  1.00  0.00     0.277 HD
ENDBRANCH  11  12
ENDBRANCH   6  11
TORSDOF 2
