REMARK  3 active torsions:
REMARK  status: ('A' for Active; 'I' for Inactive)
REMARK    1  A    between atoms: N_1  and  C_2 
REMARK    2  A    between atoms: N_7  and  C_11 
REMARK    3  A    between atoms: C_8  and  C_11 
ROOT
HETATM    1  C   UNL     1       2.469   0.011   1.041  1.00  0.00     0.030 A 
HETATM    2  C   UNL     1       3.646  -0.650   0.671  1.00  0.00     0.030 A 
HETATM    3  C   UNL     1       2.495   0.695   2.267  1.00  0.00     0.030 A 
HETATM    4  C   UNL     1       4.796  -0.626   1.473  1.00  0.00     0.011 A 
HETATM    5  C   UNL     1       3.638   0.734   3.072  1.00  0.00     0.011 A 
HETATM    6  C   UNL     1       4.802   0.065   2.689  1.00  0.00    -0.033 A 
ENDROOT
BRANCH   1   7
HETATM    7  N   UNL     1       1.334  -0.004   0.252  1.00  0.00    -0.381 N 
HETATM    8  C   UNL     1       0.997  -1.126  -0.623  1.00  0.00     0.123 C 
HETATM    9  C   UNL     1      -0.404  -1.631  -0.267  1.00  0.00     0.020 C 
HETATM   10  C   UNL     1      -1.436  -0.503  -0.271  1.00  0.00     0.003 C 
HETATM   11  C   UNL     1      -0.983   0.672   0.596  1.00  0.00     0.020 C 
HETATM   12  C   UNL     1       0.417   1.135   0.205  1.00  0.00     0.123 C 
ENDBRANCH   1   7
BRANCH   6  13
HETATM   13  C   UNL     1       6.036   0.094   3.558  1.00  0.00     0.270 C 
BRANCH  13  14
HETATM   14  N   UNL     1       5.788  -0.535   4.855  1.00  0.00    -0.075 N 
HETATM   15  C   UNL     1       6.977  -0.499   5.691  1.00  0.00     0.267 C 
HETATM   16  H   UNL     1       5.514  -1.507   4.707  1.00  0.00     0.277 HD
HETATM   17  H   UNL     1       5.045  -0.021   5.328  1.00  0.00     0.277 HD
ENDBRANCH  13  14
ENDBRANCH   6  13
TORSDOF 3
