REMARK  3 active torsions:
REMARK  status: ('A' for Active; 'I' for Inactive)
REMARK    1  A    between atoms: N_1  and  C_2 
REMARK    2  A    between atoms: C_4  and  C_10 
REMARK    3  A    between atoms: N_5  and  C_10 
ROOT
HETATM    1  C   UNL     1       2.471   0.011   1.051  1.00  0.00     0.030 A 
HETATM    2  C   UNL     1       3.673  -0.597   0.658  1.00  0.00     0.038 A 
HETATM    3  C   UNL     1       4.844  -0.529   1.430  1.00  0.00    -0.031 A 
HETATM    4  C   UNL     1       2.478   0.678   2.286  1.00  0.00     0.029 A 
HETATM    5  C   UNL     1       3.624   0.742   3.084  1.00  0.00     0.003 A 
HETATM    6  C   UNL     1       4.803   0.142   2.655  1.00  0.00     0.009 A 
ENDROOT
BRANCH   1   7
HETATM    7  N   UNL     1       1.343  -0.031   0.251  1.00  0.00    -0.381 N 
HETATM    8  C   UNL     1       1.441  -0.091  -1.208  1.00  0.00     0.123 C 
HETATM    9  C   UNL     1       0.706   1.104  -1.814  1.00  0.00     0.020 C 
HETATM   10  C   UNL     1      -0.729   1.197  -1.303  1.00  0.00     0.003 C 
HETATM   11  C   UNL     1      -0.775   1.191   0.225  1.00  0.00     0.020 C 
HETATM   12  C   UNL     1      -0.012   0.001   0.802  1.00  0.00     0.123 C 
ENDBRANCH   1   7
BRANCH   3  13
HETATM   13  C   UNL     1       6.123  -1.154   0.940  1.00  0.00     0.268 C 
BRANCH  13  14
HETATM   14  N   UNL     1       7.170  -0.152   0.783  1.00  0.00    -0.075 N 
HETATM   15  H   UNL     1       8.024  -0.601   0.450  1.00  0.00     0.274 HD
HETATM   16  H   UNL     1       7.350   0.296   1.682  1.00  0.00     0.274 HD
HETATM   17  H   UNL     1       6.870   0.551   0.107  1.00  0.00     0.274 HD
ENDBRANCH  13  14
ENDBRANCH   3  13
TORSDOF 3
