REMARK  3 active torsions:
REMARK  status: ('A' for Active; 'I' for Inactive)
REMARK    1  A    between atoms: N_1  and  C_2 
REMARK    2  A    between atoms: C_4  and  C_10 
REMARK    3  A    between atoms: N_5  and  C_10 
ROOT
HETATM    1  C   UNL     1       2.465   0.019   1.060  1.00  0.00     0.030 A 
HETATM    2  C   UNL     1       3.668  -0.591   0.662  1.00  0.00     0.038 A 
HETATM    3  C   UNL     1       4.843  -0.528   1.434  1.00  0.00    -0.031 A 
HETATM    4  C   UNL     1       2.485   0.690   2.292  1.00  0.00     0.029 A 
HETATM    5  C   UNL     1       3.639   0.767   3.079  1.00  0.00     0.003 A 
HETATM    6  C   UNL     1       4.816   0.167   2.646  1.00  0.00     0.009 A 
ENDROOT
BRANCH   1   7
HETATM    7  N   UNL     1       1.328  -0.026   0.273  1.00  0.00    -0.381 N 
HETATM    8  C   UNL     1       1.041  -1.143  -0.629  1.00  0.00     0.123 C 
HETATM    9  C   UNL     1       0.885  -0.616  -2.054  1.00  0.00     0.020 C 
HETATM   10  C   UNL     1      -0.165   0.492  -2.120  1.00  0.00     0.003 C 
HETATM   11  C   UNL     1       0.127   1.594  -1.103  1.00  0.00     0.020 C 
HETATM   12  C   UNL     1       0.316   1.032   0.307  1.00  0.00     0.123 C 
ENDBRANCH   1   7
BRANCH   3  13
HETATM   13  C   UNL     1       6.119  -1.172   0.938  1.00  0.00     0.270 C 
BRANCH  13  14
HETATM   14  N   UNL     1       6.589  -2.209   1.858  1.00  0.00    -0.075 N 
HETATM   15  C   UNL     1       7.840  -2.791   1.398  1.00  0.00     0.267 C 
HETATM   16  H   UNL     1       5.883  -2.942   1.921  1.00  0.00     0.277 HD
HETATM   17  H   UNL     1       6.748  -1.783   2.771  1.00  0.00     0.277 HD
ENDBRANCH  13  14
ENDBRANCH   3  13
TORSDOF 3
