REMARK  2 active torsions:
REMARK  status: ('A' for Active; 'I' for Inactive)
REMARK    1  A    between atoms: N_1  and  C_3 
REMARK    2  A    between atoms: C_2  and  C_4 
ROOT
HETATM    1  C   UNL     1       2.487  -0.045   1.036  1.00  0.00     0.031 A 
HETATM    2  C   UNL     1       3.864   0.897   2.834  1.00  0.00     0.043 A 
HETATM    3  C   UNL     1       2.726   0.936   2.012  1.00  0.00     0.047 A 
HETATM    4  C   UNL     1       3.450  -1.059   0.907  1.00  0.00     0.029 A 
HETATM    5  C   UNL     1       4.801  -0.127   2.677  1.00  0.00     0.018 A 
HETATM    6  C   UNL     1       4.593  -1.104   1.710  1.00  0.00     0.003 A 
ENDROOT
BRANCH   1   7
HETATM    7  N   UNL     1       1.349  -0.024   0.252  1.00  0.00    -0.381 N 
HETATM    8  C   UNL     1       0.713  -1.252  -0.229  1.00  0.00     0.123 C 
HETATM    9  C   UNL     1      -0.750  -1.262   0.218  1.00  0.00     0.020 C 
HETATM   10  C   UNL     1      -1.480   0.014  -0.200  1.00  0.00     0.003 C 
HETATM   11  C   UNL     1      -0.724   1.265   0.249  1.00  0.00     0.020 C 
HETATM   12  C   UNL     1       0.735   1.224  -0.200  1.00  0.00     0.123 C 
ENDBRANCH   1   7
BRANCH   2  13
HETATM   13  C   UNL     1       4.103   1.901   3.897  1.00  0.00     0.209 C 
HETATM   14  O   UNL     1       5.067   1.934   4.642  1.00  0.00    -0.644 OA
HETATM   15  O   UNL     1       3.120   2.814   3.997  1.00  0.00    -0.644 OA
ENDBRANCH   2  13
TORSDOF 2
