REMARK  1 active torsions:
REMARK  status: ('A' for Active; 'I' for Inactive)
REMARK    1  A    between atoms: N_1  and  C_3 
ROOT
HETATM    1  C   UNL     1       3.547  -1.000   0.957  1.00  0.00     0.140 A 
HETATM    2  C   UNL     1       2.491  -0.066   1.046  1.00  0.00     0.068 A 
HETATM    3  N   UNL     1       3.623  -2.858  -0.866  1.00  0.00    -0.190 NA
HETATM    4  C   UNL     1       3.599  -2.024  -0.054  1.00  0.00     0.120 C 
HETATM    5  N   UNL     1       4.659  -1.007   1.756  1.00  0.00    -0.356 N 
ATOM      6  HN  UNL     1       5.384  -1.716   1.648  1.00  0.00     0.166 HD
HETATM    7  C   UNL     1       2.679   0.917   2.038  1.00  0.00     0.034 A 
HETATM    8  C   UNL     1       4.758  -0.044   2.687  1.00  0.00     0.089 A 
HETATM    9  C   UNL     1       3.807   0.938   2.860  1.00  0.00     0.019 A 
ENDROOT
BRANCH   2  10
HETATM   10  N   UNL     1       1.334  -0.051   0.284  1.00  0.00    -0.378 N 
HETATM   11  C   UNL     1       0.666  -1.271  -0.181  1.00  0.00     0.123 C 
HETATM   12  C   UNL     1      -0.808  -1.234   0.228  1.00  0.00     0.020 C 
HETATM   13  C   UNL     1      -1.496   0.053  -0.218  1.00  0.00     0.003 C 
HETATM   14  C   UNL     1      -0.717   1.282   0.250  1.00  0.00     0.020 C 
HETATM   15  C   UNL     1       0.743   1.206  -0.194  1.00  0.00     0.123 C 
ENDBRANCH   2  10
TORSDOF 1
