REMARK  2 active torsions:
REMARK  status: ('A' for Active; 'I' for Inactive)
REMARK    1  A    between atoms: C_1  and  C_5 
REMARK    2  A    between atoms: C_6  and  N_7 
ROOT
HETATM    1  C   UNL     1      -1.155   1.221   0.018  1.00  0.00    -0.022 A 
HETATM    2  C   UNL     1       0.255   1.184  -0.007  1.00  0.00     0.041 A 
HETATM    3  C   UNL     1       0.971  -0.019   0.003  1.00  0.00     0.026 A 
HETATM    4  C   UNL     1      -1.826  -0.016   0.020  1.00  0.00     0.012 A 
HETATM    5  C   UNL     1      -1.125  -1.223  -0.015  1.00  0.00     0.003 A 
HETATM    6  C   UNL     1       0.267  -1.221  -0.048  1.00  0.00     0.029 A 
ENDROOT
BRANCH   1   7
HETATM    7  C   UNL     1      -1.896   2.503   0.030  1.00  0.00    -0.011 A 
HETATM    8  C   UNL     1      -3.114   2.657   0.699  1.00  0.00     0.099 A 
HETATM    9  N   UNL     1      -3.848   3.798   0.747  1.00  0.00    -0.374 N 
HETATM   10  C   UNL     1      -3.344   4.866   0.099  1.00  0.00     0.087 A 
ATOM     11  HN  UNL     1      -4.735   3.844   1.248  1.00  0.00     0.164 HD
HETATM   12  C   UNL     1      -2.147   4.843  -0.592  1.00  0.00     0.018 A 
HETATM   13  C   UNL     1      -1.425   3.649  -0.628  1.00  0.00     0.015 A 
ENDBRANCH   1   7
BRANCH   3  14
HETATM   14  N   UNL     1       2.362  -0.012  -0.168  1.00  0.00    -0.399 N 
HETATM   15  H   UNL     1       2.858   0.838  -0.131  1.00  0.00     0.156 HD
HETATM   16  H   UNL     1       2.843  -0.857  -0.324  1.00  0.00     0.156 HD
ENDBRANCH   3  14
TORSDOF 2
