REMARK  1 active torsions:
REMARK  status: ('A' for Active; 'I' for Inactive)
REMARK    1  A    between atoms: C_6  and  C_7 
ROOT
HETATM    1  N   UNL     1       1.530   0.334  -0.005  1.00  0.00    -0.360 N 
HETATM    2  C   UNL     1      -0.309  -0.930  -0.007  1.00  0.00    -0.007 A 
HETATM    3  C   UNL     1       0.151   0.390   0.004  1.00  0.00     0.044 A 
HETATM    4  C   UNL     1       1.952  -0.969   0.001  1.00  0.00     0.091 A 
HETATM    5  C   UNL     1       0.835  -1.774  -0.003  1.00  0.00     0.031 A 
HETATM    6  C   UNL     1      -2.589  -0.086  -0.021  1.00  0.00     0.041 A 
HETATM    7  C   UNL     1      -1.698  -1.171  -0.020  1.00  0.00     0.032 A 
HETATM    8  C   UNL     1      -0.726   1.485   0.015  1.00  0.00     0.031 A 
HETATM    9  C   UNL     1      -2.102   1.225   0.001  1.00  0.00     0.021 A 
HETATM   10  C   UNL     1       2.407   1.483  -0.039  1.00  0.00     0.155 C 
ENDROOT
BRANCH   6  11
HETATM   11  C   UNL     1      -4.044  -0.374  -0.051  1.00  0.00     0.209 C 
HETATM   12  O   UNL     1      -4.556  -1.478  -0.075  1.00  0.00    -0.644 OA
HETATM   13  O   UNL     1      -4.797   0.743  -0.056  1.00  0.00    -0.644 OA
ENDBRANCH   6  11
TORSDOF 1
