REMARK  3 active torsions:
REMARK  status: ('A' for Active; 'I' for Inactive)
REMARK    1  A    between atoms: N_3  and  C_7 
REMARK    2  A    between atoms: C_7  and  C_8 
REMARK    3  A    between atoms: C_10  and  N_11 
ROOT
HETATM    1  C   UNL     1      -0.221  -3.155  -1.274  1.00  0.00    -0.038 A 
HETATM    2  C   UNL     1       1.146  -3.380  -1.506  1.00  0.00     0.037 A 
HETATM    3  C   UNL     1       1.597  -3.909  -2.718  1.00  0.00     0.026 A 
HETATM    4  C   UNL     1      -0.709  -4.141  -3.433  1.00  0.00     0.003 A 
HETATM    5  C   UNL     1      -1.147  -3.539  -2.254  1.00  0.00     0.009 A 
HETATM    6  C   UNL     1       0.655  -4.336  -3.655  1.00  0.00     0.029 A 
ENDROOT
BRANCH   1   7
HETATM    7  C   UNL     1      -0.676  -2.471  -0.012  1.00  0.00     0.167 C 
BRANCH   7   8
HETATM    8  N   UNL     1      -0.708  -1.027  -0.179  1.00  0.00    -0.347 N 
HETATM    9  C   UNL     1       0.312  -0.169   0.112  1.00  0.00     0.182 A 
HETATM   10  N   UNL     1      -0.043   1.084  -0.078  1.00  0.00    -0.361 N 
HETATM   11  C   UNL     1      -1.340   1.028  -0.520  1.00  0.00     0.106 A 
ATOM     12  HN  UNL     1       0.525   1.918   0.071  1.00  0.00     0.166 HD
HETATM   13  C   UNL     1      -1.774  -0.278  -0.594  1.00  0.00     0.109 A 
ENDBRANCH   7   8
ENDBRANCH   1   7
BRANCH   3  14
HETATM   14  N   UNL     1       2.955  -4.206  -2.892  1.00  0.00    -0.399 N 
HETATM   15  H   UNL     1       3.614  -3.902  -2.227  1.00  0.00     0.156 HD
HETATM   16  H   UNL     1       3.249  -4.720  -3.678  1.00  0.00     0.156 HD
ENDBRANCH   3  14
TORSDOF 3
