REMARK  4 active torsions:
REMARK  status: ('A' for Active; 'I' for Inactive)
REMARK    1  A    between atoms: N_1  and  C_3 
REMARK    2  A    between atoms: C_3  and  C_8 
REMARK    3  A    between atoms: C_9  and  C_16 
REMARK    4  A    between atoms: N_10  and  C_16 
ROOT
HETATM    1  C   UNL     1       3.173   1.304  -0.369  1.00  0.00    -0.033 A 
HETATM    2  C   UNL     1       4.389   3.613  -1.459  1.00  0.00    -0.033 A 
HETATM    3  C   UNL     1       2.721   2.580  -0.019  1.00  0.00     0.009 A 
HETATM    4  C   UNL     1       4.300   1.197  -1.202  1.00  0.00     0.009 A 
HETATM    5  C   UNL     1       3.301   3.723  -0.580  1.00  0.00     0.009 A 
HETATM    6  C   UNL     1       4.910   2.346  -1.731  1.00  0.00     0.009 A 
ENDROOT
BRANCH   1   7
HETATM    7  C   UNL     1       2.423   0.060   0.095  1.00  0.00     0.273 C 
BRANCH   7   8
HETATM    8  N   UNL     1       1.009   0.024  -0.341  1.00  0.00    -0.064 N 
HETATM    9  C   UNL     1       0.913   0.006  -1.817  1.00  0.00     0.263 C 
HETATM   10  C   UNL     1      -0.541  -0.129  -2.328  1.00  0.00     0.262 C 
HETATM   11  N   UNL     1      -1.286  -1.289  -1.799  1.00  0.00    -0.072 N 
HETATM   12  C   UNL     1      -1.159  -1.297  -0.330  1.00  0.00     0.262 C 
HETATM   13  C   UNL     1      -0.831  -2.548  -2.385  1.00  0.00     0.269 C 
HETATM   14  H   UNL     1      -2.268  -1.200  -2.057  1.00  0.00     0.279 HD
HETATM   15  C   UNL     1       0.289  -1.147   0.207  1.00  0.00     0.263 C 
HETATM   16  H   UNL     1       0.570   0.870   0.021  1.00  0.00     0.280 HD
ENDBRANCH   7   8
ENDBRANCH   1   7
BRANCH   2  17
HETATM   17  C   UNL     1       4.966   4.848  -2.107  1.00  0.00     0.268 C 
BRANCH  17  18
HETATM   18  N   UNL     1       3.968   5.541  -2.913  1.00  0.00    -0.075 N 
HETATM   19  H   UNL     1       4.388   6.369  -3.337  1.00  0.00     0.274 HD
HETATM   20  H   UNL     1       3.188   5.822  -2.319  1.00  0.00     0.274 HD
HETATM   21  H   UNL     1       3.630   4.918  -3.646  1.00  0.00     0.274 HD
ENDBRANCH  17  18
ENDBRANCH   2  17
TORSDOF 4
