REMARK  4 active torsions:
REMARK  status: ('A' for Active; 'I' for Inactive)
REMARK    1  A    between atoms: N_1  and  C_3 
REMARK    2  A    between atoms: C_3  and  C_4 
REMARK    3  A    between atoms: C_10  and  C_15 
REMARK    4  A    between atoms: O_12  and  C_15 
ROOT
HETATM    1  C   UNL     1       2.422   0.022   0.046  1.00  0.00     0.273 C 
ENDROOT
BRANCH   1   2
HETATM    2  N   UNL     1       1.016  -0.007  -0.398  1.00  0.00    -0.064 N 
HETATM    3  C   UNL     1       0.900  -0.000  -1.871  1.00  0.00     0.263 C 
HETATM    4  C   UNL     1      -0.567  -0.105  -2.345  1.00  0.00     0.262 C 
HETATM    5  N   UNL     1      -1.310  -1.261  -1.809  1.00  0.00    -0.072 N 
HETATM    6  C   UNL     1      -1.146  -1.293  -0.342  1.00  0.00     0.262 C 
HETATM    7  C   UNL     1      -0.878  -2.510  -2.432  1.00  0.00     0.269 C 
HETATM    8  H   UNL     1      -2.301  -1.160  -2.030  1.00  0.00     0.279 HD
HETATM    9  C   UNL     1       0.315  -1.177   0.160  1.00  0.00     0.263 C 
HETATM   10  H   UNL     1       0.575   0.844  -0.048  1.00  0.00     0.280 HD
ENDBRANCH   1   2
BRANCH   1  11
HETATM   11  C   UNL     1       3.148   1.273  -0.406  1.00  0.00    -0.032 A 
HETATM   12  C   UNL     1       2.639   2.540  -0.076  1.00  0.00     0.018 A 
HETATM   13  C   UNL     1       3.218   3.707  -0.591  1.00  0.00    -0.034 A 
HETATM   14  C   UNL     1       4.349   3.597  -1.411  1.00  0.00     0.009 A 
HETATM   15  C   UNL     1       4.886   2.345  -1.714  1.00  0.00     0.001 A 
HETATM   16  C   UNL     1       4.287   1.188  -1.217  1.00  0.00     0.009 A 
BRANCH  13  17
HETATM   17  C   UNL     1       2.590   5.050  -0.331  1.00  0.00     0.202 C 
BRANCH  17  18
HETATM   18  O   UNL     1       3.522   5.941   0.268  1.00  0.00    -0.396 OA
HETATM   19  H   UNL     1       3.095   6.798   0.426  1.00  0.00     0.209 HD
ENDBRANCH  17  18
ENDBRANCH  13  17
ENDBRANCH   1  11
TORSDOF 4
