REMARK  3 active torsions:
REMARK  status: ('A' for Active; 'I' for Inactive)
REMARK    1  A    between atoms: C_3  and  C_7 
REMARK    2  A    between atoms: C_5  and  C_11 
REMARK    3  A    between atoms: C_11  and  O_12 
ROOT
HETATM    1  N   UNK     1       1.288  -0.576   0.472  1.00  0.00    -0.351 N 
ATOM      2  HN  UNK     1       2.069  -1.063   0.912  1.00  0.00     0.166 HD
HETATM    3  C   UNK     1       0.228  -1.169  -0.049  1.00  0.00     0.084 A 
HETATM    4  S   UNK     1      -0.953  -0.088  -0.693  1.00  0.00    -0.081 SA
HETATM    5  C   UNK     1       1.190   0.806   0.336  1.00  0.00     0.040 A 
HETATM    6  C   UNK     1       0.037   1.243  -0.285  1.00  0.00     0.079 A 
ENDROOT
BRANCH   3   7
HETATM    7  C   UNK     1       0.007  -2.626  -0.058  1.00  0.00    -0.001 A 
HETATM    8  C   UNK     1       0.536  -3.410   0.980  1.00  0.00     0.038 A 
HETATM    9  C   UNK     1       0.339  -4.792   0.995  1.00  0.00     0.035 A 
HETATM   10 CL   UNK     1       0.981  -5.733   2.286  1.00  0.00    -0.084 Cl
HETATM   11  C   UNK     1      -0.376  -5.418  -0.023  1.00  0.00     0.024 A 
HETATM   12  C   UNK     1      -0.895  -4.658  -1.067  1.00  0.00     0.003 A 
HETATM   13  C   UNK     1      -0.704  -3.272  -1.084  1.00  0.00     0.014 A 
ENDBRANCH   3   7
BRANCH   5  14
HETATM   14  C   UNK     1       2.311   1.658   0.832  1.00  0.00     0.221 C 
BRANCH  14  15
HETATM   15  O   UNK     1       3.548   1.298   0.224  1.00  0.00    -0.395 OA
HETATM   16  H   UNK     1       3.760   0.376   0.441  1.00  0.00     0.209 HD
ENDBRANCH  14  15
ENDBRANCH   5  14
TORSDOF 3
