REMARK  3 active torsions:
REMARK  status: ('A' for Active; 'I' for Inactive)
REMARK    1  A    between atoms: C_4  and  C_8 
REMARK    2  A    between atoms: C_6  and  C_7 
REMARK    3  A    between atoms: C_8  and  O_10 
ROOT
HETATM    1  N   UNL     1       0.057   1.044  -0.022  1.00  0.00    -0.298 N 
ATOM      2  HN  UNL     1      -0.313   1.995  -0.033  1.00  0.00     0.187 HD
HETATM    3  N   UNL     1      -0.642  -0.105   0.007  1.00  0.00    -0.298 N 
HETATM    4  C   UNL     1       0.151  -1.221   0.035  1.00  0.00     0.053 A 
HETATM    5  C   UNL     1       1.446  -0.745  -0.004  1.00  0.00     0.060 A 
HETATM    6  C   UNL     1       1.345   0.670  -0.034  1.00  0.00     0.060 A 
HETATM    7  C   UNL     1      -2.082  -0.017  -0.028  1.00  0.00     0.177 C 
ENDROOT
BRANCH   6   8
HETATM    8  C   UNL     1       2.428   1.651  -0.094  1.00  0.00    -0.008 A 
HETATM    9  C   UNL     1       2.205   2.913  -0.665  1.00  0.00     0.014 A 
HETATM   10  C   UNL     1       3.234   3.852  -0.746  1.00  0.00     0.001 A 
HETATM   11  C   UNL     1       4.498   3.542  -0.248  1.00  0.00     0.000 A 
HETATM   12  C   UNL     1       4.732   2.295   0.329  1.00  0.00     0.001 A 
HETATM   13  C   UNL     1       3.705   1.353   0.405  1.00  0.00     0.014 A 
ENDBRANCH   6   8
BRANCH   4  14
HETATM   14  C   UNL     1      -0.358  -2.608   0.065  1.00  0.00     0.222 C 
BRANCH  14  15
HETATM   15  O   UNL     1      -1.069  -2.766   1.282  1.00  0.00    -0.395 OA
HETATM   16  H   UNL     1      -0.476  -2.588   2.028  1.00  0.00     0.209 HD
ENDBRANCH  14  15
ENDBRANCH   4  14
TORSDOF 3
