REMARK  3 active torsions:
REMARK  status: ('A' for Active; 'I' for Inactive)
REMARK    1  A    between atoms: N_1  and  C_4 
REMARK    2  A    between atoms: C_2  and  C_4 
REMARK    3  A    between atoms: C_5  and  N_10 
ROOT
HETATM    1  C   UNL     1       2.376   0.130   0.136  1.00  0.00     0.275 C 
ENDROOT
BRANCH   1   2
HETATM    2  N   UNL     1       0.978  -0.005  -0.355  1.00  0.00    -0.064 N 
HETATM    3  C   UNL     1       0.354  -1.245   0.159  1.00  0.00     0.263 C 
HETATM    4  C   UNL     1      -1.146  -1.370  -0.208  1.00  0.00     0.262 C 
HETATM    5  N   UNL     1      -1.984  -0.220   0.179  1.00  0.00    -0.072 N 
HETATM    6  C   UNL     1      -1.348   1.010  -0.329  1.00  0.00     0.262 C 
HETATM    7  C   UNL     1      -2.196  -0.156   1.625  1.00  0.00     0.269 C 
HETATM    8  H   UNL     1      -2.910  -0.326  -0.235  1.00  0.00     0.279 HD
HETATM    9  C   UNL     1       0.152   1.160   0.031  1.00  0.00     0.263 C 
HETATM   10  H   UNL     1       1.022  -0.050  -1.373  1.00  0.00     0.280 HD
ENDBRANCH   1   2
BRANCH   1  11
HETATM   11  C   UNL     1       3.287  -1.013  -0.310  1.00  0.00    -0.006 A 
HETATM   12  C   UNL     1       3.524  -1.320  -1.663  1.00  0.00     0.033 A 
HETATM   13  C   UNL     1       4.179  -2.522  -1.993  1.00  0.00     0.029 A 
HETATM   14  C   UNL     1       4.655  -3.379  -0.999  1.00  0.00     0.002 A 
HETATM   15  C   UNL     1       4.511  -3.032   0.334  1.00  0.00     0.001 A 
HETATM   16  C   UNL     1       3.823  -1.864   0.679  1.00  0.00     0.011 A 
BRANCH  12  17
HETATM   17  N   UNL     1       3.252  -0.429  -2.714  1.00  0.00    -0.399 N 
HETATM   18  H   UNL     1       2.796   0.424  -2.531  1.00  0.00     0.156 HD
HETATM   19  H   UNL     1       3.517  -0.657  -3.634  1.00  0.00     0.156 HD
ENDBRANCH  12  17
ENDBRANCH   1  11
TORSDOF 3
