REMARK  3 active torsions:
REMARK  status: ('A' for Active; 'I' for Inactive)
REMARK    1  A    between atoms: C_1  and  C_3 
REMARK    2  A    between atoms: C_5  and  C_12 
REMARK    3  A    between atoms: N_11  and  C_12 
ROOT
HETATM    1  C   UNL     1       0.144   1.250  -0.023  1.00  0.00     0.039 A 
HETATM    2  S   UNL     1      -1.025   0.000   0.021  1.00  0.00    -0.090 SA
HETATM    3  C   UNL     1       1.425   0.732   0.005  1.00  0.00     0.023 A 
HETATM    4  C   UNL     1       0.166  -1.231   0.017  1.00  0.00     0.009 A 
HETATM    5  C   UNL     1       1.439  -0.694   0.020  1.00  0.00     0.017 A 
ENDROOT
BRANCH   1   6
HETATM    6  C   UNL     1      -0.215   2.643  -0.094  1.00  0.00     0.092 A 
HETATM    7  O   UNL     1       0.731   3.641  -0.141  1.00  0.00    -0.321 OA
HETATM    8  C   UNL     1       0.082   4.829  -0.236  1.00  0.00     0.142 A 
HETATM    9  C   UNL     1      -1.275   4.633  -0.252  1.00  0.00     0.027 A 
HETATM   10  C   UNL     1      -1.468   3.236  -0.155  1.00  0.00     0.040 A 
ENDBRANCH   1   6
BRANCH   4  11
HETATM   11  C   UNL     1      -0.248  -2.675  -0.026  1.00  0.00     0.277 C 
BRANCH  11  12
HETATM   12  N   UNL     1       0.223  -3.390   1.161  1.00  0.00    -0.075 N 
HETATM   13  C   UNL     1      -0.155  -4.795   1.099  1.00  0.00     0.267 C 
HETATM   14  H   UNL     1      -0.191  -2.968   1.992  1.00  0.00     0.277 HD
HETATM   15  H   UNL     1       1.240  -3.326   1.200  1.00  0.00     0.277 HD
ENDBRANCH  11  12
ENDBRANCH   4  11
TORSDOF 3
