REMARK  4 active torsions:
REMARK  status: ('A' for Active; 'I' for Inactive)
REMARK    1  A    between atoms: C_1  and  O_4 
REMARK    2  A    between atoms: O_4  and  C_5 
REMARK    3  A    between atoms: C_6  and  C_14 
REMARK    4  A    between atoms: O_11  and  C_14 
ROOT
HETATM    1  C   UNL     1      -0.804   3.558  -0.076  1.00  0.00     0.077 A 
HETATM    2  C   UNL     1       0.304   6.140  -0.139  1.00  0.00    -0.035 A 
HETATM    3  C   UNL     1      -0.079   3.981  -1.191  1.00  0.00     0.038 A 
HETATM    4  C   UNL     1      -1.038   4.453   0.971  1.00  0.00     0.038 A 
HETATM    5  C   UNL     1      -0.488   5.737   0.942  1.00  0.00     0.012 A 
HETATM    6  C   UNL     1       0.494   5.255  -1.210  1.00  0.00     0.012 A 
ENDROOT
BRANCH   1   7
HETATM    7  O   UNL     1      -1.383   2.318   0.058  1.00  0.00    -0.294 OA
BRANCH   7   8
HETATM    8  C   UNL     1      -0.791   1.211  -0.510  1.00  0.00     0.147 A 
HETATM    9  N   UNL     1      -1.672   0.276  -0.929  1.00  0.00    -0.347 N 
HETATM   10  C   UNL     1      -1.167  -0.850  -1.475  1.00  0.00     0.090 A 
ATOM     11  HN  UNL     1      -2.678   0.416  -0.836  1.00  0.00     0.167 HD
HETATM   12  C   UNL     1       0.187  -1.091  -1.637  1.00  0.00     0.017 A 
HETATM   13  C   UNL     1       1.079  -0.134  -1.173  1.00  0.00     0.006 A 
HETATM   14  C   UNL     1       0.587   1.023  -0.571  1.00  0.00     0.056 A 
ENDBRANCH   7   8
ENDBRANCH   1   7
BRANCH   2  15
HETATM   15  C   UNL     1       0.951   7.499  -0.163  1.00  0.00     0.202 C 
BRANCH  15  16
HETATM   16  O   UNL     1       2.367   7.369  -0.120  1.00  0.00    -0.396 OA
HETATM   17  H   UNL     1       2.773   8.250  -0.135  1.00  0.00     0.209 HD
ENDBRANCH  15  16
ENDBRANCH   2  15
TORSDOF 4
