REMARK  3 active torsions:
REMARK  status: ('A' for Active; 'I' for Inactive)
REMARK    1  A    between atoms: C_1  and  C_2 
REMARK    2  A    between atoms: C_8  and  C_12 
REMARK    3  A    between atoms: N_9  and  C_12 
ROOT
HETATM    1  C   UNL     1       2.623   1.480   0.012  1.00  0.00    -0.025 A 
HETATM    2  C   UNL     1       2.880   2.358   1.079  1.00  0.00     0.021 A 
HETATM    3  C   UNL     1       4.083   3.078   1.156  1.00  0.00    -0.032 A 
HETATM    4  C   UNL     1       3.588   1.350  -0.996  1.00  0.00     0.012 A 
HETATM    5  C   UNL     1       4.790   2.058  -0.930  1.00  0.00     0.001 A 
HETATM    6  C   UNL     1       5.041   2.905   0.146  1.00  0.00     0.009 A 
ENDROOT
BRANCH   1   7
HETATM    7  C   UNL     1       1.403   0.669  -0.033  1.00  0.00    -0.019 A 
HETATM    8  C   UNL     1       0.203   1.084   0.517  1.00  0.00     0.061 A 
HETATM    9  S   UNL     1      -1.043  -0.080   0.360  1.00  0.00    -0.113 SA
HETATM   10  C   UNL     1      -0.007  -1.156  -0.465  1.00  0.00     0.050 A 
HETATM   11  C   UNL     1       1.260  -0.637  -0.615  1.00  0.00     0.020 A 
ENDBRANCH   1   7
BRANCH   3  12
HETATM   12  C   UNL     1       4.354   3.991   2.330  1.00  0.00     0.270 C 
BRANCH  12  13
HETATM   13  N   UNL     1       4.539   5.378   1.905  1.00  0.00    -0.075 N 
HETATM   14  C   UNL     1       4.832   6.240   3.040  1.00  0.00     0.267 C 
HETATM   15  H   UNL     1       3.685   5.703   1.451  1.00  0.00     0.277 HD
HETATM   16  H   UNL     1       5.326   5.416   1.258  1.00  0.00     0.277 HD
ENDBRANCH  12  13
ENDBRANCH   3  12
TORSDOF 3
