REMARK  3 active torsions:
REMARK  status: ('A' for Active; 'I' for Inactive)
REMARK    1  A    between atoms: C_1  and  N_2 
REMARK    2  A    between atoms: C_6  and  C_11 
REMARK    3  A    between atoms: N_8  and  C_11 
ROOT
HETATM    1  C   UNL     1      -0.701   1.212  -0.056  1.00  0.00     0.103 A 
HETATM    2  N   UNL     1      -1.385   0.051   0.023  1.00  0.00    -0.352 N 
ATOM      3  HN  UNL     1      -2.404   0.038  -0.007  1.00  0.00     0.166 HD
HETATM    4  C   UNL     1       0.695   1.229  -0.012  1.00  0.00     0.057 A 
HETATM    5  C   UNL     1       1.421   0.035   0.085  1.00  0.00    -0.028 A 
HETATM    6  C   UNL     1      -0.676  -1.095   0.143  1.00  0.00     0.090 A 
HETATM    7  C   UNL     1       0.706  -1.154   0.178  1.00  0.00     0.026 A 
ENDROOT
BRANCH   1   8
HETATM    8  N   UNL     1      -1.378   2.395  -0.306  1.00  0.00    -0.367 N 
HETATM    9  C   UNL     1      -2.709   2.308  -0.895  1.00  0.00     0.124 C 
HETATM   10  C   UNL     1      -2.886   3.541  -1.787  1.00  0.00     0.020 C 
HETATM   11  C   UNL     1      -2.615   4.843  -1.027  1.00  0.00     0.003 C 
HETATM   12  C   UNL     1      -1.286   4.800  -0.267  1.00  0.00     0.020 C 
HETATM   13  C   UNL     1      -1.173   3.534   0.583  1.00  0.00     0.124 C 
ENDBRANCH   1   8
BRANCH   5  14
HETATM   14  C   UNL     1       2.928   0.056   0.049  1.00  0.00     0.270 C 
BRANCH  14  15
HETATM   15  N   UNL     1       3.442  -0.606  -1.151  1.00  0.00    -0.075 N 
HETATM   16  C   UNL     1       4.897  -0.589  -1.182  1.00  0.00     0.267 C 
HETATM   17  H   UNL     1       3.087  -0.122  -1.976  1.00  0.00     0.277 HD
HETATM   18  H   UNL     1       3.132  -1.578  -1.141  1.00  0.00     0.277 HD
ENDBRANCH  14  15
ENDBRANCH   5  14
TORSDOF 3
