REMARK  4 active torsions:
REMARK  status: ('A' for Active; 'I' for Inactive)
REMARK    1  A    between atoms: O_1  and  C_2 
REMARK    2  A    between atoms: O_1  and  C_4 
REMARK    3  A    between atoms: N_3  and  C_10 
REMARK    4  A    between atoms: C_5  and  C_10 
ROOT
HETATM    1  C   UNL     1       0.249   1.119  -0.144  1.00  0.00     0.076 A 
HETATM    2  C   UNL     1      -1.304   3.464  -0.152  1.00  0.00    -0.033 A 
HETATM    3  C   UNL     1       0.296   1.988  -1.235  1.00  0.00     0.038 A 
HETATM    4  C   UNL     1      -0.635   1.377   0.903  1.00  0.00     0.038 A 
HETATM    5  C   UNL     1      -1.410   2.541   0.899  1.00  0.00     0.011 A 
HETATM    6  C   UNL     1      -0.441   3.171  -1.221  1.00  0.00     0.011 A 
ENDROOT
BRANCH   1   7
HETATM    7  O   UNL     1       0.995  -0.035  -0.037  1.00  0.00    -0.311 OA
BRANCH   7   8
HETATM    8  C   UNL     1       2.235  -0.111  -0.632  1.00  0.00     0.076 A 
HETATM    9  C   UNL     1       3.128   0.959  -0.746  1.00  0.00     0.037 A 
HETATM   10  C   UNL     1       4.348   0.787  -1.402  1.00  0.00     0.003 A 
HETATM   11  C   UNL     1       4.707  -0.469  -1.889  1.00  0.00     0.000 A 
HETATM   12  C   UNL     1       3.849  -1.554  -1.715  1.00  0.00     0.003 A 
HETATM   13  C   UNL     1       2.615  -1.375  -1.088  1.00  0.00     0.037 A 
ENDBRANCH   7   8
ENDBRANCH   1   7
BRANCH   2  14
HETATM   14  C   UNL     1      -2.067   4.769  -0.115  1.00  0.00     0.270 C 
BRANCH  14  15
HETATM   15  N   UNL     1      -2.944   4.922  -1.276  1.00  0.00    -0.075 N 
HETATM   16  C   UNL     1      -3.637   6.201  -1.241  1.00  0.00     0.267 C 
HETATM   17  H   UNL     1      -3.633   4.170  -1.276  1.00  0.00     0.277 HD
HETATM   18  H   UNL     1      -2.375   4.885  -2.121  1.00  0.00     0.277 HD
ENDBRANCH  14  15
ENDBRANCH   2  14
TORSDOF 4
