REMARK  3 active torsions:
REMARK  status: ('A' for Active; 'I' for Inactive)
REMARK    1  A    between atoms: C_5  and  C_7 
REMARK    2  A    between atoms: C_7  and  C_10 
REMARK    3  A    between atoms: O_8  and  C_10 
ROOT
HETATM    1  N   UNL     1      -0.224  -1.358  -0.091  1.00  0.00    -0.357 N 
ATOM      2  HN  UNL     1      -0.678  -2.261  -0.231  1.00  0.00     0.166 HD
HETATM    3  C   UNL     1      -0.852  -0.205   0.012  1.00  0.00     0.046 A 
HETATM    4  S   UNL     1       0.156   1.170   0.220  1.00  0.00    -0.087 SA
HETATM    5  C   UNL     1       1.144  -1.166   0.018  1.00  0.00     0.018 A 
HETATM    6  C   UNL     1       1.529   0.150   0.189  1.00  0.00     0.076 A 
HETATM    7  C   UNL     1      -2.330  -0.038  -0.045  1.00  0.00     0.076 C 
ENDROOT
BRANCH   5   8
HETATM    8  C   UNL     1       2.055  -2.352  -0.051  1.00  0.00     0.083 C 
BRANCH   8   9
HETATM    9  C   UNL     1       1.924  -3.136  -1.354  1.00  0.00     0.170 C 
BRANCH   9  10
HETATM   10  O   UNL     1       2.306  -2.345  -2.478  1.00  0.00    -0.400 OA
HETATM   11  H   UNL     1       2.213  -2.869  -3.289  1.00  0.00     0.209 HD
ENDBRANCH   9  10
ENDBRANCH   8   9
ENDBRANCH   5   8
TORSDOF 3
