REMARK  4 active torsions:
REMARK  status: ('A' for Active; 'I' for Inactive)
REMARK    1  A    between atoms: N_1  and  C_2 
REMARK    2  A    between atoms: C_5  and  C_8 
REMARK    3  A    between atoms: C_5  and  O_16 
REMARK    4  A    between atoms: O_16  and  C_19 
ROOT
HETATM    1  N   UNL     1       1.395  -0.010   0.125  1.00  0.00    -0.366 N 
HETATM    2  C   UNL     1      -1.463   0.003  -0.131  1.00  0.00     0.088 C 
HETATM    3  C   UNL     1       0.733   1.257  -0.156  1.00  0.00     0.125 C 
HETATM    4  C   UNL     1       0.724  -1.245  -0.261  1.00  0.00     0.125 C 
HETATM    5  C   UNL     1      -0.706   1.253   0.344  1.00  0.00     0.034 C 
HETATM    6  C   UNL     1      -0.705  -1.264   0.273  1.00  0.00     0.034 C 
ENDROOT
BRANCH   1   7
HETATM    7  C   UNL     1       2.461  -0.051   1.007  1.00  0.00     0.119 A 
HETATM    8  N   UNL     1       2.537   0.839   2.024  1.00  0.00    -0.344 N 
HETATM    9  C   UNL     1       3.605   0.738   2.864  1.00  0.00     0.022 A 
ATOM     10  HN  UNL     1       1.824   1.556   2.156  1.00  0.00     0.167 HD
HETATM   11  C   UNL     1       4.600  -0.212   2.669  1.00  0.00     0.112 A 
HETATM   12  C   UNL     1       3.649   1.651   4.049  1.00  0.00     0.069 C 
HETATM   13  N   UNL     1       4.571  -1.100   1.659  1.00  0.00    -0.370 N 
HETATM   14  C   UNL     1       3.487  -0.993   0.852  1.00  0.00     0.136 A 
ATOM     15  HN  UNL     1       5.303  -1.795   1.513  1.00  0.00     0.164 HD
ENDBRANCH   1   7
BRANCH   2  16
HETATM   16  C   UNL     1      -2.876  -0.021   0.417  1.00  0.00     0.263 C 
HETATM   17  O   UNL     1      -3.349   0.811   1.182  1.00  0.00    -0.265 OA
BRANCH  16  18
HETATM   18  O   UNL     1      -3.565  -1.077  -0.103  1.00  0.00    -0.322 OA
BRANCH  18  19
HETATM   19  C   UNL     1      -4.942  -1.185   0.290  1.00  0.00     0.174 C 
HETATM   20  C   UNL     1      -5.062  -1.836   1.656  1.00  0.00     0.034 C 
ENDBRANCH  18  19
ENDBRANCH  16  18
ENDBRANCH   2  16
TORSDOF 4
