REMARK  3 active torsions:
REMARK  status: ('A' for Active; 'I' for Inactive)
REMARK    1  A    between atoms: C_3  and  C_7 
REMARK    2  A    between atoms: C_9  and  C_14 
REMARK    3  A    between atoms: N_10  and  C_14 
ROOT
HETATM    1  C   UNL     1       2.437   1.640  -0.083  1.00  0.00    -0.007 A 
HETATM    2  C   UNL     1       3.304   1.627  -1.183  1.00  0.00     0.022 A 
HETATM    3  C   UNL     1       4.336   2.569  -1.301  1.00  0.00    -0.032 A 
HETATM    4  C   UNL     1       2.614   2.610   0.913  1.00  0.00     0.014 A 
HETATM    5  C   UNL     1       3.639   3.549   0.809  1.00  0.00     0.002 A 
HETATM    6  C   UNL     1       4.495   3.529  -0.293  1.00  0.00     0.009 A 
ENDROOT
BRANCH   1   7
HETATM    7  C   UNL     1       1.336   0.682   0.007  1.00  0.00     0.059 A 
HETATM    8  N   UNL     1       0.846   0.273   1.187  1.00  0.00    -0.299 N 
HETATM    9  N   UNL     1      -0.171  -0.539   0.866  1.00  0.00    -0.307 N 
ATOM     10  HN  UNL     1       1.174   0.524   2.120  1.00  0.00     0.187 HD
HETATM   11  C   UNL     1      -0.345  -0.686  -0.475  1.00  0.00     0.112 A 
HETATM   12  C   UNL     1      -0.987  -1.097   1.914  1.00  0.00     0.177 C 
HETATM   13  C   UNL     1       0.619   0.092  -1.065  1.00  0.00     0.050 A 
ENDBRANCH   1   7
BRANCH   3  14
HETATM   14  C   UNL     1       5.235   2.564  -2.510  1.00  0.00     0.268 C 
BRANCH  14  15
HETATM   15  N   UNL     1       5.954   1.303  -2.642  1.00  0.00    -0.075 N 
HETATM   16  H   UNL     1       6.550   1.337  -3.469  1.00  0.00     0.274 HD
HETATM   17  H   UNL     1       5.285   0.539  -2.736  1.00  0.00     0.274 HD
HETATM   18  H   UNL     1       6.529   1.152  -1.813  1.00  0.00     0.274 HD
ENDBRANCH  14  15
ENDBRANCH   3  14
TORSDOF 3
