REMARK  3 active torsions:
REMARK  status: ('A' for Active; 'I' for Inactive)
REMARK    1  A    between atoms: C_1  and  C_2 
REMARK    2  A    between atoms: C_5  and  C_6 
REMARK    3  A    between atoms: C_8  and  C_9 
ROOT
HETATM    1  C   UNL     1       0.341   0.414   1.284  1.00  0.00     0.063 A 
HETATM    2  N   UNL     1       0.353   0.179   3.687  1.00  0.00    -0.364 N 
ATOM      3  HN  UNL     1       0.537  -0.394   4.510  1.00  0.00     0.165 HD
HETATM    4  C   UNL     1      -0.109   1.449   3.814  1.00  0.00     0.042 A 
HETATM    5  C   UNL     1       0.563  -0.308   2.443  1.00  0.00     0.104 A 
HETATM    6  C   UNL     1      -0.093   1.733   1.425  1.00  0.00     0.020 A 
HETATM    7  C   UNL     1      -0.317   2.257   2.698  1.00  0.00     0.031 A 
ENDROOT
BRANCH   4   8
HETATM    8  C   UNL     1      -0.423   1.875   5.193  1.00  0.00    -0.009 A 
HETATM    9  C   UNL     1       0.300   1.357   6.286  1.00  0.00     0.032 A 
HETATM   10  C   UNL     1      -0.038   1.684   7.607  1.00  0.00     0.041 A 
HETATM   11  C   UNL     1      -1.102   2.558   7.853  1.00  0.00     0.018 A 
HETATM   12  C   UNL     1      -1.823   3.093   6.790  1.00  0.00     0.002 A 
HETATM   13  C   UNL     1      -1.487   2.752   5.477  1.00  0.00     0.014 A 
BRANCH  10  14
HETATM   14  C   UNL     1       0.678   1.107   8.768  1.00  0.00     0.209 C 
HETATM   15  O   UNL     1       0.457   1.360   9.937  1.00  0.00    -0.644 OA
HETATM   16  O   UNL     1       1.625   0.220   8.413  1.00  0.00    -0.644 OA
ENDBRANCH  10  14
ENDBRANCH   4   8
BRANCH   1  17
HETATM   17  C   UNL     1       0.546  -0.208  -0.062  1.00  0.00     0.418 C 
HETATM   18  F   UNL     1       0.945  -1.509  -0.010  1.00  0.00    -0.166 F 
HETATM   19  F   UNL     1       1.485   0.442  -0.801  1.00  0.00    -0.166 F 
HETATM   20  F   UNL     1      -0.591  -0.199  -0.813  1.00  0.00    -0.166 F 
ENDBRANCH   1  17
TORSDOF 3
