REMARK  3 active torsions:
REMARK  status: ('A' for Active; 'I' for Inactive)
REMARK    1  A    between atoms: C_3  and  C_8 
REMARK    2  A    between atoms: C_6  and  C_9 
REMARK    3  A    between atoms: C_9  and  N_10 
ROOT
HETATM    1  N   UNL     1       0.776   0.229  -0.912  1.00  0.00    -0.321 N 
ATOM      2  HN  UNL     1       1.355   0.435  -1.726  1.00  0.00     0.169 HD
HETATM    3  C   UNL     1       0.278   1.100   0.038  1.00  0.00     0.137 A 
HETATM    4  N   UNL     1      -0.474   0.503   0.979  1.00  0.00    -0.242 N 
ATOM      5  HN  UNL     1      -0.953   0.936   1.769  1.00  0.00     0.196 HD
HETATM    6  C   UNL     1       0.315  -0.932  -0.501  1.00  0.00     0.174 A 
HETATM    7  O   UNL     1      -0.447  -0.843   0.625  1.00  0.00    -0.221 OA
ENDROOT
BRANCH   3   8
HETATM    8  C   UNL     1       0.541   2.536  -0.002  1.00  0.00     0.010 A 
HETATM    9  C   UNL     1       1.312   3.087  -1.036  1.00  0.00     0.015 A 
HETATM   10  C   UNL     1       1.559   4.462  -1.085  1.00  0.00     0.001 A 
HETATM   11  C   UNL     1       1.040   5.300  -0.100  1.00  0.00     0.000 A 
HETATM   12  C   UNL     1       0.277   4.766   0.936  1.00  0.00     0.001 A 
HETATM   13  C   UNL     1       0.029   3.391   0.985  1.00  0.00     0.015 A 
ENDBRANCH   3   8
BRANCH   6  14
HETATM   14  C   UNL     1       0.490  -2.287  -1.090  1.00  0.00     0.315 C 
BRANCH  14  15
HETATM   15  N   UNL     1       1.898  -2.694  -1.139  1.00  0.00    -0.072 N 
HETATM   16  H   UNL     1       2.419  -2.043  -1.727  1.00  0.00     0.274 HD
HETATM   17  H   UNL     1       1.967  -3.634  -1.528  1.00  0.00     0.274 HD
HETATM   18  H   UNL     1       2.287  -2.686  -0.196  1.00  0.00     0.274 HD
ENDBRANCH  14  15
ENDBRANCH   6  14
TORSDOF 3
