REMARK  3 active torsions:
REMARK  status: ('A' for Active; 'I' for Inactive)
REMARK    1  A    between atoms: C_1  and  C_2 
REMARK    2  A    between atoms: C_1  and  C_4 
REMARK    3  A    between atoms: N_3  and  C_4 
ROOT
HETATM    1  C   UNL     1       1.028   0.103   0.052  1.00  0.00     0.003 C 
HETATM    2  C   UNL     1       0.521   1.452  -0.518  1.00  0.00     0.021 C 
HETATM    3  C   UNL     1       2.576   0.185   0.039  1.00  0.00     0.021 C 
ENDROOT
BRANCH   1   4
HETATM    4  C   UNL     1       0.523  -1.099  -0.781  1.00  0.00    -0.049 A 
HETATM    5  C   UNL     1      -0.729  -1.071  -1.425  1.00  0.00     0.008 A 
HETATM    6  C   UNL     1      -1.192  -2.160  -2.171  1.00  0.00     0.001 A 
HETATM    7  C   UNL     1      -0.422  -3.312  -2.281  1.00  0.00     0.000 A 
HETATM    8  C   UNL     1       0.808  -3.377  -1.636  1.00  0.00     0.001 A 
HETATM    9  C   UNL     1       1.269  -2.288  -0.889  1.00  0.00     0.008 A 
ENDBRANCH   1   4
BRANCH   1  10
HETATM   10  C   UNL     1       0.510  -0.079   1.513  1.00  0.00     0.243 C 
BRANCH  10  11
HETATM   11  N   UNL     1       0.881   1.000   2.436  1.00  0.00    -0.078 N 
HETATM   12  H   UNL     1       0.503   0.800   3.362  1.00  0.00     0.274 HD
HETATM   13  H   UNL     1       0.500   1.883   2.096  1.00  0.00     0.274 HD
HETATM   14  H   UNL     1       1.897   1.066   2.490  1.00  0.00     0.274 HD
ENDBRANCH  10  11
ENDBRANCH   1  10
TORSDOF 3
