REMARK  4 active torsions:
REMARK  status: ('A' for Active; 'I' for Inactive)
REMARK    1  A    between atoms: N_1  and  C_5 
REMARK    2  A    between atoms: N_4  and  C_11 
REMARK    3  A    between atoms: C_5  and  C_10 
REMARK    4  A    between atoms: C_10  and  C_11 
ROOT
HETATM    1  C   UNL     1       4.240   0.837  -1.313  1.00  0.00     0.140 C 
ENDROOT
BRANCH   1   2
HETATM    2  N   UNL     1       3.837   2.230  -1.311  1.00  0.00    -0.366 N 
HETATM    3  C   UNL     1       2.554   2.681  -1.462  1.00  0.00     0.090 A 
HETATM    4  C   UNL     1       2.577   4.059  -1.390  1.00  0.00     0.019 A 
HETATM    5  C   UNL     1       3.930   4.447  -1.247  1.00  0.00     0.019 A 
HETATM    6  C   UNL     1       4.690   3.299  -1.225  1.00  0.00     0.090 A 
ENDBRANCH   1   2
BRANCH   1   7
HETATM    7  C   UNL     1       4.231   0.205   0.080  1.00  0.00     0.124 C 
BRANCH   7   8
HETATM    8  C   UNL     1       4.675  -1.241  -0.064  1.00  0.00    -0.076 C 
BRANCH   8   9
HETATM    9  N   UNL     1       5.044  -2.441  -0.184  1.00  0.00    -0.370 N 
ATOM     10  HN2 UNL     1       4.765  -1.463  -0.107  1.00  0.00     0.165 HD
ATOM     11  HN1 UNL     1       5.342  -3.412  -0.281  1.00  0.00     0.165 HD
ENDBRANCH   8   9
ENDBRANCH   7   8
ENDBRANCH   1   7
TORSDOF 4
