REMARK  1 active torsions:
REMARK  status: ('A' for Active; 'I' for Inactive)
REMARK    1  A    between atoms: N_1  and  C_2 
ROOT
HETATM    1  C   UNL     1      -0.780  -2.459  -0.011  1.00  0.00     0.059 A 
HETATM    2  N   UNL     1      -2.497  -1.659  -3.069  1.00  0.00    -0.191 NA
HETATM    3  C   UNL     1      -2.100  -2.232  -2.140  1.00  0.00     0.102 C 
HETATM    4  C   UNL     1      -1.637  -2.976  -1.002  1.00  0.00     0.071 A 
HETATM    5  C   UNL     1      -0.309  -3.319   1.002  1.00  0.00     0.031 A 
HETATM    6  C   UNL     1      -2.010  -4.332  -0.951  1.00  0.00     0.025 A 
HETATM    7  C   UNL     1      -0.698  -4.660   1.041  1.00  0.00     0.002 A 
HETATM    8  C   UNL     1      -1.547  -5.167   0.066  1.00  0.00     0.002 A 
ENDROOT
BRANCH   1   9
HETATM    9  N   UNL     1      -0.357  -1.094   0.016  1.00  0.00    -0.331 N 
HETATM   10  C   UNL     1      -1.052   0.011  -0.432  1.00  0.00     0.096 A 
HETATM   11  C   UNL     1      -0.277   1.139  -0.256  1.00  0.00     0.019 A 
HETATM   12  C   UNL     1       0.921   0.730   0.355  1.00  0.00     0.019 A 
HETATM   13  C   UNL     1       0.840  -0.633   0.538  1.00  0.00     0.096 A 
ENDBRANCH   1   9
TORSDOF 1
