REMARK  4 active torsions:
REMARK  status: ('A' for Active; 'I' for Inactive)
REMARK    1  A    between atoms: C_1  and  C_5 
REMARK    2  A    between atoms: S_3  and  C_5 
REMARK    3  A    between atoms: S_3  and  C_7 
REMARK    4  A    between atoms: C_6  and  C_7 
ROOT
HETATM    1  C   UNL     1       2.992   2.239   2.221  1.00  0.00    -0.049 A 
HETATM    2  C   UNL     1       2.169   3.342   2.496  1.00  0.00     0.008 A 
HETATM    3  C   UNL     1       4.240   2.465   1.621  1.00  0.00     0.008 A 
HETATM    4  C   UNL     1       4.652   3.761   1.303  1.00  0.00     0.001 A 
HETATM    5  C   UNL     1       2.580   4.636   2.172  1.00  0.00     0.001 A 
HETATM    6  C   UNL     1       3.822   4.845   1.578  1.00  0.00     0.000 A 
ENDROOT
BRANCH   1   7
HETATM    7  C   UNL     1       2.581   0.843   2.618  1.00  0.00     0.112 C 
BRANCH   7   8
HETATM    8  S   UNL     1       1.009   0.275   1.890  1.00  0.00    -0.154 SA
BRANCH   8   9
HETATM    9  C   UNL     1       1.409   0.353   0.116  1.00  0.00     0.187 C 
BRANCH   9  10
HETATM   10  C   UNL     1       2.534  -0.568  -0.297  1.00  0.00     0.182 C 
HETATM   11  O   UNL     1       3.205  -1.319   0.390  1.00  0.00    -0.647 OA
HETATM   12  O   UNL     1       2.775  -0.494  -1.626  1.00  0.00    -0.647 OA
ENDBRANCH   9  10
ENDBRANCH   8   9
ENDBRANCH   7   8
ENDBRANCH   1   7
TORSDOF 4
