REMARK  2 active torsions:
REMARK  status: ('A' for Active; 'I' for Inactive)
REMARK    1  A    between atoms: C_1  and  N_6 
REMARK    2  A    between atoms: C_3  and  S_7 
ROOT
HETATM    1  C   UNL     1      -1.650  -0.587  -0.040  1.00  0.00     0.044 A 
HETATM    2  C   UNL     1      -0.282  -0.884  -0.140  1.00  0.00     0.054 A 
HETATM    3  C   UNL     1      -2.055   0.766   0.000  1.00  0.00     0.026 A 
HETATM    4  C   UNL     1      -1.086   1.780   0.035  1.00  0.00     0.022 A 
HETATM    5  C   UNL     1       0.667   0.133  -0.091  1.00  0.00     0.036 A 
HETATM    6  C   UNL     1       0.274   1.466  -0.004  1.00  0.00     0.025 A 
HETATM    7 CL   UNL     1       2.343  -0.259  -0.122  1.00  0.00    -0.084 Cl
ENDROOT
BRANCH   1   8
HETATM    8  N   UNL     1      -2.583  -1.634  -0.177  1.00  0.00    -0.398 N 
HETATM    9  H   UNL     1      -2.274  -2.568  -0.203  1.00  0.00     0.156 HD
HETATM   10  H   UNL     1      -3.544  -1.431  -0.248  1.00  0.00     0.156 HD
ENDBRANCH   1   8
BRANCH   3  11
HETATM   11  S   UNL     1      -3.774   1.254   0.191  1.00  0.00    -0.132 SA
HETATM   12  C   UNL     1      -4.419   0.884  -1.463  1.00  0.00     0.095 C 
ENDBRANCH   3  11
TORSDOF 2
