REMARK  0 active torsions:
REMARK  status: ('A' for Active; 'I' for Inactive)
ROOT
HETATM    1  N   UNL     1      -0.645  -1.040  -0.028  1.00  0.00    -0.303 N 
ATOM      2  HN  UNL     1      -1.020  -1.989  -0.037  1.00  0.00     0.186 HD
HETATM    3  N   UNL     1       0.648  -0.663  -0.017  1.00  0.00    -0.301 N 
HETATM    4  C   UNL     1       0.816   0.699  -0.013  1.00  0.00     0.026 A 
HETATM    5  C   UNL     1      -0.460   1.224  -0.003  1.00  0.00     0.052 A 
HETATM    6  C   UNL     1      -1.326   0.110  -0.024  1.00  0.00     0.024 A 
HETATM    7  C   UNL     1       1.660  -1.692  -0.020  1.00  0.00     0.177 C 
HETATM    8  C   UNL     1       2.134   1.374  -0.025  1.00  0.00     0.070 C 
HETATM    9  C   UNL     1      -2.807   0.100  -0.053  1.00  0.00     0.070 C 
ENDROOT
TORSDOF 0
