REMARK  1 active torsions:
REMARK  status: ('A' for Active; 'I' for Inactive)
REMARK    1  A    between atoms: N_3  and  C_5 
ROOT
HETATM    1  N   UNL     1       4.208   2.514   1.036  1.00  0.00    -0.196 NA
HETATM    2  C   UNL     1       4.082   1.444   0.601  1.00  0.00     0.086 C 
HETATM    3  C   UNL     1       3.879   0.085   0.048  1.00  0.00     0.357 C 
ENDROOT
BRANCH   3   4
HETATM    4  N   UNL     1       4.359  -1.019   0.919  1.00  0.00    -0.058 N 
HETATM    5  C   UNL     1       4.201  -2.304   0.202  1.00  0.00     0.246 C 
HETATM    6  C   UNL     1       4.744  -3.525   0.957  1.00  0.00     0.101 C 
HETATM    7  S   UNL     1       3.882  -3.786   2.534  1.00  0.00    -0.166 SA
HETATM    8  C   UNL     1       4.111  -2.108   3.191  1.00  0.00     0.101 C 
HETATM    9  C   UNL     1       3.624  -1.036   2.206  1.00  0.00     0.246 C 
HETATM   10  H   UNL     1       5.345  -0.873   1.135  1.00  0.00     0.281 HD
ENDBRANCH   3   4
TORSDOF 1
