REMARK  2 active torsions:
REMARK  status: ('A' for Active; 'I' for Inactive)
REMARK    1  A    between atoms: C_1  and  C_2 
REMARK    2  A    between atoms: C_1  and  C_5 
ROOT
HETATM    1  C   UNL     1       1.101  -0.337  -0.008  1.00  0.00     0.163 C 
HETATM    2  O   UNL     1       0.432  -0.351  -1.029  1.00  0.00    -0.292 OA
ENDROOT
BRANCH   1   3
HETATM    3  C   UNL     1       0.363  -0.368   1.305  1.00  0.00     0.010 A 
HETATM    4  C   UNL     1      -1.031  -0.603   1.298  1.00  0.00     0.017 A 
HETATM    5  C   UNL     1      -1.762  -0.650   2.489  1.00  0.00     0.025 A 
HETATM    6  C   UNL     1      -1.120  -0.455   3.712  1.00  0.00     0.034 A 
HETATM    7  C   UNL     1       0.254  -0.215   3.743  1.00  0.00     0.025 A 
HETATM    8 CL   UNL     1      -2.039  -0.512   5.206  1.00  0.00    -0.084 Cl
HETATM    9  C   UNL     1       0.992  -0.173   2.554  1.00  0.00     0.017 A 
ENDBRANCH   1   3
BRANCH   1  10
HETATM   10  C   UNL     1       2.634  -0.325  -0.132  1.00  0.00     0.064 C 
HETATM   11  C   UNL     1       3.195   0.939  -0.820  1.00  0.00     0.040 C 
HETATM   12  C   UNL     1       2.874   0.959  -2.322  1.00  0.00     0.233 C 
HETATM   13  N   UNL     1       3.423  -0.242  -2.972  1.00  0.00    -0.075 N 
HETATM   14  C   UNL     1       2.861  -1.476  -2.403  1.00  0.00     0.233 C 
HETATM   15  H   UNL     1       4.436  -0.252  -2.846  1.00  0.00     0.277 HD
HETATM   16  H   UNL     1       3.177  -0.208  -3.961  1.00  0.00     0.277 HD
HETATM   17  C   UNL     1       3.162  -1.558  -0.894  1.00  0.00     0.040 C 
ENDBRANCH   1  10
TORSDOF 2
