REMARK  3 active torsions:
REMARK  status: ('A' for Active; 'I' for Inactive)
REMARK    1  A    between atoms: C_1  and  S_4 
REMARK    2  A    between atoms: C_2  and  O_5 
REMARK    3  A    between atoms: C_3  and  O_6 
ROOT
HETATM    1  C   UNL     1       1.554  -0.396   0.179  1.00  0.00     0.067 A 
HETATM    2  C   UNL     1       0.543  -1.372  -0.019  1.00  0.00     0.087 A 
HETATM    3  C   UNL     1       1.169   0.964   0.095  1.00  0.00     0.087 A 
HETATM    4  C   UNL     1      -1.154   0.345  -0.287  1.00  0.00     0.006 A 
HETATM    5  C   UNL     1      -0.790  -1.000  -0.251  1.00  0.00     0.038 A 
HETATM    6  C   UNL     1      -0.175   1.315  -0.125  1.00  0.00     0.038 A 
ENDROOT
BRANCH   1   7
HETATM    7  S   UNL     1       3.155  -0.864   0.878  1.00  0.00    -0.129 SA
HETATM    8  C   UNL     1       4.134  -1.264  -0.598  1.00  0.00     0.096 C 
ENDBRANCH   1   7
BRANCH   2   9
HETATM    9  O   UNL     1       0.698  -2.717   0.204  1.00  0.00    -0.354 OA
HETATM   10  C   UNL     1       1.543  -3.373  -0.734  1.00  0.00     0.210 C 
ENDBRANCH   2   9
BRANCH   3  11
HETATM   11  O   UNL     1       1.950   2.053   0.399  1.00  0.00    -0.354 OA
HETATM   12  C   UNL     1       3.173   2.167  -0.314  1.00  0.00     0.210 C 
ENDBRANCH   3  11
TORSDOF 3
