REMARK  0 active torsions:
REMARK  status: ('A' for Active; 'I' for Inactive)
ROOT
HETATM    1  C   UNL     1      -1.443   0.687  -0.129  1.00  0.00     0.167 C 
HETATM    2  N   UNL     1      -0.321   1.431  -0.200  1.00  0.00    -0.367 N 
HETATM    3  N   UNL     1      -1.390  -0.616   0.208  1.00  0.00    -0.367 N 
HETATM    4  S   UNL     1      -2.914   1.383  -0.479  1.00  0.00    -0.041 SA
HETATM    5  C   UNL     1       0.928   1.158   0.471  1.00  0.00     0.122 C 
HETATM    6  C   UNL     1      -0.243  -1.469   0.460  1.00  0.00     0.122 C 
HETATM    7  C   UNL     1       1.729   0.018  -0.143  1.00  0.00     0.021 C 
HETATM    8  C   UNL     1       0.914  -1.224  -0.496  1.00  0.00     0.021 C 
HETATM    9  H   UNL     1      -0.357   2.238  -0.763  1.00  0.00     0.161 HD
HETATM   10  H   UNL     1      -2.265  -1.059   0.296  1.00  0.00     0.161 HD
ENDROOT
TORSDOF 0
