REMARK  4 active torsions:
REMARK  status: ('A' for Active; 'I' for Inactive)
REMARK    1  A    between atoms: C_1  and  C_5 
REMARK    2  A    between atoms: C_2  and  N_8 
REMARK    3  A    between atoms: C_5  and  O_9 
REMARK    4  A    between atoms: O_9  and  C_11 
ROOT
HETATM    1  C   UNL     1       1.012   0.672   0.054  1.00  0.00     0.079 A 
HETATM    2  C   UNL     1       1.080  -0.716   0.044  1.00  0.00     0.084 A 
HETATM    3  S   UNL     1      -0.467  -1.444  -0.018  1.00  0.00    -0.083 SA
HETATM    4  C   UNL     1      -0.375   1.124   0.014  1.00  0.00    -0.036 A 
HETATM    5  C   UNL     1      -1.255   0.061  -0.017  1.00  0.00     0.059 A 
HETATM    6  C   UNL     1      -0.812   2.556   0.011  1.00  0.00     0.050 C 
ENDROOT
BRANCH   1   7
HETATM    7  C   UNL     1       2.171   1.576   0.105  1.00  0.00     0.296 C 
HETATM    8  O   UNL     1       2.067   2.797   0.121  1.00  0.00    -0.259 OA
BRANCH   7   9
HETATM    9  O   UNL     1       3.379   0.929   0.125  1.00  0.00    -0.318 OA
BRANCH   9  10
HETATM   10  C   UNL     1       4.538   1.773   0.178  1.00  0.00     0.174 C 
HETATM   11  C   UNL     1       4.876   2.306  -1.203  1.00  0.00     0.034 C 
ENDBRANCH   9  10
ENDBRANCH   7   9
ENDBRANCH   1   7
BRANCH   2  12
HETATM   12  N   UNL     1       2.170  -1.511   0.081  1.00  0.00    -0.393 N 
HETATM   13  H   UNL     1       3.069  -1.111   0.117  1.00  0.00     0.156 HD
HETATM   14  H   UNL     1       2.067  -2.490   0.071  1.00  0.00     0.156 HD
ENDBRANCH   2  12
TORSDOF 4
