REMARK  2 active torsions:
REMARK  status: ('A' for Active; 'I' for Inactive)
REMARK    1  A    between atoms: C_4  and  N_8 
REMARK    2  A    between atoms: C_6  and  C_7 
ROOT
HETATM    1  N   UNL     1       1.307   0.693   0.021  1.00  0.00    -0.296 N 
ATOM      2  HN  UNL     1       1.929   1.500   0.077  1.00  0.00     0.187 HD
HETATM    3  C   UNL     1       0.487  -1.427  -0.065  1.00  0.00     0.081 A 
HETATM    4  C   UNL     1      -0.585  -0.568  -0.044  1.00  0.00     0.117 A 
HETATM    5  N   UNL     1      -0.039   0.690  -0.012  1.00  0.00    -0.281 N 
HETATM    6  C   UNL     1       1.647  -0.605  -0.037  1.00  0.00     0.062 A 
HETATM    7  C   UNL     1      -0.749   1.947  -0.030  1.00  0.00     0.179 C 
ENDROOT
BRANCH   6   8
HETATM    8  C   UNL     1       3.044  -1.038  -0.085  1.00  0.00    -0.008 A 
HETATM    9  C   UNL     1       3.396  -2.243  -0.711  1.00  0.00     0.014 A 
HETATM   10  C   UNL     1       4.734  -2.630  -0.805  1.00  0.00     0.001 A 
HETATM   11  C   UNL     1       5.732  -1.820  -0.268  1.00  0.00     0.000 A 
HETATM   12  C   UNL     1       5.394  -0.631   0.377  1.00  0.00     0.001 A 
HETATM   13  C   UNL     1       4.056  -0.242   0.468  1.00  0.00     0.014 A 
ENDBRANCH   6   8
BRANCH   4  14
HETATM   14  N   UNL     1      -1.904  -0.827  -0.066  1.00  0.00    -0.384 N 
HETATM   15  H   UNL     1      -2.551  -0.086  -0.046  1.00  0.00     0.157 HD
HETATM   16  H   UNL     1      -2.222  -1.758  -0.103  1.00  0.00     0.157 HD
ENDBRANCH   4  14
TORSDOF 2
