REMARK  3 active torsions:
REMARK  status: ('A' for Active; 'I' for Inactive)
REMARK    1  A    between atoms: C_1  and  C_4 
REMARK    2  A    between atoms: S_3  and  C_4 
REMARK    3  A    between atoms: S_3  and  C_6 
ROOT
HETATM    1  S   UNL     1       0.815   0.934  -2.469  1.00  0.00    -0.123 SA
ENDROOT
BRANCH   1   2
HETATM    2  C   UNL     1      -0.321  -0.195  -1.585  1.00  0.00     0.148 C 
BRANCH   2   3
HETATM    3  C   UNL     1      -0.116  -1.633  -2.042  1.00  0.00     0.080 C 
HETATM    4  S   UNL     1      -0.276  -2.925  -0.995  1.00  0.00    -0.065 SA
HETATM    5  N   UNL     1       0.118  -1.870  -3.365  1.00  0.00    -0.393 N 
HETATM    6  H   UNL     1       0.253  -2.792  -3.683  1.00  0.00     0.156 HD
HETATM    7  H   UNL     1       0.152  -1.120  -4.001  1.00  0.00     0.156 HD
ENDBRANCH   2   3
ENDBRANCH   1   2
BRANCH   1   8
HETATM    8  C   UNL     1       0.411   2.535  -1.780  1.00  0.00     0.000 A 
HETATM    9  C   UNL     1      -0.003   2.738  -0.460  1.00  0.00     0.018 A 
HETATM   10  C   UNL     1      -0.220   4.033   0.027  1.00  0.00     0.001 A 
HETATM   11  C   UNL     1      -0.022   5.136  -0.800  1.00  0.00     0.000 A 
HETATM   12  C   UNL     1       0.387   4.947  -2.116  1.00  0.00     0.001 A 
HETATM   13  C   UNL     1       0.604   3.654  -2.602  1.00  0.00     0.018 A 
ENDBRANCH   1   8
TORSDOF 3
