REMARK  1 active torsions:
REMARK  status: ('A' for Active; 'I' for Inactive)
REMARK    1  A    between atoms: C_1  and  C_2 
ROOT
HETATM    1  C   UNL     1      -0.183  -1.284  -0.377  1.00  0.00     0.347 C 
HETATM    2  N   UNL     1      -1.360  -0.704   0.301  1.00  0.00    -0.051 N 
HETATM    3  S   UNL     1       1.158  -0.098  -0.149  1.00  0.00    -0.124 SA
HETATM    4  C   UNL     1      -1.372   0.736   0.017  1.00  0.00     0.244 C 
HETATM    5  C   UNL     1       0.034   1.310  -0.169  1.00  0.00     0.104 C 
HETATM    6  H   UNL     1      -1.294  -0.860   1.307  1.00  0.00     0.279 HD
HETATM    7  H   UNL     1      -2.218  -1.142  -0.035  1.00  0.00     0.279 HD
ENDROOT
BRANCH   1   8
HETATM    8  C   UNL     1       0.197  -2.648   0.220  1.00  0.00     0.215 C 
HETATM    9  O   UNL     1       0.809  -3.545  -0.355  1.00  0.00    -0.646 OA
HETATM   10  O   UNL     1      -0.152  -2.797   1.520  1.00  0.00    -0.646 OA
ENDBRANCH   1   8
TORSDOF 1
