REMARK  0 active torsions:
REMARK  status: ('A' for Active; 'I' for Inactive)
ROOT
HETATM    1  O   UNL     1       1.121   1.351   0.043  1.00  0.00    -0.336 OA
HETATM    2  C   UNL     1      -0.028   0.614   0.023  1.00  0.00     0.080 A 
HETATM    3  C   UNL     1      -0.055  -0.783   0.020  1.00  0.00    -0.002 A 
HETATM    4  C   UNL     1       1.188  -1.534   0.037  1.00  0.00     0.013 A 
HETATM    5  N   UNL     1      -4.748  -1.985   0.001  1.00  0.00    -0.191 NA
HETATM    6  C   UNL     1       2.390   0.666  -0.022  1.00  0.00     0.078 A 
HETATM    7  C   UNL     1       2.331  -0.844   0.021  1.00  0.00     0.011 A 
HETATM    8  C   UNL     1      -3.735  -1.416   0.001  1.00  0.00     0.099 C 
HETATM    9  C   UNL     1      -1.285  -1.450   0.010  1.00  0.00     0.037 A 
HETATM   10  C   UNL     1      -1.220   1.340   0.016  1.00  0.00     0.039 A 
HETATM   11  C   UNL     1      -2.481  -0.724   0.005  1.00  0.00     0.045 A 
HETATM   12  C   UNL     1      -2.447   0.674   0.006  1.00  0.00     0.025 A 
HETATM   13  C   UNL     1       3.051   1.095  -1.337  1.00  0.00     0.051 C 
HETATM   14  C   UNL     1       3.207   1.166   1.175  1.00  0.00     0.051 C 
ENDROOT
TORSDOF 0
