REMARK  2 active torsions:
REMARK  status: ('A' for Active; 'I' for Inactive)
REMARK    1  A    between atoms: C_1  and  C_2 
REMARK    2  A    between atoms: C_1  and  O_9 
ROOT
HETATM    1  C   UNL     1       0.275  -0.455   1.259  1.00  0.00     0.040 A 
HETATM    2  C   UNL     1       0.645  -0.007   2.534  1.00  0.00     0.025 A 
HETATM    3  C   UNL     1      -0.079  -0.394   3.681  1.00  0.00    -0.055 A 
HETATM    4  C   UNL     1      -1.212  -1.219   3.536  1.00  0.00    -0.056 A 
HETATM    5  C   UNL     1      -0.833  -1.296   1.130  1.00  0.00     0.018 A 
HETATM    6  C   UNL     1      -1.573  -1.665   2.254  1.00  0.00     0.008 A 
HETATM    7  C   UNL     1       0.387   0.078   5.032  1.00  0.00     0.049 C 
HETATM    8  C   UNL     1      -2.082  -1.641   4.691  1.00  0.00     0.049 C 
ENDROOT
BRANCH   1   9
HETATM    9  C   UNL     1       1.017  -0.087   0.019  1.00  0.00     0.292 C 
HETATM   10  O   UNL     1       0.756  -0.554  -1.078  1.00  0.00    -0.259 OA
BRANCH   9  11
HETATM   11  O   UNL     1       1.986   0.826   0.283  1.00  0.00    -0.323 OA
HETATM   12  C   UNL     1       2.730   1.268  -0.858  1.00  0.00     0.213 C 
ENDBRANCH   9  11
ENDBRANCH   1   9
TORSDOF 2
