REMARK  3 active torsions:
REMARK  status: ('A' for Active; 'I' for Inactive)
REMARK    1  A    between atoms: C_1  and  C_2 
REMARK    2  A    between atoms: C_1  and  O_11 
REMARK    3  A    between atoms: C_2  and  N_4 
ROOT
HETATM    1  C   UNL     1       0.765   1.410  -0.305  1.00  0.00     0.156 C 
HETATM    2  N   UNL     1      -1.304  -0.021   0.017  1.00  0.00    -0.067 N 
HETATM    3  C   UNL     1      -0.790   1.342  -0.302  1.00  0.00     0.287 C 
HETATM    4  C   UNL     1       1.299  -0.014   0.018  1.00  0.00     0.038 C 
HETATM    5  C   UNL     1       0.742  -1.024  -1.007  1.00  0.00     0.036 C 
HETATM    6  C   UNL     1       0.744  -0.445   1.390  1.00  0.00     0.036 C 
HETATM    7  C   UNL     1      -0.795  -0.970  -0.998  1.00  0.00     0.235 C 
HETATM    8  C   UNL     1      -0.793  -0.422   1.348  1.00  0.00     0.235 C 
HETATM    9  H   UNL     1      -2.324  -0.022   0.019  1.00  0.00     0.280 HD
ENDROOT
BRANCH   1  10
HETATM   10  C   UNL     1       1.272   1.848  -1.669  1.00  0.00    -0.037 C 
BRANCH  10  11
HETATM   11  N   UNL     1       1.692   2.211  -2.801  1.00  0.00    -0.367 N 
ATOM     12  HN2 UNL     1       1.326   1.902  -1.900  1.00  0.00     0.165 HD
ATOM     13  HN1 UNL     1       2.032   2.505  -3.717  1.00  0.00     0.165 HD
ENDBRANCH  10  11
ENDBRANCH   1  10
BRANCH   1  14
HETATM   14  O   UNL     1       1.231   2.314   0.708  1.00  0.00    -0.374 OA
HETATM   15  H   UNL     1       0.905   3.207   0.519  1.00  0.00     0.212 HD
ENDBRANCH   1  14
TORSDOF 3
