REMARK  4 active torsions:
REMARK  status: ('A' for Active; 'I' for Inactive)
REMARK    1  A    between atoms: N_1  and  C_6 
REMARK    2  A    between atoms: C_2  and  C_5 
REMARK    3  A    between atoms: C_6  and  C_8 
REMARK    4  A    between atoms: C_6  and  C_9 
ROOT
HETATM    1  C   UNL     1       0.765   1.912   0.803  1.00  0.00     0.254 C 
ENDROOT
BRANCH   1   2
HETATM    2  N   UNL     1       0.342   0.886  -0.184  1.00  0.00    -0.057 N 
HETATM    3  C   UNL     1      -1.122   0.718  -0.276  1.00  0.00     0.253 C 
HETATM    4  C   UNL     1      -0.886  -0.800  -0.448  1.00  0.00     0.138 C 
HETATM    5  C   UNL     1       0.470  -0.521   0.235  1.00  0.00     0.253 C 
HETATM    6  H   UNL     1       0.894   1.223  -0.973  1.00  0.00     0.281 HD
BRANCH   4   7
HETATM    7  C   UNL     1      -1.866  -1.751   0.253  1.00  0.00     0.180 C 
HETATM    8  O   UNL     1      -3.092  -1.702   0.251  1.00  0.00    -0.648 OA
HETATM    9  O   UNL     1      -1.264  -2.751   0.942  1.00  0.00    -0.648 OA
ENDBRANCH   4   7
ENDBRANCH   1   2
BRANCH   1  10
HETATM   10  C   UNL     1       0.378   1.724   2.278  1.00  0.00    -0.023 A 
HETATM   11  C   UNL     1       1.182   0.992   3.170  1.00  0.00     0.009 A 
HETATM   12  C   UNL     1       0.847   0.886   4.523  1.00  0.00     0.001 A 
HETATM   13  C   UNL     1      -0.297   1.512   5.010  1.00  0.00     0.000 A 
HETATM   14  C   UNL     1      -1.110   2.238   4.145  1.00  0.00     0.001 A 
HETATM   15  C   UNL     1      -0.777   2.344   2.792  1.00  0.00     0.009 A 
ENDBRANCH   1  10
BRANCH   1  16
HETATM   16  C   UNL     1       2.244   2.313   0.639  1.00  0.00    -0.023 A 
HETATM   17  C   UNL     1       2.647   3.611   1.001  1.00  0.00     0.009 A 
HETATM   18  C   UNL     1       3.981   4.011   0.882  1.00  0.00     0.001 A 
HETATM   19  C   UNL     1       4.937   3.118   0.403  1.00  0.00     0.000 A 
HETATM   20  C   UNL     1       4.562   1.825   0.055  1.00  0.00     0.001 A 
HETATM   21  C   UNL     1       3.230   1.425   0.174  1.00  0.00     0.009 A 
ENDBRANCH   1  16
TORSDOF 4
