REMARK  3 active torsions:
REMARK  status: ('A' for Active; 'I' for Inactive)
REMARK    1  A    between atoms: C_1  and  C_2 
REMARK    2  A    between atoms: C_5  and  C_11 
REMARK    3  A    between atoms: N_10  and  C_11 
ROOT
HETATM    1  C   UNL     1      -0.118   1.090  -0.008  1.00  0.00     0.159 A 
HETATM    2  O   UNL     1      -0.990   0.035  -0.020  1.00  0.00    -0.308 OA
HETATM    3  C   UNL     1       1.181   0.617   0.022  1.00  0.00     0.045 A 
HETATM    4  C   UNL     1      -0.244  -1.108   0.003  1.00  0.00     0.079 A 
HETATM    5  C   UNL     1       1.098  -0.795   0.025  1.00  0.00     0.037 A 
ENDROOT
BRANCH   4   6
HETATM    6  C   UNL     1      -0.989  -2.393  -0.006  1.00  0.00     0.294 C 
BRANCH   6   7
HETATM    7  N   UNL     1      -1.176  -2.870  -1.372  1.00  0.00    -0.074 N 
HETATM    8  H   UNL     1      -1.689  -3.752  -1.357  1.00  0.00     0.274 HD
HETATM    9  H   UNL     1      -0.266  -3.013  -1.810  1.00  0.00     0.274 HD
HETATM   10  H   UNL     1      -1.704  -2.179  -1.904  1.00  0.00     0.274 HD
ENDBRANCH   6   7
ENDBRANCH   4   6
BRANCH   1  11
HETATM   11  C   UNL     1      -0.686   2.461  -0.030  1.00  0.00     0.439 C 
HETATM   12  F   UNL     1      -2.044   2.481  -0.046  1.00  0.00    -0.164 F 
HETATM   13  F   UNL     1      -0.297   3.181   1.056  1.00  0.00    -0.164 F 
HETATM   14  F   UNL     1      -0.272   3.159  -1.121  1.00  0.00    -0.164 F 
ENDBRANCH   1  11
TORSDOF 3
