REMARK  4 active torsions:
REMARK  status: ('A' for Active; 'I' for Inactive)
REMARK    1  A    between atoms: N_1  and  C_2 
REMARK    2  A    between atoms: C_2  and  C_3 
REMARK    3  A    between atoms: C_7  and  C_14 
REMARK    4  A    between atoms: N_8  and  C_14 
ROOT
HETATM    1  C   UNL     1       0.422   0.155  -2.525  1.00  0.00    -0.032 A 
HETATM    2  C   UNL     1      -0.462   1.192  -2.183  1.00  0.00     0.017 A 
HETATM    3  C   UNL     1      -1.759   1.246  -2.710  1.00  0.00    -0.033 A 
HETATM    4  C   UNL     1      -1.246  -0.712  -4.055  1.00  0.00     0.001 A 
HETATM    5  C   UNL     1       0.026  -0.786  -3.483  1.00  0.00     0.009 A 
HETATM    6  C   UNL     1      -2.136   0.288  -3.657  1.00  0.00     0.009 A 
ENDROOT
BRANCH   1   7
HETATM    7  C   UNL     1       1.747   0.028  -1.798  1.00  0.00     0.273 C 
BRANCH   7   8
HETATM    8  N   UNL     1       1.576   0.068  -0.335  1.00  0.00    -0.067 N 
HETATM    9  C   UNL     1       0.847  -1.088   0.207  1.00  0.00     0.235 C 
HETATM   10  C   UNL     1       1.654  -2.387   0.230  1.00  0.00     0.032 C 
HETATM   11  C   UNL     1       3.031  -2.217   0.884  1.00  0.00    -0.015 C 
HETATM   12  C   UNL     1       3.749  -0.961   0.376  1.00  0.00     0.032 C 
HETATM   13  C   UNL     1       3.892  -3.454   0.634  1.00  0.00     0.010 C 
HETATM   14  C   UNL     1       2.837   0.264   0.381  1.00  0.00     0.235 C 
HETATM   15  H   UNL     1       0.993   0.890  -0.172  1.00  0.00     0.280 HD
ENDBRANCH   7   8
ENDBRANCH   1   7
BRANCH   3  16
HETATM   16  C   UNL     1      -2.749   2.243  -2.163  1.00  0.00     0.268 C 
BRANCH  16  17
HETATM   17  N   UNL     1      -3.350   3.069  -3.201  1.00  0.00    -0.075 N 
HETATM   18  H   UNL     1      -4.009   3.722  -2.777  1.00  0.00     0.274 HD
HETATM   19  H   UNL     1      -3.843   2.473  -3.866  1.00  0.00     0.274 HD
HETATM   20  H   UNL     1      -2.620   3.589  -3.687  1.00  0.00     0.274 HD
ENDBRANCH  16  17
ENDBRANCH   3  16
TORSDOF 4
