REMARK  1 active torsions:
REMARK  status: ('A' for Active; 'I' for Inactive)
REMARK    1  A    between atoms: C_3  and  C_9 
ROOT
HETATM    1  N   UNL     1       0.292  -1.257  -0.014  1.00  0.00    -0.264 N 
ATOM      2  HN  UNL     1      -0.152  -2.086   0.381  1.00  0.00     0.194 HD
HETATM    3  C   UNL     1       1.571  -1.166  -0.450  1.00  0.00     0.050 A 
HETATM    4  C   UNL     1       1.782   0.125  -0.887  1.00  0.00     0.028 A 
HETATM    5  O   UNL     1      -0.272  -0.088  -0.192  1.00  0.00    -0.237 OA
HETATM    6  C   UNL     1       0.592   0.759  -0.705  1.00  0.00     0.111 A 
HETATM    7  C   UNL     1       2.905   0.783  -1.390  1.00  0.00     0.058 A 
HETATM    8  C   UNL     1       0.415   2.103  -1.028  1.00  0.00     0.043 A 
HETATM    9  C   UNL     1       2.767   2.145  -1.716  1.00  0.00     0.117 A 
HETATM   10  C   UNL     1       1.527   2.802  -1.541  1.00  0.00     0.045 A 
HETATM   11  F   UNL     1       3.834   2.831  -2.196  1.00  0.00    -0.206 F 
ENDROOT
BRANCH   3  12
HETATM   12  C   UNL     1       2.590  -2.276  -0.438  1.00  0.00     0.042 C 
HETATM   13  C   UNL     1       3.165  -2.498   0.963  1.00  0.00     0.038 C 
HETATM   14  C   UNL     1       4.286  -3.541   0.870  1.00  0.00     0.233 C 
HETATM   15  N   UNL     1       3.770  -4.809   0.338  1.00  0.00    -0.075 N 
HETATM   16  C   UNL     1       3.166  -4.644  -0.995  1.00  0.00     0.233 C 
HETATM   17  H   UNL     1       4.540  -5.475   0.271  1.00  0.00     0.277 HD
HETATM   18  H   UNL     1       3.046  -5.146   0.973  1.00  0.00     0.277 HD
HETATM   19  C   UNL     1       2.029  -3.611  -0.960  1.00  0.00     0.038 C 
ENDBRANCH   3  12
TORSDOF 1
