REMARK  1 active torsions:
REMARK  status: ('A' for Active; 'I' for Inactive)
REMARK    1  A    between atoms: C_8  and  N_9 
ROOT
HETATM    1  C   UNL     1      -0.701   0.558   0.018  1.00  0.00    -0.015 A 
HETATM    2  C   UNL     1      -1.066  -0.769   0.019  1.00  0.00     0.061 A 
HETATM    3  C   UNL     1       0.713   0.574   0.020  1.00  0.00     0.009 A 
HETATM    4  O   UNL     1       0.015  -1.585   0.007  1.00  0.00    -0.314 OA
HETATM    5  C   UNL     1       1.107  -0.762   0.007  1.00  0.00     0.086 A 
HETATM    6  C   UNL     1       1.706   1.570   0.021  1.00  0.00     0.043 A 
HETATM    7  C   UNL     1       2.436  -1.173  -0.023  1.00  0.00     0.040 A 
HETATM    8  C   UNL     1       3.059   1.198   0.050  1.00  0.00     0.026 A 
HETATM    9  C   UNL     1       3.404  -0.157  -0.025  1.00  0.00     0.032 A 
HETATM   10  C   UNL     1      -1.700   1.657   0.032  1.00  0.00     0.042 C 
HETATM   11  C   UNL     1      -2.435  -1.328  -0.007  1.00  0.00     0.066 C 
HETATM   12  C   UNL     1      -3.096   1.128  -0.355  1.00  0.00     0.005 C 
HETATM   13  C   UNL     1      -3.434  -0.204   0.350  1.00  0.00     0.007 C 
ENDROOT
BRANCH   8  14
HETATM   14  N   UNL     1       4.047   2.184  -0.080  1.00  0.00    -0.399 N 
HETATM   15  H   UNL     1       3.803   3.137  -0.027  1.00  0.00     0.156 HD
HETATM   16  H   UNL     1       4.986   1.924  -0.225  1.00  0.00     0.156 HD
ENDBRANCH   8  14
TORSDOF 1
