REMARK  3 active torsions:
REMARK  status: ('A' for Active; 'I' for Inactive)
REMARK    1  A    between atoms: C_1  and  N_2 
REMARK    2  A    between atoms: C_6  and  C_12 
REMARK    3  A    between atoms: O_11  and  C_12 
ROOT
HETATM    1  C   UNL     1      -0.776   1.174   0.069  1.00  0.00     0.102 A 
HETATM    2  N   UNL     1      -0.334   0.976   1.330  1.00  0.00    -0.352 N 
ATOM      3  HN  UNL     1      -0.479   1.683   2.051  1.00  0.00     0.166 HD
HETATM    4  C   UNL     1      -0.543   0.220  -0.922  1.00  0.00     0.049 A 
HETATM    5  C   UNL     1       0.517  -1.206   0.699  1.00  0.00    -0.019 A 
HETATM    6  C   UNL     1       0.306  -0.184   1.614  1.00  0.00     0.099 A 
HETATM    7  C   UNL     1       0.094  -0.978  -0.606  1.00  0.00     0.014 A 
ENDROOT
BRANCH   1   8
HETATM    8  N   UNL     1      -1.586   2.262  -0.214  1.00  0.00    -0.367 N 
HETATM    9  C   UNL     1      -2.250   2.921   0.906  1.00  0.00     0.124 C 
HETATM   10  C   UNL     1      -3.586   3.461   0.387  1.00  0.00     0.020 C 
HETATM   11  C   UNL     1      -3.400   4.351  -0.845  1.00  0.00     0.003 C 
HETATM   12  C   UNL     1      -2.533   3.679  -1.915  1.00  0.00     0.020 C 
HETATM   13  C   UNL     1      -1.231   3.144  -1.320  1.00  0.00     0.124 C 
ENDBRANCH   1   8
BRANCH   5  14
HETATM   14  C   UNL     1       1.123  -2.512   1.103  1.00  0.00     0.204 C 
BRANCH  14  15
HETATM   15  O   UNL     1       0.167  -3.560   0.983  1.00  0.00    -0.396 OA
HETATM   16  H   UNL     1       0.573  -4.400   1.248  1.00  0.00     0.209 HD
ENDBRANCH  14  15
ENDBRANCH   5  14
TORSDOF 3
