REMARK  4 active torsions:
REMARK  status: ('A' for Active; 'I' for Inactive)
REMARK    1  A    between atoms: C_1  and  C_2 
REMARK    2  A    between atoms: C_1  and  O_5 
REMARK    3  A    between atoms: C_6  and  C_10 
REMARK    4  A    between atoms: N_7  and  C_10 
ROOT
HETATM    1  C   UNL     1       0.292  -1.343   0.888  1.00  0.00     0.040 A 
HETATM    2  C   UNL     1       0.711  -1.371   2.232  1.00  0.00     0.026 A 
HETATM    3  C   UNL     1      -0.134  -1.877   3.237  1.00  0.00    -0.032 A 
HETATM    4  C   UNL     1      -0.989  -1.823   0.564  1.00  0.00     0.017 A 
HETATM    5  C   UNL     1      -1.830  -2.325   1.560  1.00  0.00     0.002 A 
HETATM    6  C   UNL     1      -1.406  -2.354   2.889  1.00  0.00     0.009 A 
ENDROOT
BRANCH   3   7
HETATM    7  C   UNL     1       0.326  -1.900   4.671  1.00  0.00     0.268 C 
BRANCH   7   8
HETATM    8  N   UNL     1       1.534  -2.709   4.804  1.00  0.00    -0.075 N 
HETATM    9  H   UNL     1       1.833  -2.715   5.780  1.00  0.00     0.274 HD
HETATM   10  H   UNL     1       2.273  -2.313   4.224  1.00  0.00     0.274 HD
HETATM   11  H   UNL     1       1.338  -3.663   4.503  1.00  0.00     0.274 HD
ENDBRANCH   7   8
ENDBRANCH   3   7
BRANCH   1  12
HETATM   12  C   UNL     1       1.182  -0.815  -0.175  1.00  0.00     0.292 C 
HETATM   13  O   UNL     1       2.306  -0.423   0.107  1.00  0.00    -0.259 OA
BRANCH  12  14
HETATM   14  O   UNL     1       0.747  -0.777  -1.463  1.00  0.00    -0.323 OA
HETATM   15  C   UNL     1       1.454  -0.207  -2.501  1.00  0.00     0.213 C 
ENDBRANCH  12  14
ENDBRANCH   1  12
TORSDOF 4
