REMARK  0 active torsions:
REMARK  status: ('A' for Active; 'I' for Inactive)
ROOT
HETATM    1  N   UNL     1       1.135   0.159  -0.270  1.00  0.00    -0.190 NA
HETATM    2  C   UNL     1       3.713   0.039  -0.005  1.00  0.00     0.152 A 
HETATM    3  C   UNL     1       2.292   0.114  -0.160  1.00  0.00     0.121 C 
HETATM    4  N   UNL     1       4.371   1.229   0.084  1.00  0.00    -0.355 N 
ATOM      5  HN  UNL     1       3.879   2.119   0.008  1.00  0.00     0.166 HD
HETATM    6  C   UNL     1       4.350  -1.189   0.079  1.00  0.00     0.153 A 
HETATM    7  F   UNL     1       3.674  -2.341  -0.026  1.00  0.00    -0.203 F 
HETATM    8  C   UNL     1       5.707   1.171   0.278  1.00  0.00     0.089 A 
HETATM    9  C   UNL     1       5.723  -1.219   0.287  1.00  0.00     0.047 A 
HETATM   10  C   UNL     1       6.417  -0.016   0.395  1.00  0.00     0.020 A 
ENDROOT
TORSDOF 0
