REMARK  2 active torsions:
REMARK  status: ('A' for Active; 'I' for Inactive)
REMARK    1  A    between atoms: C_3  and  N_5 
REMARK    2  A    between atoms: C_4  and  O_6 
ROOT
HETATM    1  N   UNL     1       0.367   1.109   0.092  1.00  0.00    -0.324 N 
ATOM      2  HN  UNL     1       0.944   1.950   0.121  1.00  0.00     0.169 HD
HETATM    3  C   UNL     1       0.913  -0.115   0.133  1.00  0.00     0.100 A 
HETATM    4  C   UNL     1      -0.980   1.181   0.011  1.00  0.00     0.143 A 
HETATM    5  C   UNL     1      -1.227  -1.184   0.025  1.00  0.00     0.008 A 
HETATM    6  C   UNL     1       0.159  -1.281   0.109  1.00  0.00     0.048 A 
HETATM    7  C   UNL     1      -1.812   0.075  -0.027  1.00  0.00     0.056 A 
ENDROOT
BRANCH   3   8
HETATM    8  N   UNL     1       2.301  -0.170   0.234  1.00  0.00    -0.385 N 
HETATM    9  H   UNL     1       2.826   0.662   0.251  1.00  0.00     0.157 HD
HETATM   10  H   UNL     1       2.756  -1.041   0.289  1.00  0.00     0.157 HD
ENDBRANCH   3   8
BRANCH   4  11
HETATM   11  O   UNL     1      -1.598   2.416  -0.050  1.00  0.00    -0.341 OA
HETATM   12  C   UNL     1      -0.673   3.497   0.017  1.00  0.00     0.211 C 
ENDBRANCH   4  11
TORSDOF 2
