REMARK  1 active torsions:
REMARK  status: ('A' for Active; 'I' for Inactive)
REMARK       I    between atoms: C_1  and  N_2 
REMARK    1  A    between atoms: C_1  and  C_3 
ROOT
HETATM    1  C   UNL     1       0.941   0.339  -0.047  1.00  0.00     0.248 C 
HETATM    2  N   UNL     1       2.201   0.364  -0.595  1.00  0.00    -0.350 N 
HETATM    3  O   UNL     1       0.408   1.400   0.296  1.00  0.00    -0.270 OA
HETATM    4  C   UNL     1       2.907   1.618  -0.774  1.00  0.00     0.126 C 
HETATM    5  C   UNL     1       2.984  -0.755  -1.082  1.00  0.00     0.126 C 
HETATM    6  C   UNL     1       4.262  -0.126  -1.637  1.00  0.00     0.021 C 
HETATM    7  C   UNL     1       3.907   1.331  -1.874  1.00  0.00     0.021 C 
ENDROOT
BRANCH   1   8
HETATM    8  C   UNL     1       0.152  -1.012   0.029  1.00  0.00     0.213 C 
HETATM    9  O   UNL     1       0.759  -2.228   0.439  1.00  0.00    -0.376 OA
HETATM   10  C   UNL     1       0.939  -2.445   1.838  1.00  0.00     0.168 C 
HETATM   11  C   UNL     1      -0.183  -1.968   2.759  1.00  0.00     0.026 C 
HETATM   12  C   UNL     1      -0.787  -0.658   2.301  1.00  0.00     0.005 C 
HETATM   13  C   UNL     1      -1.141  -0.789   0.826  1.00  0.00     0.042 C 
ENDBRANCH   1   8
TORSDOF 1
