REMARK  1 active torsions:
REMARK  status: ('A' for Active; 'I' for Inactive)
REMARK    1  A    between atoms: C_2  and  C_4 
REMARK       I    between atoms: C_4  and  N_9 
ROOT
HETATM    1  C   UNL     1      -0.309  -0.638   0.035  1.00  0.00     0.092 A 
HETATM    2  C   UNL     1      -1.437  -1.448   0.003  1.00  0.00     0.065 A 
HETATM    3  O   UNL     1       0.985  -1.090   0.074  1.00  0.00    -0.339 OA
HETATM    4  C   UNL     1      -0.405   0.746   0.040  1.00  0.00    -0.021 A 
HETATM    5  C   UNL     1       1.827   0.091  -0.012  1.00  0.00     0.064 C 
HETATM    6  C   UNL     1       0.946   1.353   0.112  1.00  0.00     0.079 C 
HETATM    7  C   UNL     1      -2.689  -0.815  -0.029  1.00  0.00     0.020 A 
HETATM    8  C   UNL     1      -1.637   1.378   0.012  1.00  0.00     0.010 A 
HETATM    9  C   UNL     1      -2.787   0.587  -0.026  1.00  0.00     0.002 A 
HETATM   10  C   UNL     1       2.546   0.032  -1.364  1.00  0.00     0.046 C 
HETATM   11  C   UNL     1       2.836  -0.010   1.133  1.00  0.00     0.046 C 
ENDROOT
BRANCH   2  12
HETATM   12  C   UNL     1      -1.381  -2.934   0.002  1.00  0.00     0.252 C 
HETATM   13  O   UNL     1      -2.401  -3.615  -0.029  1.00  0.00    -0.268 OA
HETATM   14  N   UNL     1      -0.153  -3.526   0.036  1.00  0.00    -0.366 N 
HETATM   15  H   UNL     1       0.660  -2.972   0.060  1.00  0.00     0.159 HD
HETATM   16  H   UNL     1      -0.079  -4.508   0.036  1.00  0.00     0.159 HD
ENDBRANCH   2  12
TORSDOF 1
