REMARK  1 active torsions:
REMARK  status: ('A' for Active; 'I' for Inactive)
REMARK    1  A    between atoms: C_5  and  N_9 
ROOT
HETATM    1  N   UNL     1       1.401   0.158  -0.003  1.00  0.00    -0.350 N 
ATOM      2  HN  UNL     1       2.419   0.228  -0.007  1.00  0.00     0.166 HD
HETATM    3  N   UNL     1      -1.424  -0.069   0.010  1.00  0.00    -0.365 N 
ATOM      4  HN  UNL     1      -2.442  -0.137   0.012  1.00  0.00     0.165 HD
HETATM    5  C   UNL     1       0.610   1.244   0.052  1.00  0.00     0.114 A 
HETATM    6  C   UNL     1      -0.777   1.121   0.077  1.00  0.00     0.136 A 
HETATM    7  C   UNL     1      -0.626  -1.159  -0.059  1.00  0.00     0.020 A 
HETATM    8  C   UNL     1       0.760  -1.036  -0.053  1.00  0.00     0.114 A 
HETATM    9  C   UNL     1      -1.276  -2.503  -0.138  1.00  0.00     0.069 C 
ENDROOT
BRANCH   5  10
HETATM   10  N   UNL     1       1.245   2.482   0.123  1.00  0.00    -0.384 N 
HETATM   11  H   UNL     1       2.228   2.532   0.103  1.00  0.00     0.157 HD
HETATM   12  H   UNL     1       0.711   3.306   0.194  1.00  0.00     0.157 HD
ENDBRANCH   5  10
TORSDOF 1
