REMARK  2 active torsions:
REMARK  status: ('A' for Active; 'I' for Inactive)
REMARK    1  A    between atoms: S_1  and  C_2 
REMARK    2  A    between atoms: S_1  and  N_3 
ROOT
HETATM    1  S   UNL     1       1.143  -0.097  -0.006  1.00  0.00     0.250 S 
HETATM    2  O   UNL     1       0.523  -1.406  -0.019  1.00  0.00    -0.205 OA
HETATM    3  O   UNL     1       1.131   0.739  -1.187  1.00  0.00    -0.205 OA
ENDROOT
BRANCH   1   4
HETATM    4  C   UNL     1       2.871  -0.397   0.300  1.00  0.00     0.115 A 
HETATM    5  S   UNL     1       3.259  -1.274   1.717  1.00  0.00    -0.089 SA
HETATM    6  C   UNL     1       4.934  -1.232   1.362  1.00  0.00     0.051 A 
HETATM    7  C   UNL     1       5.198  -0.553   0.193  1.00  0.00     0.009 A 
HETATM    8  C   UNL     1       4.006  -0.070  -0.420  1.00  0.00     0.033 A 
ENDBRANCH   1   4
BRANCH   1   9
HETATM    9  N   UNL     1       0.492   0.790   1.299  1.00  0.00    -0.202 NA
HETATM   10  C   UNL     1       0.953   2.205   1.433  1.00  0.00     0.134 C 
HETATM   11  C   UNL     1       0.225   3.127   0.440  1.00  0.00     0.183 C 
HETATM   12  O   UNL     1      -1.202   3.030   0.575  1.00  0.00    -0.389 OA
HETATM   13  C   UNL     1      -1.656   1.679   0.392  1.00  0.00     0.183 C 
HETATM   14  C   UNL     1      -1.002   0.746   1.416  1.00  0.00     0.134 C 
ENDBRANCH   1   9
TORSDOF 2
