REMARK  1 active torsions:
REMARK  status: ('A' for Active; 'I' for Inactive)
REMARK    1  A    between atoms: C_1  and  C_7 
ROOT
HETATM    1  C   UNL     1      -0.000  -1.616  -0.163  1.00  0.00     0.158 C 
HETATM    2  O   UNL     1      -0.001   1.307  -0.095  1.00  0.00    -0.310 OA
HETATM    3  C   UNL     1      -1.259  -0.785  -0.053  1.00  0.00    -0.005 A 
HETATM    4  C   UNL     1       1.258  -0.785  -0.053  1.00  0.00    -0.005 A 
HETATM    5  C   UNL     1      -1.182   0.608  -0.044  1.00  0.00     0.083 A 
HETATM    6  C   UNL     1       1.180   0.609  -0.047  1.00  0.00     0.083 A 
HETATM    7  C   UNL     1      -2.523  -1.398   0.013  1.00  0.00     0.011 A 
HETATM    8  C   UNL     1       2.522  -1.395   0.020  1.00  0.00     0.011 A 
HETATM    9  C   UNL     1       2.342   1.383   0.008  1.00  0.00     0.038 A 
HETATM   10  C   UNL     1      -2.344   1.381   0.014  1.00  0.00     0.038 A 
HETATM   11  C   UNL     1       3.682  -0.620   0.074  1.00  0.00     0.001 A 
HETATM   12  C   UNL     1      -3.683  -0.624   0.066  1.00  0.00     0.001 A 
HETATM   13  C   UNL     1       3.592   0.770   0.063  1.00  0.00     0.003 A 
HETATM   14  C   UNL     1      -3.594   0.766   0.063  1.00  0.00     0.003 A 
ENDROOT
BRANCH   1  15
HETATM   15  C   UNL     1       0.001  -2.409  -1.466  1.00  0.00     0.186 C 
HETATM   16  O   UNL     1      -0.050  -1.980  -2.607  1.00  0.00    -0.647 OA
HETATM   17  O   UNL     1       0.073  -3.746  -1.264  1.00  0.00    -0.647 OA
ENDBRANCH   1  15
TORSDOF 1
