REMARK  1 active torsions:
REMARK  status: ('A' for Active; 'I' for Inactive)
REMARK    1  A    between atoms: C_1  and  C_3 
ROOT
HETATM    1  C   UNL     1       0.372   1.502   0.143  1.00  0.00     0.052 C 
HETATM    2  C   UNL     1      -1.096   1.036  -0.117  1.00  0.00     0.027 C 
HETATM    3  C   UNL     1      -1.436  -0.157   0.765  1.00  0.00    -0.024 C 
HETATM    4  C   UNL     1      -0.731  -1.206   0.313  1.00  0.00    -0.026 C 
HETATM    5  C   UNL     1       1.178   0.227  -0.286  1.00  0.00     0.029 C 
HETATM    6  C   UNL     1       0.084  -0.712  -0.855  1.00  0.00     0.010 C 
HETATM    7  C   UNL     1      -0.937   0.269  -1.437  1.00  0.00     0.018 C 
HETATM    8  C   UNL     1       0.754   2.710  -0.729  1.00  0.00     0.027 C 
ENDROOT
BRANCH   1   9
HETATM    9  C   UNL     1       0.574   1.925   1.584  1.00  0.00     0.182 C 
HETATM   10  O   UNL     1      -0.257   2.448   2.309  1.00  0.00    -0.647 OA
HETATM   11  O   UNL     1       1.852   1.815   1.999  1.00  0.00    -0.647 OA
ENDBRANCH   1   9
TORSDOF 1
