REMARK  1 active torsions:
REMARK  status: ('A' for Active; 'I' for Inactive)
REMARK    1  A    between atoms: C_8  and  N_9 
ROOT
HETATM    1  C   UNL     1      -0.425   0.640   0.009  1.00  0.00     0.107 A 
HETATM    2  C   UNL     1       0.872   1.112  -0.042  1.00  0.00     0.068 A 
HETATM    3  C   UNL     1      -0.706  -0.704   0.038  1.00  0.00     0.105 A 
HETATM    4  O   UNL     1      -1.550   1.405   0.022  1.00  0.00    -0.323 OA
HETATM    5  O   UNL     1      -2.041  -0.955   0.078  1.00  0.00    -0.323 OA
HETATM    6  C   UNL     1      -2.567   0.387   0.127  1.00  0.00     0.352 A 
HETATM    7  C   UNL     1       0.293  -1.650   0.009  1.00  0.00     0.042 A 
HETATM    8  C   UNL     1       1.917   0.182  -0.007  1.00  0.00     0.028 A 
HETATM    9  C   UNL     1       1.616  -1.195  -0.032  1.00  0.00     0.032 A 
ENDROOT
BRANCH   8  10
HETATM   10  N   UNL     1       3.242   0.608  -0.175  1.00  0.00    -0.399 N 
HETATM   11  H   UNL     1       3.456   1.569  -0.158  1.00  0.00     0.156 HD
HETATM   12  H   UNL     1       3.958  -0.054  -0.311  1.00  0.00     0.156 HD
ENDBRANCH   8  10
TORSDOF 1
