REMARK  0 active torsions:
REMARK  status: ('A' for Active; 'I' for Inactive)
ROOT
HETATM    1  O   UNL     1       1.408   1.003   0.010  1.00  0.00    -0.275 OA
HETATM    2  C   UNL     1       2.428   0.063   0.005  1.00  0.00     0.288 A 
HETATM    3  C   UNL     1       0.056   0.609   0.010  1.00  0.00     0.089 A 
HETATM    4  C   UNL     1      -0.301  -0.737   0.005  1.00  0.00    -0.002 A 
HETATM    5  C   UNL     1       0.749  -1.743   0.010  1.00  0.00     0.020 A 
HETATM    6  C   UNL     1       2.030  -1.355   0.013  1.00  0.00     0.083 A 
HETATM    7  C   UNL     1      -1.658  -1.075  -0.001  1.00  0.00     0.021 A 
HETATM    8  O   UNL     1       3.612   0.379  -0.002  1.00  0.00    -0.260 OA
HETATM    9  C   UNL     1      -0.900   1.619   0.017  1.00  0.00     0.039 A 
HETATM   10  C   UNL     1      -2.641  -0.071   0.003  1.00  0.00    -0.061 A 
HETATM   11  C   UNL     1      -2.251   1.276   0.014  1.00  0.00     0.009 A 
HETATM   12  C   UNL     1      -4.096  -0.444  -0.005  1.00  0.00     0.048 C 
ENDROOT
TORSDOF 0
