REMARK  3 active torsions:
REMARK  status: ('A' for Active; 'I' for Inactive)
REMARK    1  A    between atoms: C_1  and  C_3 
REMARK    2  A    between atoms: C_2  and  N_8 
REMARK    3  A    between atoms: C_3  and  O_9 
ROOT
HETATM    1  C   UNL     1      -0.253   1.123   0.003  1.00  0.00     0.106 A 
HETATM    2  C   UNL     1      -1.179   0.093   0.002  1.00  0.00     0.049 A 
HETATM    3  S   UNL     1       1.350   0.491   0.003  1.00  0.00    -0.094 SA
HETATM    4  C   UNL     1      -0.578  -1.195   0.001  1.00  0.00     0.038 A 
HETATM    5  C   UNL     1       0.796  -1.124   0.002  1.00  0.00     0.053 A 
ENDROOT
BRANCH   1   6
HETATM    6  C   UNL     1      -0.424   2.566   0.005  1.00  0.00     0.302 C 
HETATM    7  O   UNL     1       0.469   3.407   0.007  1.00  0.00    -0.259 OA
BRANCH   6   8
HETATM    8  O   UNL     1      -1.756   2.889   0.003  1.00  0.00    -0.322 OA
HETATM    9  C   UNL     1      -2.024   4.291   0.004  1.00  0.00     0.213 C 
ENDBRANCH   6   8
ENDBRANCH   1   6
BRANCH   2  10
HETATM   10  N   UNL     1      -2.516   0.252   0.001  1.00  0.00    -0.398 N 
HETATM   11  H   UNL     1      -2.904   1.157   0.001  1.00  0.00     0.156 HD
HETATM   12  H   UNL     1      -3.106  -0.536  -0.000  1.00  0.00     0.156 HD
ENDBRANCH   2  10
TORSDOF 3
