REMARK  0 active torsions:
REMARK  status: ('A' for Active; 'I' for Inactive)
ROOT
HETATM    1  C   UNL     1       1.021  -0.008  -0.011  1.00  0.00     0.131 C 
HETATM    2  O   UNL     1       2.211  -0.014   0.304  1.00  0.00    -0.298 OA
HETATM    3  O   UNL     1      -1.771   0.010  -0.140  1.00  0.00    -0.390 OA
HETATM    4  C   UNL     1       0.284   1.277  -0.288  1.00  0.00     0.104 C 
HETATM    5  C   UNL     1       0.271  -1.285  -0.287  1.00  0.00     0.104 C 
HETATM    6  C   UNL     1      -1.118  -1.178   0.312  1.00  0.00     0.175 C 
HETATM    7  C   UNL     1      -1.098   1.183   0.326  1.00  0.00     0.175 C 
ENDROOT
TORSDOF 0
