REMARK  2 active torsions:
REMARK  status: ('A' for Active; 'I' for Inactive)
REMARK    1  A    between atoms: N_1  and  C_10 
REMARK    2  A    between atoms: C_9  and  C_10 
ROOT
HETATM    1  N   UNL     1       4.816  -3.306   0.860  1.00  0.00    -0.197 NA
HETATM    2  C   UNL     1       3.820  -2.746   1.060  1.00  0.00     0.060 C 
HETATM    3  C   UNL     1       2.559  -2.028   1.290  1.00  0.00     0.144 C 
ENDROOT
BRANCH   3   4
HETATM    4  C   UNL     1       2.114  -1.338   0.007  1.00  0.00     0.144 C 
BRANCH   4   5
HETATM    5  N   UNL     1       0.844  -0.655   0.151  1.00  0.00    -0.345 N 
HETATM    6  C   UNL     1       0.625   0.672   0.444  1.00  0.00     0.079 A 
HETATM    7  N   UNL     1      -0.665   0.942   0.406  1.00  0.00    -0.355 N 
HETATM    8  C   UNL     1       1.683   1.672   0.742  1.00  0.00     0.089 C 
HETATM    9  C   UNL     1      -1.293  -0.229   0.087  1.00  0.00     0.106 A 
ATOM     10  HN  UNL     1      -1.106   1.845   0.580  1.00  0.00     0.166 HD
HETATM   11  C   UNL     1      -0.377  -1.242  -0.059  1.00  0.00     0.109 A 
ENDBRANCH   4   5
ENDBRANCH   3   4
TORSDOF 2
