REMARK  1 active torsions:
REMARK  status: ('A' for Active; 'I' for Inactive)
REMARK    1  A    between atoms: C_1  and  C_2 
ROOT
HETATM    1  C   UNL     1      -1.247  -1.221  -0.009  1.00  0.00     0.012 A 
HETATM    2  C   UNL     1       0.150  -1.211  -0.007  1.00  0.00     0.057 A 
HETATM    3  C   UNL     1       0.825   0.006  -0.004  1.00  0.00     0.117 A 
HETATM    4  F   UNL     1       2.164   0.011  -0.003  1.00  0.00    -0.206 F 
HETATM    5  C   UNL     1      -1.946  -0.003  -0.006  1.00  0.00     0.015 A 
HETATM    6  C   UNL     1      -1.255   1.212  -0.002  1.00  0.00     0.004 A 
HETATM    7  C   UNL     1       0.138   1.215  -0.002  1.00  0.00     0.042 A 
ENDROOT
BRANCH   1   8
HETATM    8  C   UNL     1      -2.030  -2.493  -0.016  1.00  0.00     0.155 C 
HETATM    9  O   UNL     1      -3.259  -2.454  -0.016  1.00  0.00    -0.293 OA
HETATM   10  C   UNL     1      -1.290  -3.804  -0.025  1.00  0.00     0.096 C 
ENDBRANCH   1   8
TORSDOF 1
