REMARK  0 active torsions:
REMARK  status: ('A' for Active; 'I' for Inactive)
ROOT
HETATM    1  O   UNL     1       1.530  -1.087   0.069  1.00  0.00    -0.350 OA
HETATM    2  C   UNL     1       0.247  -0.606   0.021  1.00  0.00     0.075 A 
HETATM    3  C   UNL     1       0.173   0.779   0.010  1.00  0.00    -0.023 A 
HETATM    4  C   UNL     1       2.335   0.077  -0.232  1.00  0.00     0.180 C 
HETATM    5  C   UNL     1       1.539   1.338   0.108  1.00  0.00     0.068 C 
HETATM    6  C   UNL     1      -0.881  -1.398   0.000  1.00  0.00     0.037 A 
HETATM    7  C   UNL     1      -1.050   1.425  -0.021  1.00  0.00     0.010 A 
HETATM    8  C   UNL     1      -2.123  -0.762  -0.049  1.00  0.00     0.003 A 
HETATM    9  C   UNL     1      -2.207   0.641  -0.060  1.00  0.00     0.001 A 
ENDROOT
TORSDOF 0
