REMARK  2 active torsions:
REMARK  status: ('A' for Active; 'I' for Inactive)
REMARK    1  A    between atoms: C_2  and  C_7 
REMARK    2  A    between atoms: C_5  and  C_7 
ROOT
HETATM    1  C   UNL     1      -0.123   0.696  -0.018  1.00  0.00     0.056 A 
HETATM    2  C   UNL     1      -0.100  -0.701   0.043  1.00  0.00     0.055 A 
HETATM    3  C   UNL     1      -1.348   1.373  -0.061  1.00  0.00     0.033 A 
HETATM    4  C   UNL     1      -2.558   0.662  -0.039  1.00  0.00    -0.046 A 
HETATM    5  C   UNL     1      -1.302  -1.413   0.068  1.00  0.00     0.026 A 
HETATM    6 CL   UNL     1       1.320   1.646  -0.047  1.00  0.00    -0.083 Cl
HETATM    7  C   UNL     1      -2.524  -0.737   0.026  1.00  0.00     0.009 A 
HETATM    8 CL   UNL     1       1.372  -1.604   0.085  1.00  0.00    -0.083 Cl
ENDROOT
BRANCH   4   9
HETATM    9  C   UNL     1      -3.878   1.392  -0.139  1.00  0.00     0.151 C 
BRANCH   9  10
HETATM   10  C   UNL     1      -4.345   1.595  -1.560  1.00  0.00     0.176 C 
HETATM   11  O   UNL     1      -3.795   1.244  -2.590  1.00  0.00    -0.648 OA
HETATM   12  O   UNL     1      -5.523   2.252  -1.615  1.00  0.00    -0.648 OA
ENDBRANCH   9  10
ENDBRANCH   4   9
TORSDOF 2
