REMARK  2 active torsions:
REMARK  status: ('A' for Active; 'I' for Inactive)
REMARK    1  A    between atoms: C_2  and  C_9 
REMARK    2  A    between atoms: N_4  and  C_9 
ROOT
HETATM    1  C   UNL     1       0.828  -0.009  -0.009  1.00  0.00     0.116 A 
HETATM    2  C   UNL     1      -1.965   0.015  -0.001  1.00  0.00    -0.033 A 
HETATM    3  F   UNL     1       2.168  -0.018  -0.013  1.00  0.00    -0.206 F 
HETATM    4  C   UNL     1       0.135  -1.212  -0.003  1.00  0.00     0.043 A 
HETATM    5  C   UNL     1       0.153   1.206  -0.009  1.00  0.00     0.043 A 
HETATM    6  C   UNL     1      -1.260  -1.201   0.002  1.00  0.00     0.012 A 
HETATM    7  C   UNL     1      -1.243   1.220  -0.005  1.00  0.00     0.012 A 
ENDROOT
BRANCH   2   8
HETATM    8  C   UNL     1      -3.473   0.024   0.016  1.00  0.00     0.268 C 
BRANCH   8   9
HETATM    9  N   UNL     1      -4.025  -0.649  -1.154  1.00  0.00    -0.075 N 
HETATM   10  H   UNL     1      -5.044  -0.625  -1.111  1.00  0.00     0.274 HD
HETATM   11  H   UNL     1      -3.708  -1.618  -1.171  1.00  0.00     0.274 HD
HETATM   12  H   UNL     1      -3.709  -0.173  -2.000  1.00  0.00     0.274 HD
ENDBRANCH   8   9
ENDBRANCH   2   8
TORSDOF 2
