REMARK  1 active torsions:
REMARK  status: ('A' for Active; 'I' for Inactive)
REMARK    1  A    between atoms: C_1  and  C_4 
ROOT
HETATM    1  C   UNL     1      -1.437   0.684  -0.013  1.00  0.00     0.087 A 
HETATM    2  N   UNL     1      -0.123   1.146  -0.015  1.00  0.00    -0.343 N 
ATOM      3  HN  UNL     1       0.183   2.119  -0.020  1.00  0.00     0.167 HD
HETATM    4  C   UNL     1      -1.428  -0.698  -0.006  1.00  0.00     0.122 A 
HETATM    5  C   UNL     1       0.646   0.077  -0.009  1.00  0.00     0.077 A 
HETATM    6  N   UNL     1      -0.112  -1.065  -0.003  1.00  0.00    -0.354 N 
HETATM    7  C   UNL     1       2.127   0.036  -0.009  1.00  0.00     0.089 C 
HETATM    8  H   UNL     1       0.231  -1.988   0.003  1.00  0.00     0.166 HD
ENDROOT
BRANCH   1   9
HETATM    9  C   UNL     1      -2.563   1.607  -0.019  1.00  0.00     0.122 C 
HETATM   10  S   UNL     1      -4.137   1.081  -0.019  1.00  0.00    -0.059 SA
HETATM   11  N   UNL     1      -2.242   2.933  -0.026  1.00  0.00    -0.388 N 
HETATM   12  H   UNL     1      -1.297   3.211  -0.026  1.00  0.00     0.157 HD
HETATM   13  H   UNL     1      -2.955   3.612  -0.030  1.00  0.00     0.157 HD
ENDBRANCH   1   9
TORSDOF 1
