REMARK  2 active torsions:
REMARK  status: ('A' for Active; 'I' for Inactive)
REMARK    1  A    between atoms: C_5  and  C_7 
REMARK    2  A    between atoms: C_7  and  C_8 
ROOT
HETATM    1  C   UNL     1       0.631  -1.250   2.115  1.00  0.00     0.361 C 
HETATM    2  N   UNL     1       1.783  -1.124   1.387  1.00  0.00    -0.330 N 
HETATM    3  O   UNL     1      -0.451  -1.226   1.284  1.00  0.00    -0.302 OA
HETATM    4  O   UNL     1       0.579  -1.334   3.328  1.00  0.00    -0.239 OA
HETATM    5  C   UNL     1       1.469  -0.728   0.049  1.00  0.00     0.115 C 
HETATM    6  C   UNL     1       0.031  -1.197  -0.069  1.00  0.00     0.206 C 
HETATM    7  H   UNL     1       2.691  -1.283   1.733  1.00  0.00     0.165 HD
ENDROOT
BRANCH   5   8
HETATM    8  C   UNL     1       2.430  -1.317  -0.984  1.00  0.00     0.066 C 
BRANCH   8   9
HETATM    9  C   UNL     1       2.104  -0.923  -2.403  1.00  0.00    -0.056 A 
HETATM   10  C   UNL     1       2.591   0.274  -2.943  1.00  0.00     0.007 A 
HETATM   11  C   UNL     1       2.267   0.642  -4.251  1.00  0.00     0.001 A 
HETATM   12  C   UNL     1       1.451  -0.179  -5.027  1.00  0.00     0.000 A 
HETATM   13  C   UNL     1       0.968  -1.375  -4.502  1.00  0.00     0.001 A 
HETATM   14  C   UNL     1       1.295  -1.748  -3.197  1.00  0.00     0.007 A 
ENDBRANCH   8   9
ENDBRANCH   5   8
TORSDOF 2
