REMARK  1 active torsions:
REMARK  status: ('A' for Active; 'I' for Inactive)
REMARK    1  A    between atoms: C_3  and  C_7 
ROOT
HETATM    1  C   UNL     1       1.464  -2.198   0.018  1.00  0.00    -0.001 A 
HETATM    2  C   UNL     1       1.402  -3.154  -1.007  1.00  0.00     0.015 A 
HETATM    3  C   UNL     1       2.387  -2.399   1.054  1.00  0.00     0.015 A 
HETATM    4  C   UNL     1       3.208  -3.531   1.076  1.00  0.00     0.007 A 
HETATM    5  C   UNL     1       2.223  -4.287  -0.986  1.00  0.00     0.007 A 
HETATM    6  C   UNL     1       3.127  -4.488   0.060  1.00  0.00    -0.062 A 
HETATM    7  C   UNL     1       3.986  -5.717   0.112  1.00  0.00     0.048 C 
ENDROOT
BRANCH   1   8
HETATM    8  C   UNL     1       0.575  -1.043   0.004  1.00  0.00     0.102 A 
HETATM    9  C   UNL     1      -0.456  -0.603  -0.801  1.00  0.00     0.127 A 
HETATM   10  N   UNL     1      -0.968   0.578  -0.324  1.00  0.00    -0.354 N 
HETATM   11  C   UNL     1      -0.238   0.812   0.742  1.00  0.00     0.233 A 
ATOM     12  HN  UNL     1      -1.731   1.138  -0.705  1.00  0.00     0.166 HD
HETATM   13  O   UNL     1       0.717  -0.120   1.009  1.00  0.00    -0.304 OA
ENDBRANCH   1   8
TORSDOF 1
