REMARK  2 active torsions:
REMARK  status: ('A' for Active; 'I' for Inactive)
REMARK    1  A    between atoms: C_1  and  C_4 
REMARK    2  A    between atoms: C_1  and  C_5 
ROOT
HETATM    1  N   UNL     1       3.573   0.385  -2.938  1.00  0.00    -0.075 N 
HETATM    2  C   UNL     1       2.541   0.209  -0.194  1.00  0.00     0.064 C 
HETATM    3  C   UNL     1       2.869   1.526  -2.330  1.00  0.00     0.233 C 
HETATM    4  C   UNL     1       3.013  -0.888  -2.464  1.00  0.00     0.233 C 
HETATM    5  C   UNL     1       3.081   1.517  -0.805  1.00  0.00     0.040 C 
HETATM    6  C   UNL     1       3.165  -0.993  -0.941  1.00  0.00     0.040 C 
HETATM    7  H   UNL     1       4.561   0.430  -2.687  1.00  0.00     0.277 HD
HETATM    8  H   UNL     1       3.461   0.434  -3.950  1.00  0.00     0.277 HD
ENDROOT
BRANCH   2   9
HETATM    9  C   UNL     1       1.012   0.234  -0.138  1.00  0.00     0.163 C 
HETATM   10  O   UNL     1       0.371  -0.384  -0.978  1.00  0.00    -0.292 OA
BRANCH   9  11
HETATM   11  C   UNL     1       0.274   0.937   0.967  1.00  0.00     0.010 A 
HETATM   12  C   UNL     1       0.942   1.500   2.080  1.00  0.00     0.015 A 
HETATM   13  C   UNL     1       0.227   2.105   3.118  1.00  0.00     0.001 A 
HETATM   14  C   UNL     1      -1.164   2.175   3.066  1.00  0.00     0.000 A 
HETATM   15  C   UNL     1      -1.844   1.641   1.973  1.00  0.00     0.001 A 
HETATM   16  C   UNL     1      -1.136   1.024   0.932  1.00  0.00     0.015 A 
ENDBRANCH   9  11
ENDBRANCH   2   9
TORSDOF 2
