REMARK  3 active torsions:
REMARK  status: ('A' for Active; 'I' for Inactive)
REMARK    1  A    between atoms: C_1  and  N_2 
REMARK    2  A    between atoms: C_1  and  N_6 
REMARK    3  A    between atoms: N_2  and  C_7 
ROOT
HETATM    1  N   UNL     1      -4.060   0.340   1.466  1.00  0.00    -0.375 N 
ATOM      2  HN  UNL     1      -5.071   0.341   1.599  1.00  0.00     0.164 HD
HETATM    3  C   UNL     1      -1.281   0.355   1.056  1.00  0.00     0.036 A 
HETATM    4  C   UNL     1      -2.066  -0.679   0.560  1.00  0.00     0.046 A 
HETATM    5  C   UNL     1      -1.901   1.358   1.805  1.00  0.00     0.046 A 
HETATM    6  C   UNL     1      -3.278   1.315   1.967  1.00  0.00     0.090 A 
HETATM    7  C   UNL     1      -3.435  -0.639   0.779  1.00  0.00     0.090 A 
ENDROOT
BRANCH   3   8
HETATM    8  N   UNL     1       0.119   0.456   0.883  1.00  0.00    -0.333 N 
HETATM    9  H   UNL     1       0.577   1.004   1.561  1.00  0.00     0.168 HD
BRANCH   8  10
HETATM   10  C   UNL     1       0.948  -0.083  -0.073  1.00  0.00     0.169 C 
HETATM   11  S   UNL     1       0.601  -0.907  -1.474  1.00  0.00    -0.041 SA
BRANCH  10  12
HETATM   12  N   UNL     1       2.262   0.198   0.184  1.00  0.00    -0.376 N 
HETATM   13  H   UNL     1       2.510   0.685   1.003  1.00  0.00     0.158 HD
HETATM   14  H   UNL     1       2.959  -0.085  -0.450  1.00  0.00     0.158 HD
ENDBRANCH  10  12
ENDBRANCH   8  10
ENDBRANCH   3   8
TORSDOF 3
