REMARK  3 active torsions:
REMARK  status: ('A' for Active; 'I' for Inactive)
REMARK    1  A    between atoms: C_1  and  C_3 
REMARK    2  A    between atoms: C_2  and  N_7 
REMARK    3  A    between atoms: N_7  and  N_11 
ROOT
HETATM    1  C   UNL     1      -0.303   1.135   3.356  1.00  0.00     0.117 A 
HETATM    2  C   UNL     1       0.538  -0.010   1.387  1.00  0.00     0.052 A 
HETATM    3  C   UNL     1       0.203   1.176   2.058  1.00  0.00     0.066 A 
HETATM    4  N   UNL     1      -0.480  -0.059   3.983  1.00  0.00    -0.351 N 
ATOM      5  HN  UNL     1      -0.858  -0.096   4.929  1.00  0.00     0.166 HD
HETATM    6  C   UNL     1      -0.147  -1.194   3.333  1.00  0.00     0.090 A 
HETATM    7  C   UNL     1       0.358  -1.225   2.048  1.00  0.00     0.033 A 
ENDROOT
BRANCH   1   8
HETATM    8  N   UNL     1      -0.675   2.298   4.056  1.00  0.00    -0.305 N 
HETATM    9  C   UNL     1      -0.276   3.619   3.590  1.00  0.00     0.173 C 
BRANCH   8  10
HETATM   10  N   UNL     1      -1.079   2.149   5.409  1.00  0.00    -0.246 NA
HETATM   11  H   UNL     1      -1.326   1.175   5.585  1.00  0.00     0.143 HD
HETATM   12  H   UNL     1      -1.888   2.743   5.589  1.00  0.00     0.143 HD
ENDBRANCH   8  10
ENDBRANCH   1   8
BRANCH   2  13
HETATM   13  C   UNL     1       1.066   0.017  -0.020  1.00  0.00     0.417 C 
HETATM   14  F   UNL     1       1.213   1.273  -0.524  1.00  0.00    -0.166 F 
HETATM   15  F   UNL     1       0.255  -0.643  -0.892  1.00  0.00    -0.166 F 
HETATM   16  F   UNL     1       2.290  -0.573  -0.128  1.00  0.00    -0.166 F 
ENDBRANCH   2  13
TORSDOF 3
