REMARK  0 active torsions:
REMARK  status: ('A' for Active; 'I' for Inactive)
REMARK       I    between atoms: N_1  and  C_2 
ROOT
HETATM    1  N   UNL     1      -1.899  -0.135  -0.569  1.00  0.00    -0.352 N 
HETATM    2  C   UNL     1      -3.276  -0.151  -0.742  1.00  0.00     0.215 C 
HETATM    3  N   UNL     1       2.551   0.077  -0.732  1.00  0.00    -0.197 NA
HETATM    4  C   UNL     1       1.671   0.100   0.024  1.00  0.00     0.064 C 
HETATM    5  C   UNL     1      -1.194   1.144  -0.582  1.00  0.00     0.127 C 
HETATM    6  C   UNL     1      -1.054  -1.314  -0.403  1.00  0.00     0.127 C 
HETATM    7  O   UNL     1      -3.938   0.875  -0.902  1.00  0.00    -0.274 OA
HETATM    8  C   UNL     1       0.537   0.114   0.968  1.00  0.00     0.096 C 
HETATM    9  C   UNL     1      -0.250  -1.203   0.892  1.00  0.00     0.039 C 
HETATM   10  C   UNL     1      -0.383   1.314   0.703  1.00  0.00     0.039 C 
HETATM   11  C   UNL     1      -3.964  -1.492  -0.709  1.00  0.00     0.117 C 
ENDROOT
TORSDOF 0
