REMARK  2 active torsions:
REMARK  status: ('A' for Active; 'I' for Inactive)
REMARK    1  A    between atoms: C_1  and  C_5 
REMARK    2  A    between atoms: C_5  and  O_8 
ROOT
HETATM    1  C   UNL     1      -0.756  -1.294  -0.005  1.00  0.00     0.063 A 
HETATM    2  C   UNL     1      -1.162   0.038  -0.006  1.00  0.00     0.021 A 
HETATM    3  N   UNL     1      -0.032   0.825  -0.007  1.00  0.00    -0.363 N 
HETATM    4  C   UNL     1       0.674  -1.269  -0.006  1.00  0.00     0.044 A 
HETATM    5  C   UNL     1       1.092   0.043  -0.009  1.00  0.00     0.006 A 
HETATM    6  C   UNL     1      -2.504   0.682  -0.006  1.00  0.00     0.069 C 
HETATM    7  C   UNL     1       2.454   0.628  -0.015  1.00  0.00     0.068 C 
HETATM    8  H   UNL     1      -0.033   1.809  -0.007  1.00  0.00     0.165 HD
ENDROOT
BRANCH   1   9
HETATM    9  C   UNL     1      -1.605  -2.487  -0.005  1.00  0.00     0.294 C 
HETATM   10  O   UNL     1      -2.830  -2.465  -0.005  1.00  0.00    -0.259 OA
BRANCH   9  11
HETATM   11  O   UNL     1      -0.862  -3.636  -0.006  1.00  0.00    -0.322 OA
HETATM   12  C   UNL     1      -1.629  -4.839  -0.010  1.00  0.00     0.213 C 
ENDBRANCH   9  11
ENDBRANCH   1   9
TORSDOF 2
