REMARK  2 active torsions:
REMARK  status: ('A' for Active; 'I' for Inactive)
REMARK    1  A    between atoms: C_1  and  C_7 
REMARK    2  A    between atoms: N_6  and  C_7 
ROOT
HETATM    1  C   UNL     1       0.222  -1.068  -0.020  1.00  0.00     0.013 A 
HETATM    2  C   UNL     1       1.186  -0.067   0.004  1.00  0.00    -0.047 A 
HETATM    3  S   UNL     1      -1.369  -0.418  -0.043  1.00  0.00    -0.104 SA
HETATM    4  C   UNL     1      -0.792   1.184  -0.020  1.00  0.00     0.051 A 
HETATM    5  C   UNL     1       0.581   1.234   0.003  1.00  0.00     0.015 A 
HETATM    6  C   UNL     1       2.668  -0.269   0.022  1.00  0.00     0.049 C 
ENDROOT
BRANCH   1   7
HETATM    7  C   UNL     1       0.393  -2.561  -0.014  1.00  0.00     0.276 C 
BRANCH   7   8
HETATM    8  N   UNL     1       1.128  -3.009  -1.193  1.00  0.00    -0.075 N 
HETATM    9  H   UNL     1       1.230  -4.023  -1.165  1.00  0.00     0.274 HD
HETATM   10  H   UNL     1       2.051  -2.574  -1.204  1.00  0.00     0.274 HD
HETATM   11  H   UNL     1       0.616  -2.742  -2.034  1.00  0.00     0.274 HD
ENDBRANCH   7   8
ENDBRANCH   1   7
TORSDOF 2
