REMARK  3 active torsions:
REMARK  status: ('A' for Active; 'I' for Inactive)
REMARK    1  A    between atoms: C_1  and  C_5 
REMARK    2  A    between atoms: C_5  and  O_9 
REMARK    3  A    between atoms: O_9  and  C_11 
ROOT
HETATM    1  C   UNL     1       1.171  -1.290   0.028  1.00  0.00     0.115 A 
HETATM    2  N   UNL     1      -0.219  -1.441  -0.006  1.00  0.00    -0.349 N 
ATOM      3  HN  UNL     1      -0.709  -2.336  -0.022  1.00  0.00     0.166 HD
HETATM    4  C   UNL     1       1.593   0.030   0.023  1.00  0.00     0.087 A 
HETATM    5  C   UNL     1      -0.804  -0.262  -0.014  1.00  0.00     0.047 A 
HETATM    6  S   UNL     1       0.254   1.092  -0.009  1.00  0.00    -0.087 SA
HETATM    7  C   UNL     1      -2.277  -0.043  -0.018  1.00  0.00     0.076 C 
ENDROOT
BRANCH   1   8
HETATM    8  C   UNL     1       2.107  -2.416   0.069  1.00  0.00     0.310 C 
HETATM    9  O   UNL     1       3.326  -2.262   0.105  1.00  0.00    -0.258 OA
BRANCH   8  10
HETATM   10  O   UNL     1       1.490  -3.633   0.058  1.00  0.00    -0.317 OA
BRANCH  10  11
HETATM   11  C   UNL     1       2.362  -4.772   0.096  1.00  0.00     0.175 C 
HETATM   12  C   UNL     1       2.929  -5.074  -1.280  1.00  0.00     0.034 C 
ENDBRANCH  10  11
ENDBRANCH   8  10
ENDBRANCH   1   8
TORSDOF 3
