REMARK  0 active torsions:
REMARK  status: ('A' for Active; 'I' for Inactive)
ROOT
HETATM    1  C   UNL     1      -0.824  -0.399   0.025  1.00  0.00     0.112 A 
HETATM    2  C   UNL     1      -0.165   0.938  -0.005  1.00  0.00     0.266 A 
HETATM    3  N   UNL     1       1.212   0.933  -0.034  1.00  0.00    -0.326 N 
HETATM    4  C   UNL     1      -0.049  -1.499   0.052  1.00  0.00     0.030 A 
HETATM    5  C   UNL     1      -2.239  -0.483   0.011  1.00  0.00     0.105 C 
HETATM    6  N   UNL     1      -3.393  -0.615  -0.008  1.00  0.00    -0.191 NA
HETATM    7  C   UNL     1       1.991  -0.201  -0.017  1.00  0.00     0.008 A 
HETATM    8  C   UNL     1       1.394  -1.402   0.037  1.00  0.00     0.026 A 
HETATM    9  O   UNL     1      -0.798   1.989  -0.007  1.00  0.00    -0.267 OA
HETATM   10  C   UNL     1       3.475  -0.008  -0.065  1.00  0.00     0.068 C 
HETATM   11  H   UNL     1       1.672   1.803  -0.070  1.00  0.00     0.169 HD
ENDROOT
TORSDOF 0
