REMARK  0 active torsions:
REMARK  status: ('A' for Active; 'I' for Inactive)
ROOT
HETATM    1  N   UNL     1       0.939  -0.680   0.008  1.00  0.00    -0.345 N 
ATOM      2  HN  UNL     1       1.760  -1.285   0.013  1.00  0.00     0.167 HD
HETATM    3  C   UNL     1      -0.375  -1.117   0.006  1.00  0.00     0.121 A 
HETATM    4  C   UNL     1       0.966   0.637   0.003  1.00  0.00     0.047 A 
HETATM    5  S   UNL     1      -0.572   1.410  -0.004  1.00  0.00    -0.086 SA
HETATM    6  N   UNL     1      -0.941  -3.649   0.015  1.00  0.00    -0.190 NA
HETATM    7  C   UNL     1      -0.663  -2.521   0.011  1.00  0.00     0.118 C 
HETATM    8  C   UNL     1      -1.334  -0.126  -0.000  1.00  0.00     0.092 A 
HETATM    9  C   UNL     1       2.208   1.458   0.004  1.00  0.00     0.076 C 
ENDROOT
TORSDOF 0
