REMARK  2 active torsions:
REMARK  status: ('A' for Active; 'I' for Inactive)
REMARK    1  A    between atoms: C_1  and  C_5 
REMARK    2  A    between atoms: C_5  and  N_9 
ROOT
HETATM    1  C   UNL     1      -1.368  -0.820   0.014  1.00  0.00     0.094 A 
HETATM    2  N   UNL     1      -1.383   0.528   0.013  1.00  0.00    -0.258 N 
ATOM      3  HN  UNL     1      -2.206   1.130   0.016  1.00  0.00     0.195 HD
HETATM    4  C   UNL     1      -0.025  -1.288   0.008  1.00  0.00     0.069 A 
HETATM    5  O   UNL     1      -0.061   0.933   0.007  1.00  0.00    -0.242 OA
HETATM    6  C   UNL     1       0.749  -0.155   0.004  1.00  0.00     0.074 A 
HETATM    7  C   UNL     1       2.200   0.094   0.000  1.00  0.00     0.079 C 
ENDROOT
BRANCH   1   8
HETATM    8  C   UNL     1      -2.624  -1.564   0.022  1.00  0.00     0.123 C 
HETATM    9  S   UNL     1      -2.638  -3.226   0.025  1.00  0.00    -0.058 SA
BRANCH   8  10
HETATM   10  N   UNL     1      -3.787  -0.845   0.028  1.00  0.00    -0.388 N 
HETATM   11  H   UNL     1      -3.757   0.139   0.026  1.00  0.00     0.157 HD
HETATM   12  H   UNL     1      -4.654  -1.312   0.033  1.00  0.00     0.157 HD
ENDBRANCH   8  10
ENDBRANCH   1   8
TORSDOF 2
