REMARK  1 active torsions:
REMARK  status: ('A' for Active; 'I' for Inactive)
REMARK    1  A    between atoms: C_1  and  C_4 
ROOT
HETATM    1  C   UNL     1       1.184  -1.302  -0.017  1.00  0.00     0.077 A 
HETATM    2  N   UNL     1      -0.216  -1.451  -0.018  1.00  0.00    -0.351 N 
ATOM      3  HN  UNL     1      -0.706  -2.345  -0.026  1.00  0.00     0.166 HD
HETATM    4  C   UNL     1       1.591   0.024  -0.001  1.00  0.00     0.084 A 
HETATM    5  C   UNL     1      -0.804  -0.270  -0.007  1.00  0.00     0.047 A 
HETATM    6  S   UNL     1       0.252   1.083   0.011  1.00  0.00    -0.087 SA
HETATM    7  C   UNL     1      -2.276  -0.034  -0.012  1.00  0.00     0.076 C 
ENDROOT
BRANCH   1   8
HETATM    8  C   UNL     1       2.055  -2.479  -0.033  1.00  0.00     0.121 C 
HETATM    9  S   UNL     1       3.714  -2.353  -0.033  1.00  0.00    -0.059 SA
HETATM   10  N   UNL     1       1.455  -3.705  -0.050  1.00  0.00    -0.388 N 
HETATM   11  H   UNL     1       0.472  -3.772  -0.050  1.00  0.00     0.157 HD
HETATM   12  H   UNL     1       2.004  -4.522  -0.062  1.00  0.00     0.157 HD
ENDBRANCH   1   8
TORSDOF 1
