REMARK  4 active torsions:
REMARK  status: ('A' for Active; 'I' for Inactive)
REMARK    1  A    between atoms: C_1  and  C_8 
REMARK    2  A    between atoms: C_2  and  O_9 
REMARK    3  A    between atoms: C_5  and  O_10 
REMARK    4  A    between atoms: N_7  and  C_8 
ROOT
HETATM    1  C   UNL     1       1.449  -0.198   0.104  1.00  0.00     0.003 A 
HETATM    2  C   UNL     1       0.624  -1.326  -0.019  1.00  0.00     0.076 A 
HETATM    3  C   UNL     1       0.827   1.078   0.136  1.00  0.00     0.048 A 
HETATM    4  C   UNL     1      -0.772  -1.139  -0.079  1.00  0.00     0.040 A 
HETATM    5  C   UNL     1      -0.559   1.248   0.087  1.00  0.00     0.069 A 
HETATM    6  C   UNL     1      -1.362   0.126  -0.025  1.00  0.00     0.039 A 
ENDROOT
BRANCH   1   7
HETATM    7  C   UNL     1       2.955  -0.176   0.178  1.00  0.00     0.271 C 
BRANCH   7   8
HETATM    8  N   UNL     1       3.564  -0.051  -1.140  1.00  0.00    -0.075 N 
HETATM    9  H   UNL     1       4.580  -0.040  -1.045  1.00  0.00     0.274 HD
HETATM   10  H   UNL     1       3.254   0.816  -1.577  1.00  0.00     0.274 HD
HETATM   11  H   UNL     1       3.286  -0.843  -1.720  1.00  0.00     0.274 HD
ENDBRANCH   7   8
ENDBRANCH   1   7
BRANCH   2  12
HETATM   12  O   UNL     1       0.920  -2.655  -0.108  1.00  0.00    -0.355 OA
HETATM   13  C   UNL     1       2.241  -3.142  -0.019  1.00  0.00     0.210 C 
ENDBRANCH   2  12
BRANCH   5  14
HETATM   14  O   UNL     1      -0.985   2.545   0.159  1.00  0.00    -0.356 OA
HETATM   15  C   UNL     1      -2.391   2.760   0.148  1.00  0.00     0.210 C 
ENDBRANCH   5  14
TORSDOF 4
