REMARK  1 active torsions:
REMARK  status: ('A' for Active; 'I' for Inactive)
REMARK    1  A    between atoms: C_1  and  C_2 
ROOT
HETATM    1  C   UNL     1       0.306  -1.334  -0.410  1.00  0.00     0.042 A 
HETATM    2  C   UNL     1      -1.457  -2.533  -1.551  1.00  0.00     0.041 A 
HETATM    3  C   UNL     1      -0.787  -1.339  -1.282  1.00  0.00     0.042 A 
HETATM    4  C   UNL     1      -1.054  -3.735  -0.944  1.00  0.00    -0.040 A 
HETATM    5  C   UNL     1       0.716  -2.521   0.205  1.00  0.00     0.019 A 
HETATM    6  C   UNL     1       0.040  -3.713  -0.064  1.00  0.00     0.009 A 
HETATM    7 CL   UNL     1      -2.796  -2.480  -2.641  1.00  0.00    -0.084 Cl
HETATM    8  C   UNL     1      -1.774  -5.031  -1.198  1.00  0.00     0.050 C 
ENDROOT
BRANCH   1   9
HETATM    9  C   UNL     1       0.963  -0.038  -0.117  1.00  0.00     0.209 C 
HETATM   10  O   UNL     1       0.364   1.020  -0.115  1.00  0.00    -0.644 OA
HETATM   11  O   UNL     1       2.289  -0.146   0.112  1.00  0.00    -0.644 OA
ENDBRANCH   1   9
TORSDOF 1
