REMARK  3 active torsions:
REMARK  status: ('A' for Active; 'I' for Inactive)
REMARK    1  A    between atoms: C_1  and  C_2 
REMARK    2  A    between atoms: C_1  and  O_6 
REMARK    3  A    between atoms: C_5  and  N_7 
ROOT
HETATM    1  C   UNL     1       0.296   0.680   1.043  1.00  0.00     0.041 A 
HETATM    2  C   UNL     1       0.643   1.913   1.615  1.00  0.00     0.046 A 
HETATM    3  C   UNL     1      -0.129   2.464   2.645  1.00  0.00     0.026 A 
HETATM    4  C   UNL     1      -0.810  -0.023   1.538  1.00  0.00     0.018 A 
HETATM    5  C   UNL     1      -1.550   0.494   2.599  1.00  0.00     0.003 A 
HETATM    6  C   UNL     1      -1.195   1.721   3.161  1.00  0.00     0.029 A 
ENDROOT
BRANCH   1   7
HETATM    7  C   UNL     1       1.071   0.059  -0.065  1.00  0.00     0.293 C 
HETATM    8  O   UNL     1       0.848  -1.066  -0.485  1.00  0.00    -0.259 OA
BRANCH   7   9
HETATM    9  O   UNL     1       2.025   0.904  -0.529  1.00  0.00    -0.323 OA
HETATM   10  C   UNL     1       2.809   0.399  -1.615  1.00  0.00     0.213 C 
ENDBRANCH   7   9
ENDBRANCH   1   7
BRANCH   3  11
HETATM   11  N   UNL     1       0.298   3.622   3.306  1.00  0.00    -0.399 N 
HETATM   12  H   UNL     1       1.048   4.147   2.944  1.00  0.00     0.156 HD
HETATM   13  H   UNL     1      -0.152   3.912   4.132  1.00  0.00     0.156 HD
ENDBRANCH   3  11
TORSDOF 3
