REMARK  2 active torsions:
REMARK  status: ('A' for Active; 'I' for Inactive)
REMARK    1  A    between atoms: C_3  and  C_6 
REMARK    2  A    between atoms: N_4  and  C_6 
ROOT
HETATM    1  N   UNL     1      -1.366  -0.067   0.011  1.00  0.00    -0.375 N 
ATOM      2  HN  UNL     1      -2.385  -0.103   0.020  1.00  0.00     0.164 HD
HETATM    3  C   UNL     1       0.692   1.223  -0.003  1.00  0.00    -0.017 A 
HETATM    4  C   UNL     1      -0.696   1.109  -0.003  1.00  0.00     0.096 A 
HETATM    5  C   UNL     1      -0.617  -1.190   0.012  1.00  0.00     0.087 A 
HETATM    6  C   UNL     1       1.428   0.033   0.012  1.00  0.00     0.011 A 
HETATM    7  C   UNL     1       0.768  -1.191   0.012  1.00  0.00     0.018 A 
ENDROOT
BRANCH   3   8
HETATM    8  C   UNL     1       1.358   2.573   0.011  1.00  0.00     0.271 C 
BRANCH   8   9
HETATM    9  N   UNL     1       2.180   2.784  -1.180  1.00  0.00    -0.075 N 
HETATM   10  C   UNL     1       2.823   4.090  -1.151  1.00  0.00     0.267 C 
HETATM   11  H   UNL     1       1.588   2.723  -2.008  1.00  0.00     0.277 HD
HETATM   12  H   UNL     1       2.905   2.066  -1.204  1.00  0.00     0.277 HD
ENDBRANCH   8   9
ENDBRANCH   3   8
TORSDOF 2
