REMARK  0 active torsions:
REMARK  status: ('A' for Active; 'I' for Inactive)
ROOT
HETATM    1  N   UNL     1      -0.702  -1.082  -0.005  1.00  0.00    -0.266 N 
ATOM      2  HN  UNL     1      -1.287  -1.917  -0.008  1.00  0.00     0.194 HD
HETATM    3  O   UNL     1       0.680  -1.031  -0.002  1.00  0.00    -0.243 OA
HETATM    4  C   UNL     1      -0.017   1.085   0.001  1.00  0.00     0.060 A 
HETATM    5  C   UNL     1       1.086   0.267   0.001  1.00  0.00     0.074 A 
HETATM    6  C   UNL     1      -1.113   0.192  -0.003  1.00  0.00     0.031 A 
HETATM    7  C   UNL     1       2.539   0.505   0.002  1.00  0.00     0.079 C 
HETATM    8  C   UNL     1      -2.557   0.516  -0.007  1.00  0.00     0.070 C 
ENDROOT
TORSDOF 0
