REMARK  2 active torsions:
REMARK  status: ('A' for Active; 'I' for Inactive)
REMARK    1  A    between atoms: C_1  and  C_2 
REMARK    2  A    between atoms: C_2  and  O_5 
ROOT
HETATM    1  C   UNL     1       0.208   1.217  -0.030  1.00  0.00     0.061 A 
HETATM    2  C   UNL     1      -0.443  -0.027  -0.030  1.00  0.00     0.050 A 
HETATM    3 CL   UNL     1      -2.161  -0.222   0.022  1.00  0.00    -0.083 Cl
HETATM    4  C   UNL     1       1.615   1.243  -0.006  1.00  0.00     0.019 A 
HETATM    5  C   UNL     1       0.311  -1.209  -0.021  1.00  0.00     0.025 A 
HETATM    6  C   UNL     1       2.359   0.062   0.002  1.00  0.00     0.001 A 
HETATM    7  C   UNL     1       1.707  -1.166  -0.006  1.00  0.00     0.002 A 
ENDROOT
BRANCH   1   8
HETATM    8  C   UNL     1      -0.463   2.543  -0.010  1.00  0.00     0.294 C 
HETATM    9  O   UNL     1       0.040   3.530   0.510  1.00  0.00    -0.259 OA
BRANCH   8  10
HETATM   10  O   UNL     1      -1.626   2.528  -0.701  1.00  0.00    -0.322 OA
HETATM   11  C   UNL     1      -2.307   3.784  -0.736  1.00  0.00     0.213 C 
ENDBRANCH   8  10
ENDBRANCH   1   8
TORSDOF 2
