REMARK  2 active torsions:
REMARK  status: ('A' for Active; 'I' for Inactive)
REMARK    1  A    between atoms: S_1  and  C_2 
REMARK    2  A    between atoms: S_1  and  N_10 
ROOT
HETATM    1  C   UNL     1       0.362  -1.096  -1.331  1.00  0.00     0.084 A 
HETATM    2  C   UNL     1      -0.279  -0.660  -2.514  1.00  0.00    -0.017 A 
HETATM    3  C   UNL     1      -0.578  -1.638  -3.489  1.00  0.00     0.044 A 
HETATM    4  C   UNL     1       0.656  -2.454  -1.134  1.00  0.00     0.067 A 
HETATM    5  C   UNL     1      -0.273  -2.985  -3.293  1.00  0.00     0.066 A 
HETATM    6  C   UNL     1       0.335  -3.380  -2.115  1.00  0.00     0.119 A 
HETATM    7 CL   UNL     1      -1.328  -1.221  -4.995  1.00  0.00    -0.084 Cl
HETATM    8  F   UNL     1       0.628  -4.672  -1.924  1.00  0.00    -0.206 F 
HETATM    9  C   UNL     1      -0.639   0.776  -2.795  1.00  0.00     0.052 C 
ENDROOT
BRANCH   1  10
HETATM   10  S   UNL     1       0.907   0.017  -0.058  1.00  0.00     0.240 S 
HETATM   11  O   UNL     1       1.734   1.035  -0.659  1.00  0.00    -0.206 OA
HETATM   12  O   UNL     1       1.341  -0.747   1.089  1.00  0.00    -0.206 OA
BRANCH  10  13
HETATM   13  N   UNL     1      -0.508   0.769   0.447  1.00  0.00    -0.225 NA
HETATM   14  H   UNL     1      -0.883   1.335  -0.315  1.00  0.00     0.136 HD
HETATM   15  H   UNL     1      -0.309   1.367   1.249  1.00  0.00     0.136 HD
ENDBRANCH  10  13
ENDBRANCH   1  10
TORSDOF 2
