REMARK  3 active torsions:
REMARK  status: ('A' for Active; 'I' for Inactive)
REMARK    1  A    between atoms: C_1  and  O_6 
REMARK    2  A    between atoms: C_5  and  O_10 
REMARK    3  A    between atoms: O_6  and  C_8 
ROOT
HETATM    1  C   UNL     1       1.314  -0.997   0.097  1.00  0.00     0.091 A 
HETATM    2  C   UNL     1      -0.076  -1.282   0.013  1.00  0.00    -0.019 A 
HETATM    3  C   UNL     1      -1.005  -0.210  -0.039  1.00  0.00    -0.020 A 
HETATM    4  C   UNL     1       1.794   0.321   0.138  1.00  0.00    -0.025 A 
HETATM    5  C   UNL     1      -0.504   1.100  -0.045  1.00  0.00     0.072 A 
HETATM    6  C   UNL     1       0.862   1.360   0.025  1.00  0.00     0.046 A 
HETATM    7  C   UNL     1      -0.566  -2.709   0.001  1.00  0.00     0.052 C 
HETATM    8  C   UNL     1      -2.494  -0.441  -0.054  1.00  0.00     0.052 C 
HETATM    9  C   UNL     1       3.239   0.697   0.284  1.00  0.00     0.051 C 
ENDROOT
BRANCH   1  10
HETATM   10  O   UNL     1       2.161  -2.124   0.296  1.00  0.00    -0.278 OA
BRANCH  10  11
HETATM   11  C   UNL     1       3.337  -2.391  -0.407  1.00  0.00     0.260 C 
HETATM   12  O   UNL     1       3.862  -1.691  -1.260  1.00  0.00    -0.265 OA
HETATM   13  C   UNL     1       3.848  -3.745  -0.001  1.00  0.00     0.126 C 
ENDBRANCH  10  11
ENDBRANCH   1  10
BRANCH   5  14
HETATM   14  O   UNL     1      -1.303   2.208  -0.094  1.00  0.00    -0.360 OA
HETATM   15  H   UNL     1      -0.920   3.063  -0.096  1.00  0.00     0.217 HD
ENDBRANCH   5  14
TORSDOF 3
