REMARK  1 active torsions:
REMARK  status: ('A' for Active; 'I' for Inactive)
REMARK    1  A    between atoms: C_1  and  C_7 
ROOT
HETATM    1  C   LIG     1      -0.702   1.204  -0.004  1.00  0.00     0.110 A 
HETATM    2  C   LIG     1      -1.387  -0.007  -0.051  1.00  0.00     0.176 A 
HETATM    3  C   LIG     1       0.690   1.208   0.043  1.00  0.00     0.176 A 
HETATM    4  C   LIG     1      -0.682  -1.207  -0.046  1.00  0.00     0.197 A 
HETATM    5  C   LIG     1       1.391   0.005   0.049  1.00  0.00     0.197 A 
HETATM    6  C   LIG     1       0.705  -1.201   0.004  1.00  0.00     0.199 A 
HETATM    7  F   LIG     1       1.369   2.360   0.121  1.00  0.00    -0.202 F 
HETATM    8  F   LIG     1      -2.724  -0.033  -0.126  1.00  0.00    -0.202 F 
HETATM    9  F   LIG     1      -1.346  -2.369  -0.094  1.00  0.00    -0.199 F 
HETATM   10  F   LIG     1       2.729   0.013   0.109  1.00  0.00    -0.199 F 
HETATM   11  F   LIG     1       1.381  -2.358   0.012  1.00  0.00    -0.199 F 
ENDROOT
BRANCH   1  12
HETATM   12  C   LIG     1      -1.434   2.478  -0.030  1.00  0.00     0.258 C 
HETATM   13  O   LIG     1      -1.086   3.287  -0.886  1.00  0.00    -0.274 OA
HETATM   14 CL   LIG     1      -2.701   2.738   1.138  1.00  0.00    -0.038 Cl
ENDBRANCH   1  12
TORSDOF 1
