REMARK  3 active torsions:
REMARK  status: ('A' for Active; 'I' for Inactive)
REMARK    1  A    between atoms: C_1  and  N_5 
REMARK    2  A    between atoms: C_4  and  C_6 
REMARK    3  A    between atoms: C_7  and  C_12 
ROOT
HETATM    1  C   LIG     1       2.064   0.590   0.835  1.00  0.00     0.159 A 
HETATM    2  N   LIG     1       2.315  -0.726   0.925  1.00  0.00    -0.329 N 
ATOM      3  HN  LIG     1       2.809  -1.211   0.176  1.00  0.00     0.168 HD
HETATM    4  C   LIG     1       1.901  -1.403   2.028  1.00  0.00     0.120 A 
HETATM    5  N   LIG     1       1.410   1.252   1.803  1.00  0.00    -0.343 N 
ATOM      6  HN  LIG     1       1.227   2.252   1.720  1.00  0.00     0.167 HD
HETATM    7  C   LIG     1       1.226  -0.776   3.054  1.00  0.00     0.051 A 
HETATM    8  C   LIG     1       1.002   0.564   2.884  1.00  0.00     0.093 A 
ENDROOT
BRANCH   1   9
HETATM    9  N   LIG     1       2.486   1.287  -0.306  1.00  0.00    -0.255 NA
HETATM   10  C   LIG     1       2.761   2.700  -0.039  1.00  0.00     0.099 C 
HETATM   11  C   LIG     1       3.030   3.443  -1.344  1.00  0.00     0.028 C 
HETATM   12  C   LIG     1       4.124   2.756  -2.165  1.00  0.00     0.074 C 
HETATM   13  C   LIG     1       3.756   1.292  -2.411  1.00  0.00     0.028 C 
HETATM   14  C   LIG     1       3.479   0.561  -1.099  1.00  0.00     0.099 C 
BRANCH  12  15
HETATM   15  C   LIG     1       4.318   3.473  -3.496  1.00  0.00     0.223 C 
HETATM   16  O   LIG     1       3.395   4.015  -4.094  1.00  0.00    -0.279 OA
HETATM   17 CL   LIG     1       5.970   3.402  -4.050  1.00  0.00    -0.043 Cl
ENDBRANCH  12  15
ENDBRANCH   1   9
BRANCH   4  18
HETATM   18  C   LIG     1       2.194  -2.888   2.136  1.00  0.00     0.432 C 
HETATM   19  F   LIG     1       2.864  -3.411   1.071  1.00  0.00    -0.165 F 
HETATM   20  F   LIG     1       2.951  -3.187   3.233  1.00  0.00    -0.165 F 
HETATM   21  F   LIG     1       1.058  -3.635   2.266  1.00  0.00    -0.165 F 
ENDBRANCH   4  18
TORSDOF 3
