REMARK  4 active torsions:
REMARK  status: ('A' for Active; 'I' for Inactive)
REMARK    1  A    between atoms: C_1  and  C_2 
REMARK    2  A    between atoms: C_3  and  S_7 
REMARK    3  A    between atoms: S_7  and  C_11 
REMARK    4  A    between atoms: C_11  and  C_13 
ROOT
HETATM    1  C   LIG     1      -3.315   0.434  -1.464  1.00  0.00     0.060 A 
HETATM    2  C   LIG     1      -2.095  -0.241  -1.535  1.00  0.00     0.084 A 
HETATM    3  N   LIG     1      -1.160  -0.118  -0.554  1.00  0.00    -0.360 N 
ATOM      4  HN  LIG     1      -0.285  -0.640  -0.603  1.00  0.00     0.166 HD
HETATM    5  C   LIG     1      -3.524   1.320  -0.391  1.00  0.00     0.020 A 
HETATM    6  C   LIG     1      -1.410   0.707   0.485  1.00  0.00     0.089 A 
HETATM    7  C   LIG     1      -2.561   1.458   0.600  1.00  0.00     0.018 A 
ENDROOT
BRANCH   2   8
HETATM    8  S   LIG     1      -1.595  -1.291  -2.895  1.00  0.00    -0.111 SA
BRANCH   8   9
HETATM    9  C   LIG     1       0.223  -1.066  -2.852  1.00  0.00     0.080 C 
BRANCH   9  10
HETATM   10  C   LIG     1       0.896  -1.959  -3.896  1.00  0.00     0.006 C 
HETATM   11  C   LIG     1       2.409  -1.777  -3.899  1.00  0.00     0.006 C 
ENDBRANCH   9  10
ENDBRANCH   8   9
ENDBRANCH   2   8
BRANCH   1  12
HETATM   12  C   LIG     1      -4.428   0.307  -2.439  1.00  0.00     0.255 C 
HETATM   13  O   LIG     1      -5.003   1.350  -2.742  1.00  0.00    -0.274 OA
HETATM   14 CL   LIG     1      -4.963  -1.272  -2.958  1.00  0.00    -0.038 Cl
ENDBRANCH   1  12
TORSDOF 4
