REMARK  3 active torsions:
REMARK  status: ('A' for Active; 'I' for Inactive)
REMARK    1  A    between atoms: C_1  and  O_4 
REMARK    2  A    between atoms: C_2  and  C_3 
REMARK    3  A    between atoms: O_4  and  C_8 
ROOT
HETATM    1  C   LIG     1       0.788  -1.083   0.087  1.00  0.00     0.163 A 
HETATM    2  C   LIG     1       0.505  -0.436  -1.109  1.00  0.00     0.077 A 
HETATM    3  N   LIG     1      -0.103  -1.162   1.113  1.00  0.00    -0.346 N 
ATOM      4  HN  LIG     1       0.153  -1.595   2.000  1.00  0.00     0.167 HD
HETATM    5  C   LIG     1      -0.793   0.073  -1.280  1.00  0.00     0.022 A 
HETATM    6  C   LIG     1      -1.336  -0.650   0.919  1.00  0.00     0.090 A 
HETATM    7  C   LIG     1      -1.730  -0.042  -0.257  1.00  0.00     0.018 A 
ENDROOT
BRANCH   1   8
HETATM    8  O   LIG     1       2.027  -1.684   0.249  1.00  0.00    -0.293 OA
BRANCH   8   9
HETATM    9  C   LIG     1       2.145  -2.762   1.096  1.00  0.00     0.077 A 
HETATM   10  C   LIG     1       3.357  -2.883   1.780  1.00  0.00     0.039 A 
HETATM   11  C   LIG     1       3.558  -3.944   2.667  1.00  0.00     0.026 A 
HETATM   12  C   LIG     1       2.548  -4.886   2.859  1.00  0.00     0.034 A 
HETATM   13  C   LIG     1       1.359  -4.801   2.140  1.00  0.00     0.026 A 
HETATM   14 CL   LIG     1       2.768  -6.160   3.994  1.00  0.00    -0.084 Cl
HETATM   15  C   LIG     1       1.166  -3.751   1.241  1.00  0.00     0.039 A 
ENDBRANCH   8   9
ENDBRANCH   1   8
BRANCH   2  16
HETATM   16  C   LIG     1       1.482  -0.272  -2.217  1.00  0.00     0.256 C 
HETATM   17  O   LIG     1       1.007  -0.194  -3.349  1.00  0.00    -0.274 OA
HETATM   18 CL   LIG     1       3.192  -0.107  -1.893  1.00  0.00    -0.038 Cl
ENDBRANCH   2  16
TORSDOF 3
