REMARK  3 active torsions:
REMARK  status: ('A' for Active; 'I' for Inactive)
REMARK    1  A    between atoms: C_1  and  C_2 
REMARK    2  A    between atoms: C_9  and  C_10 
REMARK    3  A    between atoms: C_10  and  C_11 
ROOT
HETATM    1  C   LIG     1       0.653  -0.780   0.084  1.00  0.00     0.026 A 
HETATM    2  C   LIG     1       1.053  -2.036   0.556  1.00  0.00     0.017 A 
HETATM    3  C   LIG     1      -0.378  -0.708  -0.865  1.00  0.00     0.017 A 
HETATM    4  C   LIG     1       0.431  -3.198   0.092  1.00  0.00     0.008 A 
HETATM    5  C   LIG     1      -0.999  -1.873  -1.329  1.00  0.00     0.008 A 
HETATM    6  C   LIG     1      -0.605  -3.127  -0.847  1.00  0.00    -0.058 A 
ENDROOT
BRANCH   1   7
HETATM    7  C   LIG     1       1.297   0.487   0.566  1.00  0.00     0.252 C 
HETATM    8  O   LIG     1       0.884   1.546   0.101  1.00  0.00    -0.274 OA
HETATM    9 CL   LIG     1       2.590   0.411   1.749  1.00  0.00    -0.038 Cl
ENDBRANCH   1   7
BRANCH   6  10
HETATM   10  C   LIG     1      -1.272  -4.387  -1.341  1.00  0.00     0.038 C 
BRANCH  10  11
HETATM   11  C   LIG     1      -0.600  -4.940  -2.599  1.00  0.00     0.000 C 
HETATM   12  C   LIG     1      -1.286  -6.210  -3.078  1.00  0.00     0.005 C 
ENDBRANCH  10  11
ENDBRANCH   6  10
TORSDOF 3
