REMARK  2 active torsions:
REMARK  status: ('A' for Active; 'I' for Inactive)
REMARK    1  A    between atoms: C_1  and  C_2 
REMARK    2  A    between atoms: C_9  and  C_10 
ROOT
HETATM    1  C   LIG     1       0.312  -1.100  -0.257  1.00  0.00     0.026 A 
HETATM    2  C   LIG     1       0.907  -2.322   0.092  1.00  0.00     0.017 A 
HETATM    3  C   LIG     1      -0.894  -1.112  -0.969  1.00  0.00     0.017 A 
HETATM    4  C   LIG     1       0.310  -3.533  -0.269  1.00  0.00     0.008 A 
HETATM    5  C   LIG     1      -1.489  -2.326  -1.330  1.00  0.00     0.008 A 
HETATM    6  C   LIG     1      -0.888  -3.545  -0.991  1.00  0.00    -0.059 A 
ENDROOT
BRANCH   1   7
HETATM    7  C   LIG     1       0.990   0.177   0.142  1.00  0.00     0.252 C 
HETATM    8  O   LIG     1       2.047   0.087   0.765  1.00  0.00    -0.274 OA
HETATM    9 CL   LIG     1       0.270   1.718  -0.284  1.00  0.00    -0.038 Cl
ENDBRANCH   1   7
BRANCH   6  10
HETATM   10  C   LIG     1      -1.534  -4.850  -1.385  1.00  0.00     0.034 C 
HETATM   11  C   LIG     1      -2.536  -5.330  -0.346  1.00  0.00     0.010 C 
ENDBRANCH   6  10
TORSDOF 2
