REMARK  1 active torsions:
REMARK  status: ('A' for Active; 'I' for Inactive)
REMARK    1  A    between atoms: C_3  and  C_9 
ROOT
HETATM    1  O   LIG     1      -0.125  -0.885  -0.215  1.00  0.00    -0.242 OA
HETATM    2  C   LIG     1       1.148  -0.446  -0.056  1.00  0.00     0.089 A 
HETATM    3  C   LIG     1       1.158   0.933   0.058  1.00  0.00     0.082 A 
HETATM    4  C   LIG     1      -0.224   1.277  -0.048  1.00  0.00     0.046 A 
HETATM    5  N   LIG     1      -0.986   0.188  -0.210  1.00  0.00    -0.265 N 
ATOM      6  HN  LIG     1      -2.001   0.160  -0.310  1.00  0.00     0.194 HD
HETATM    7  C   LIG     1      -0.891   2.601  -0.005  1.00  0.00     0.071 C 
HETATM    8  C   LIG     1       2.193  -1.491  -0.042  1.00  0.00     0.080 C 
ENDROOT
BRANCH   3   9
HETATM    9  C   LIG     1       2.361   1.739   0.241  1.00  0.00     0.256 C 
HETATM   10 CL   LIG     1       2.190   3.478   0.384  1.00  0.00    -0.038 Cl
HETATM   11  O   LIG     1       3.460   1.191   0.291  1.00  0.00    -0.274 OA
ENDBRANCH   3   9
TORSDOF 1
