REMARK  1 active torsions:
REMARK  status: ('A' for Active; 'I' for Inactive)
REMARK    1  A    between atoms: C_1  and  C_5 
ROOT
HETATM    1  C   LIG     1       0.626   1.502  -0.048  1.00  0.00     0.060 A 
HETATM    2  C   LIG     1       1.956   1.062   0.045  1.00  0.00     0.019 A 
HETATM    3  C   LIG     1       2.250  -0.312   0.100  1.00  0.00     0.002 A 
HETATM    4  C   LIG     1       1.227  -1.261   0.061  1.00  0.00     0.010 A 
HETATM    5  C   LIG     1      -0.376   0.546  -0.076  1.00  0.00     0.090 A 
HETATM    6  C   LIG     1      -0.080  -0.812  -0.023  1.00  0.00    -0.022 A 
HETATM    7  C   LIG     1      -1.331  -1.595  -0.154  1.00  0.00     0.068 C 
HETATM    8  C   LIG     1      -2.340  -0.478   0.100  1.00  0.00     0.180 C 
HETATM    9  O   LIG     1      -1.719   0.788  -0.218  1.00  0.00    -0.349 OA
ENDROOT
BRANCH   1  10
HETATM   10  C   LIG     1       0.306   2.952  -0.096  1.00  0.00     0.255 C 
HETATM   11  O   LIG     1      -0.634   3.363   0.580  1.00  0.00    -0.274 OA
HETATM   12 CL   LIG     1       1.321   3.987  -1.082  1.00  0.00    -0.038 Cl
ENDBRANCH   1  10
TORSDOF 1
