REMARK  2 active torsions:
REMARK  status: ('A' for Active; 'I' for Inactive)
REMARK    1  A    between atoms: N_1  and  C_7 
REMARK    2  A    between atoms: C_3  and  C_14 
ROOT
HETATM    1  N   LIG     1       1.432   0.178   0.160  1.00  0.00    -0.260 N 
HETATM    2  C   LIG     1       1.017  -1.149   0.055  1.00  0.00     0.047 C 
HETATM    3  C   LIG     1      -0.376  -1.121  -0.022  1.00  0.00     0.067 C 
HETATM    4  C   LIG     1      -0.696   0.241   0.134  1.00  0.00     0.126 C 
HETATM    5  N   LIG     1       0.372   1.009   0.324  1.00  0.00    -0.304 N 
ATOM      6  HN  LIG     1       0.391   2.005   0.545  1.00  0.00     0.186 HD
HETATM    7  C   LIG     1       1.949  -2.312   0.099  1.00  0.00     0.071 C 
ENDROOT
BRANCH   1   8
HETATM    8  C   LIG     1       2.746   0.732   0.119  1.00  0.00     0.056 A 
HETATM    9  C   LIG     1       2.995   1.955   0.767  1.00  0.00     0.034 A 
HETATM   10  C   LIG     1       4.279   2.507   0.758  1.00  0.00     0.044 A 
HETATM   11  C   LIG     1       5.301   1.857   0.078  1.00  0.00     0.116 A 
HETATM   12  C   LIG     1       5.064   0.668  -0.599  1.00  0.00     0.044 A 
HETATM   13  F   LIG     1       6.530   2.389   0.062  1.00  0.00    -0.206 F 
HETATM   14  C   LIG     1       3.785   0.103  -0.582  1.00  0.00     0.034 A 
ENDBRANCH   1   8
BRANCH   3  15
HETATM   15  C   LIG     1      -1.301  -2.247  -0.185  1.00  0.00     0.255 C 
HETATM   16 CL   LIG     1      -3.021  -1.864  -0.222  1.00  0.00    -0.038 Cl
HETATM   17  O   LIG     1      -0.883  -3.392  -0.296  1.00  0.00    -0.274 OA
ENDBRANCH   3  15
TORSDOF 2
