REMARK  2 active torsions:
REMARK  status: ('A' for Active; 'I' for Inactive)
REMARK    1  A    between atoms: C_1  and  C_7 
REMARK    2  A    between atoms: C_5  and  C_8 
ROOT
HETATM    1  C   LIG     1      -0.559  -1.506  -0.005  1.00  0.00     0.091 A 
HETATM    2  S   LIG     1       1.148  -1.670   0.004  1.00  0.00    -0.065 SA
HETATM    3  N   LIG     1       0.205   0.705   0.102  1.00  0.00    -0.352 N 
ATOM      4  HN  LIG     1       0.135   1.720   0.167  1.00  0.00     0.166 HD
HETATM    5  C   LIG     1       1.340   0.036   0.060  1.00  0.00     0.085 A 
HETATM    6  C   LIG     1      -0.882  -0.157   0.046  1.00  0.00     0.028 A 
HETATM    7  C   LIG     1      -2.245   0.445   0.047  1.00  0.00     0.070 C 
ENDROOT
BRANCH   5   8
HETATM    8  C   LIG     1       2.676   0.656   0.101  1.00  0.00    -0.002 A 
HETATM    9  C   LIG     1       2.841   1.891   0.748  1.00  0.00     0.014 A 
HETATM   10  C   LIG     1       4.092   2.514   0.803  1.00  0.00     0.001 A 
HETATM   11  C   LIG     1       5.196   1.914   0.202  1.00  0.00     0.000 A 
HETATM   12  C   LIG     1       5.051   0.694  -0.453  1.00  0.00     0.001 A 
HETATM   13  C   LIG     1       3.801   0.070  -0.504  1.00  0.00     0.014 A 
ENDBRANCH   5   8
BRANCH   1  14
HETATM   14  C   LIG     1      -1.474  -2.642  -0.062  1.00  0.00     0.261 C 
HETATM   15  O   LIG     1      -2.693  -2.482  -0.096  1.00  0.00    -0.273 OA
HETATM   16 CL   LIG     1      -0.758  -4.247  -0.077  1.00  0.00    -0.038 Cl
ENDBRANCH   1  14
TORSDOF 2
