REMARK  2 active torsions:
REMARK  status: ('A' for Active; 'I' for Inactive)
REMARK    1  A    between atoms: N_1  and  C_7 
REMARK    2  A    between atoms: C_3  and  C_14 
ROOT
HETATM    1  N   LIG     1       1.275   0.353   0.156  1.00  0.00    -0.260 N 
HETATM    2  C   LIG     1       1.008  -1.015   0.048  1.00  0.00     0.047 C 
HETATM    3  C   LIG     1      -0.375  -1.138  -0.058  1.00  0.00     0.067 C 
HETATM    4  C   LIG     1      -0.850   0.176   0.093  1.00  0.00     0.126 C 
HETATM    5  N   LIG     1       0.121   1.060   0.290  1.00  0.00    -0.304 N 
ATOM      6  HN  LIG     1       0.023   2.054   0.497  1.00  0.00     0.186 HD
HETATM    7  C   LIG     1       2.049  -2.081   0.086  1.00  0.00     0.071 C 
ENDROOT
BRANCH   1   8
HETATM    8  C   LIG     1       2.513   1.067   0.145  1.00  0.00     0.056 A 
HETATM    9  C   LIG     1       2.554   2.359   0.699  1.00  0.00     0.033 A 
HETATM   10  C   LIG     1       3.746   3.089   0.720  1.00  0.00     0.026 A 
HETATM   11  C   LIG     1       4.899   2.544   0.165  1.00  0.00     0.034 A 
HETATM   12  C   LIG     1       4.867   1.280  -0.419  1.00  0.00     0.026 A 
HETATM   13 CL   LIG     1       6.368   3.438   0.187  1.00  0.00    -0.084 Cl
HETATM   14  C   LIG     1       3.676   0.542  -0.433  1.00  0.00     0.033 A 
ENDBRANCH   1   8
BRANCH   3  15
HETATM   15  C   LIG     1      -1.164  -2.358  -0.232  1.00  0.00     0.255 C 
HETATM   16 CL   LIG     1      -2.811  -2.162  -0.814  1.00  0.00    -0.038 Cl
HETATM   17  O   LIG     1      -0.679  -3.459   0.010  1.00  0.00    -0.274 OA
ENDBRANCH   3  15
TORSDOF 2
