REMARK  1 active torsions:
REMARK  status: ('A' for Active; 'I' for Inactive)
REMARK    1  A    between atoms: C_2  and  C_8 
ROOT
HETATM    1  S   LIG     1      -0.428  -1.354  -0.210  1.00  0.00     0.006 SA
HETATM    2  C   LIG     1       1.143  -0.688  -0.050  1.00  0.00     0.104 A 
HETATM    3  C   LIG     1       0.996   0.695  -0.083  1.00  0.00     0.042 A 
HETATM    4  N   LIG     1      -0.314   1.138  -0.229  1.00  0.00    -0.296 N 
ATOM      5  HN  LIG     1      -0.583   2.121  -0.270  1.00  0.00     0.183 HD
HETATM    6  N   LIG     1      -1.169   0.135  -0.308  1.00  0.00    -0.061 NA
HETATM    7  C   LIG     1       2.067   1.720   0.019  1.00  0.00     0.071 C 
ENDROOT
BRANCH   2   8
HETATM    8  C   LIG     1       2.352  -1.475   0.090  1.00  0.00     0.262 C 
HETATM    9  O   LIG     1       3.451  -0.936   0.206  1.00  0.00    -0.273 OA
HETATM   10 CL   LIG     1       2.176  -3.221   0.086  1.00  0.00    -0.038 Cl
ENDBRANCH   2   8
TORSDOF 1
