REMARK  1 active torsions:
REMARK  status: ('A' for Active; 'I' for Inactive)
REMARK    1  A    between atoms: C_3  and  C_6 
ROOT
HETATM    1  O   LIG     1      -0.352  -1.082   0.115  1.00  0.00    -0.334 OA
HETATM    2  C   LIG     1      -1.111   0.042   0.105  1.00  0.00     0.157 A 
HETATM    3  C   LIG     1      -0.326   1.170  -0.030  1.00  0.00     0.050 A 
HETATM    4  C   LIG     1       1.013   0.683  -0.108  1.00  0.00     0.043 A 
HETATM    5  C   LIG     1       0.939  -0.687  -0.015  1.00  0.00     0.142 A 
ENDROOT
BRANCH   3   6
HETATM    6  C   LIG     1      -0.845   2.535  -0.075  1.00  0.00     0.254 C 
HETATM    7 CL   LIG     1       0.332   3.825  -0.255  1.00  0.00    -0.038 Cl
HETATM    8  O   LIG     1      -2.053   2.737   0.012  1.00  0.00    -0.274 OA
ENDBRANCH   3   6
TORSDOF 1
