REMARK  3 active torsions:
REMARK  status: ('A' for Active; 'I' for Inactive)
REMARK    1  A    between atoms: C_5  and  C_19 
REMARK    2  A    between atoms: N_7  and  S_10 
REMARK    3  A    between atoms: S_10  and  C_11 
ROOT
HETATM    1  C   LIG     1      -1.882  -0.371  -0.749  1.00  0.00     0.031 A 
HETATM    2  C   LIG     1      -2.919   0.567  -0.725  1.00  0.00     0.002 A 
HETATM    3  C   LIG     1      -2.684   1.886  -0.357  1.00  0.00     0.001 A 
HETATM    4  C   LIG     1      -1.397   2.305  -0.014  1.00  0.00     0.015 A 
HETATM    5  C   LIG     1       1.094   1.524   0.168  1.00  0.00     0.055 A 
HETATM    6  C   LIG     1       1.647   0.276  -0.072  1.00  0.00     0.127 A 
HETATM    7  N   LIG     1       0.625  -0.594  -0.353  1.00  0.00    -0.245 N 
HETATM    8  C   LIG     1      -0.586   0.059  -0.412  1.00  0.00     0.061 A 
HETATM    9  C   LIG     1      -0.321   1.390  -0.053  1.00  0.00     0.008 A 
ENDROOT
BRANCH   7  10
HETATM   10  S   LIG     1       0.856  -2.273  -0.565  1.00  0.00     0.269 S 
HETATM   11  O   LIG     1       0.197  -2.589  -1.819  1.00  0.00    -0.200 OA
HETATM   12  O   LIG     1       2.270  -2.512  -0.353  1.00  0.00    -0.200 OA
BRANCH  10  13
HETATM   13  C   LIG     1      -0.029  -3.034   0.769  1.00  0.00     0.080 A 
HETATM   14  C   LIG     1      -1.039  -3.961   0.491  1.00  0.00     0.025 A 
HETATM   15  C   LIG     1      -1.751  -4.538   1.543  1.00  0.00     0.002 A 
HETATM   16  C   LIG     1      -1.445  -4.202   2.862  1.00  0.00     0.000 A 
HETATM   17  C   LIG     1      -0.423  -3.291   3.136  1.00  0.00     0.002 A 
HETATM   18  C   LIG     1       0.293  -2.706   2.090  1.00  0.00     0.025 A 
ENDBRANCH  10  13
ENDBRANCH   7  10
BRANCH   5  19
HETATM   19  C   LIG     1       1.821   2.746   0.549  1.00  0.00     0.254 C 
HETATM   20 CL   LIG     1       3.532   2.813   0.159  1.00  0.00    -0.038 Cl
HETATM   21  O   LIG     1       1.229   3.665   1.108  1.00  0.00    -0.274 OA
ENDBRANCH   5  19
TORSDOF 3
