REMARK  3 active torsions:
REMARK  status: ('A' for Active; 'I' for Inactive)
REMARK    1  A    between atoms: C_6  and  C_19 
REMARK    2  A    between atoms: N_7  and  S_10 
REMARK    3  A    between atoms: S_10  and  C_11 
ROOT
HETATM    1  C   LIG     1       0.936  -1.290   0.303  1.00  0.00     0.031 A 
HETATM    2  C   LIG     1       2.113  -0.539   0.290  1.00  0.00     0.002 A 
HETATM    3  C   LIG     1       2.077   0.838   0.127  1.00  0.00     0.001 A 
HETATM    4  C   LIG     1       0.856   1.498  -0.023  1.00  0.00     0.014 A 
HETATM    5  C   LIG     1      -1.699   1.121  -0.211  1.00  0.00     0.049 A 
HETATM    6  C   LIG     1      -2.473  -0.032  -0.275  1.00  0.00     0.114 A 
HETATM    7  N   LIG     1      -1.609  -1.078   0.024  1.00  0.00    -0.230 N 
HETATM    8  C   LIG     1      -0.296  -0.632   0.111  1.00  0.00     0.061 A 
HETATM    9  C   LIG     1      -0.342   0.756  -0.038  1.00  0.00    -0.006 A 
ENDROOT
BRANCH   7  10
HETATM   10  S   LIG     1      -2.053  -2.735   0.117  1.00  0.00     0.270 S 
HETATM   11  O   LIG     1      -1.022  -3.401   0.898  1.00  0.00    -0.200 OA
HETATM   12  O   LIG     1      -3.424  -2.754   0.575  1.00  0.00    -0.200 OA
BRANCH  10  13
HETATM   13  C   LIG     1      -1.923  -3.334  -1.549  1.00  0.00     0.080 A 
HETATM   14  C   LIG     1      -3.051  -3.852  -2.189  1.00  0.00     0.025 A 
HETATM   15  C   LIG     1      -2.930  -4.381  -3.476  1.00  0.00     0.002 A 
HETATM   16  C   LIG     1      -1.691  -4.400  -4.117  1.00  0.00     0.000 A 
HETATM   17  C   LIG     1      -0.564  -3.890  -3.476  1.00  0.00     0.002 A 
HETATM   18  C   LIG     1      -0.677  -3.362  -2.189  1.00  0.00     0.025 A 
ENDBRANCH  10  13
ENDBRANCH   7  10
BRANCH   6  19
HETATM   19  C   LIG     1      -3.878  -0.128  -0.644  1.00  0.00     0.269 C 
HETATM   20  O   LIG     1      -4.336  -1.093  -1.241  1.00  0.00    -0.272 OA
HETATM   21 CL   LIG     1      -4.816   1.319  -0.308  1.00  0.00    -0.037 Cl
ENDBRANCH   6  19
TORSDOF 3
