REMARK  3 active torsions:
REMARK  status: ('A' for Active; 'I' for Inactive)
REMARK    1  A    between atoms: C_1  and  C_2 
REMARK    2  A    between atoms: C_1  and  O_8 
REMARK    3  A    between atoms: O_8  and  C_11 
ROOT
HETATM    1  C   LIG     1       3.126  -0.705   0.501  1.00  0.00     0.163 A 
HETATM    2  C   LIG     1       2.794  -1.027   1.816  1.00  0.00     0.195 A 
HETATM    3  C   LIG     1       3.783  -1.077   2.790  1.00  0.00     0.199 A 
HETATM    4  C   LIG     1       5.109  -0.846   2.446  1.00  0.00     0.199 A 
HETATM    5  C   LIG     1       5.448  -0.563   1.127  1.00  0.00     0.199 A 
HETATM    6  C   LIG     1       4.458  -0.490   0.154  1.00  0.00     0.195 A 
HETATM    7  F   LIG     1       1.533  -1.350   2.135  1.00  0.00    -0.200 F 
HETATM    8  F   LIG     1       3.461  -1.387   4.053  1.00  0.00    -0.199 F 
HETATM    9  F   LIG     1       6.066  -0.926   3.381  1.00  0.00    -0.199 F 
HETATM   10  F   LIG     1       4.791  -0.250  -1.123  1.00  0.00    -0.200 F 
HETATM   11  F   LIG     1       6.734  -0.392   0.790  1.00  0.00    -0.199 F 
ENDROOT
BRANCH   1  12
HETATM   12  O   LIG     1       2.170  -0.757  -0.523  1.00  0.00    -0.268 OA
BRANCH  12  13
HETATM   13  C   LIG     1       1.000  -0.041  -0.309  1.00  0.00     0.300 C 
HETATM   14  O   LIG     1       0.811   0.830   0.516  1.00  0.00    -0.259 OA
BRANCH  13  15
HETATM   15  C   LIG     1      -0.026  -0.570  -1.232  1.00  0.00     0.055 A 
HETATM   16  C   LIG     1       0.298  -1.139  -2.465  1.00  0.00     0.020 A 
HETATM   17  C   LIG     1      -0.721  -1.593  -3.296  1.00  0.00     0.018 A 
HETATM   18  C   LIG     1      -2.030  -1.471  -2.858  1.00  0.00     0.087 A 
HETATM   19  N   LIG     1      -2.374  -0.947  -1.661  1.00  0.00    -0.374 N 
HETATM   20  C   LIG     1      -1.364  -0.501  -0.871  1.00  0.00     0.105 A 
ATOM     21  HN  LIG     1      -3.348  -0.889  -1.364  1.00  0.00     0.164 HD
ENDBRANCH  13  15
ENDBRANCH  12  13
ENDBRANCH   1  12
TORSDOF 3
