REMARK  3 active torsions:
REMARK  status: ('A' for Active; 'I' for Inactive)
REMARK    1  A    between atoms: C_1  and  C_2 
REMARK    2  A    between atoms: C_1  and  O_6 
REMARK    3  A    between atoms: O_6  and  C_11 
ROOT
HETATM    1  C   LIG     1       2.854   0.500  -0.792  1.00  0.00     0.163 A 
HETATM    2  C   LIG     1       2.293   0.542  -2.069  1.00  0.00     0.195 A 
HETATM    3  C   LIG     1       3.102   0.387  -3.187  1.00  0.00     0.199 A 
HETATM    4  C   LIG     1       4.471   0.212  -3.034  1.00  0.00     0.199 A 
HETATM    5  C   LIG     1       5.034   0.187  -1.762  1.00  0.00     0.199 A 
HETATM    6  C   LIG     1       4.226   0.332  -0.639  1.00  0.00     0.195 A 
HETATM    7  F   LIG     1       0.983   0.782  -2.224  1.00  0.00    -0.200 F 
HETATM    8  F   LIG     1       4.777   0.341   0.583  1.00  0.00    -0.200 F 
HETATM    9  F   LIG     1       6.360   0.051  -1.621  1.00  0.00    -0.199 F 
HETATM   10  F   LIG     1       5.254   0.093  -4.115  1.00  0.00    -0.199 F 
HETATM   11  F   LIG     1       2.564   0.441  -4.414  1.00  0.00    -0.199 F 
ENDROOT
BRANCH   1  12
HETATM   12  O   LIG     1       2.081   0.798   0.334  1.00  0.00    -0.267 OA
BRANCH  12  13
HETATM   13  C   LIG     1       0.969  -0.005   0.520  1.00  0.00     0.315 C 
HETATM   14  O   LIG     1       0.808  -1.139   0.084  1.00  0.00    -0.257 OA
BRANCH  13  15
HETATM   15  C   LIG     1      -0.032   0.761   1.321  1.00  0.00     0.108 A 
HETATM   16  N   LIG     1       0.299   2.032   1.680  1.00  0.00    -0.361 N 
HETATM   17  C   LIG     1      -0.620   2.735   2.370  1.00  0.00     0.088 A 
ATOM     18  HN  LIG     1       1.204   2.435   1.437  1.00  0.00     0.165 HD
HETATM   19  C   LIG     1      -1.859   2.232   2.728  1.00  0.00     0.017 A 
HETATM   20  C   LIG     1      -2.181   0.932   2.350  1.00  0.00     0.004 A 
HETATM   21  C   LIG     1      -1.257   0.179   1.627  1.00  0.00     0.036 A 
ENDBRANCH  13  15
ENDBRANCH  12  13
ENDBRANCH   1  12
TORSDOF 3
