REMARK  3 active torsions:
REMARK  status: ('A' for Active; 'I' for Inactive)
REMARK    1  A    between atoms: C_11  and  C_12 
REMARK    2  A    between atoms: C_12  and  O_13 
REMARK    3  A    between atoms: O_13  and  C_15 
ROOT
HETATM    1  C   LIG     1       0.795   1.804  -0.164  1.00  0.00     0.301 C 
HETATM    2  O   LIG     1      -0.193   2.507  -0.097  1.00  0.00    -0.259 OA
ENDROOT
BRANCH   1   3
HETATM    3  C   LIG     1       0.834   0.322  -0.010  1.00  0.00     0.066 A 
HETATM    4  C   LIG     1      -0.240  -0.543  -0.373  1.00  0.00    -0.007 A 
HETATM    5  C   LIG     1      -1.475  -0.152  -0.957  1.00  0.00     0.013 A 
HETATM    6  C   LIG     1      -0.060  -1.930  -0.144  1.00  0.00    -0.009 A 
HETATM    7  C   LIG     1      -2.473  -1.087  -1.271  1.00  0.00     0.001 A 
HETATM    8  C   LIG     1      -2.273  -2.438  -1.012  1.00  0.00     0.001 A 
HETATM    9  C   LIG     1      -1.071  -2.857  -0.454  1.00  0.00     0.013 A 
HETATM   10  C   LIG     1       1.149  -2.366   0.398  1.00  0.00     0.100 A 
HETATM   11  N   LIG     1       2.176  -1.561   0.735  1.00  0.00    -0.373 N 
HETATM   12  C   LIG     1       1.989  -0.241   0.531  1.00  0.00     0.106 A 
ATOM     13  HN  LIG     1       3.045  -1.929   1.122  1.00  0.00     0.164 HD
ENDBRANCH   1   3
BRANCH   1  14
HETATM   14  O   LIG     1       2.099   2.236  -0.411  1.00  0.00    -0.268 OA
BRANCH  14  15
HETATM   15  C   LIG     1       2.295   3.537  -0.902  1.00  0.00     0.163 A 
HETATM   16  C   LIG     1       3.282   4.331  -0.320  1.00  0.00     0.195 A 
HETATM   17  C   LIG     1       3.588   5.574  -0.867  1.00  0.00     0.199 A 
HETATM   18  F   LIG     1       3.965   3.887   0.746  1.00  0.00    -0.200 F 
HETATM   19  C   LIG     1       2.908   6.023  -1.993  1.00  0.00     0.199 A 
HETATM   20  F   LIG     1       4.556   6.328  -0.326  1.00  0.00    -0.199 F 
HETATM   21  C   LIG     1       1.941   5.222  -2.588  1.00  0.00     0.199 A 
HETATM   22  F   LIG     1       3.205   7.218  -2.524  1.00  0.00    -0.199 F 
HETATM   23  C   LIG     1       1.647   3.972  -2.055  1.00  0.00     0.195 A 
HETATM   24  F   LIG     1       1.315   5.637  -3.698  1.00  0.00    -0.199 F 
HETATM   25  F   LIG     1       0.788   3.164  -2.691  1.00  0.00    -0.200 F 
ENDBRANCH  14  15
ENDBRANCH   1  14
TORSDOF 3
