REMARK  1 active torsions:
REMARK  status: ('A' for Active; 'I' for Inactive)
REMARK    1  A    between atoms: C_6  and  C_11 
ROOT
HETATM    1  C   LIG     1      -2.112  -0.779  -0.062  1.00  0.00     0.002 A 
HETATM    2  C   LIG     1      -2.259   0.603   0.011  1.00  0.00     0.002 A 
HETATM    3  C   LIG     1      -1.140   1.440   0.073  1.00  0.00     0.021 A 
HETATM    4  C   LIG     1      -0.838  -1.357  -0.074  1.00  0.00     0.031 A 
HETATM    5  S   LIG     1       1.680   1.597   0.125  1.00  0.00    -0.065 SA
HETATM    6  C   LIG     1       2.445   0.061   0.053  1.00  0.00     0.138 A 
HETATM    7  N   LIG     1       1.618  -0.967  -0.016  1.00  0.00    -0.345 N 
ATOM      8  HN  LIG     1       1.908  -1.944  -0.065  1.00  0.00     0.167 HD
HETATM    9  C   LIG     1       0.304  -0.534  -0.012  1.00  0.00     0.050 A 
HETATM   10  C   LIG     1       0.134   0.848   0.061  1.00  0.00     0.034 A 
ENDROOT
BRANCH   6  11
HETATM   11  C   LIG     1       3.905  -0.120   0.065  1.00  0.00     0.275 C 
HETATM   12  O   LIG     1       4.430  -1.232   0.004  1.00  0.00    -0.272 OA
HETATM   13 CL   LIG     1       4.882   1.343   0.174  1.00  0.00    -0.036 Cl
ENDBRANCH   6  11
TORSDOF 1
