REMARK  1 active torsions:
REMARK  status: ('A' for Active; 'I' for Inactive)
REMARK    1  A    between atoms: C_6  and  C_12 
ROOT
HETATM    1  C   LIG     1       0.224  -0.716  -0.016  1.00  0.00     0.025 A 
HETATM    2  C   LIG     1       0.205   0.681  -0.011  1.00  0.00     0.063 A 
HETATM    3  N   LIG     1       1.521   1.058   0.002  1.00  0.00    -0.295 N 
HETATM    4  N   LIG     1       2.384   0.033   0.005  1.00  0.00    -0.293 N 
ATOM      5  HN  LIG     1       3.403   0.080   0.021  1.00  0.00     0.187 HD
HETATM    6  C   LIG     1       1.615  -1.075  -0.017  1.00  0.00     0.123 A 
HETATM    7  C   LIG     1      -2.211  -0.665  -0.006  1.00  0.00     0.001 A 
HETATM    8  C   LIG     1      -2.194   0.725  -0.015  1.00  0.00     0.002 A 
HETATM    9  C   LIG     1      -0.986   1.425  -0.015  1.00  0.00     0.032 A 
HETATM   10  C   LIG     1      -1.016  -1.395  -0.003  1.00  0.00     0.016 A 
HETATM   11  C   LIG     1       2.057   2.399   0.019  1.00  0.00     0.178 C 
ENDROOT
BRANCH   6  12
HETATM   12  C   LIG     1       2.252  -2.417  -0.034  1.00  0.00     0.271 C 
HETATM   13 CL   LIG     1       1.275  -3.789  -0.542  1.00  0.00    -0.037 Cl
HETATM   14  O   LIG     1       3.435  -2.559   0.279  1.00  0.00    -0.272 OA
ENDBRANCH   6  12
TORSDOF 1
