REMARK  4 active torsions:
REMARK  status: ('A' for Active; 'I' for Inactive)
REMARK       I    between atoms: C_1  and  N_2 
REMARK    1  A    between atoms: C_1  and  O_4 
REMARK    2  A    between atoms: C_3  and  C_6 
REMARK    3  A    between atoms: O_4  and  C_13 
REMARK    4  A    between atoms: C_13  and  C_14 
ROOT
HETATM    1  C   LIG     1      -0.323   1.961   0.733  1.00  0.00     0.363 C 
HETATM    2  N   LIG     1      -1.264   2.972   0.683  1.00  0.00    -0.328 N 
HETATM    3  O   LIG     1      -0.573   0.794   0.459  1.00  0.00    -0.238 OA
HETATM    4  C   LIG     1      -2.068   5.080  -1.061  1.00  0.00     0.075 C 
HETATM    5  C   LIG     1      -2.490   2.782  -0.075  1.00  0.00     0.129 C 
HETATM    6  C   LIG     1      -0.992   4.338   1.099  1.00  0.00     0.129 C 
HETATM    7  C   LIG     1      -0.854   5.227  -0.126  1.00  0.00     0.033 C 
HETATM    8  C   LIG     1      -2.411   3.609  -1.359  1.00  0.00     0.033 C 
ENDROOT
BRANCH   1   9
HETATM    9  O   LIG     1       0.908   2.421   1.080  1.00  0.00    -0.299 OA
BRANCH   9  10
HETATM   10  C   LIG     1       1.910   1.436   1.367  1.00  0.00     0.219 C 
BRANCH  10  11
HETATM   11  C   LIG     1       2.663   0.891   0.171  1.00  0.00    -0.034 A 
HETATM   12  C   LIG     1       2.063   0.723  -1.085  1.00  0.00     0.009 A 
HETATM   13  C   LIG     1       2.732   0.084  -2.126  1.00  0.00     0.001 A 
HETATM   14  C   LIG     1       4.027  -0.378  -1.941  1.00  0.00     0.000 A 
HETATM   15  C   LIG     1       4.654  -0.201  -0.712  1.00  0.00     0.001 A 
HETATM   16  C   LIG     1       3.974   0.420   0.344  1.00  0.00     0.009 A 
ENDBRANCH  10  11
ENDBRANCH   9  10
ENDBRANCH   1   9
BRANCH   4  17
HETATM   17  C   LIG     1      -1.847   5.953  -2.291  1.00  0.00     0.223 C 
HETATM   18  O   LIG     1      -2.150   7.148  -2.252  1.00  0.00    -0.279 OA
HETATM   19 CL   LIG     1      -1.047   5.187  -3.631  1.00  0.00    -0.043 Cl
ENDBRANCH   4  17
TORSDOF 4
