REMARK  3 active torsions:
REMARK  status: ('A' for Active; 'I' for Inactive)
REMARK    1  A    between atoms: C_1  and  C_2 
REMARK    2  A    between atoms: C_1  and  O_9 
REMARK    3  A    between atoms: O_9  and  C_12 
ROOT
HETATM    1  C   LIG     1       2.954   1.649   0.058  1.00  0.00     0.163 A 
HETATM    2  C   LIG     1       4.041   2.071  -0.706  1.00  0.00     0.195 A 
HETATM    3  C   LIG     1       4.697   3.257  -0.387  1.00  0.00     0.199 A 
HETATM    4  C   LIG     1       4.267   4.023   0.690  1.00  0.00     0.199 A 
HETATM    5  C   LIG     1       3.183   3.605   1.452  1.00  0.00     0.199 A 
HETATM    6  C   LIG     1       2.536   2.413   1.148  1.00  0.00     0.195 A 
HETATM    7  F   LIG     1       4.480   1.320  -1.725  1.00  0.00    -0.200 F 
HETATM    8  F   LIG     1       5.768   3.643  -1.096  1.00  0.00    -0.199 F 
HETATM    9  F   LIG     1       4.917   5.149   1.015  1.00  0.00    -0.199 F 
HETATM   10  F   LIG     1       1.555   1.968   1.946  1.00  0.00    -0.200 F 
HETATM   11  F   LIG     1       2.789   4.327   2.510  1.00  0.00    -0.199 F 
ENDROOT
BRANCH   1  12
HETATM   12  O   LIG     1       2.420   0.373  -0.184  1.00  0.00    -0.268 OA
BRANCH  12  13
HETATM   13  C   LIG     1       1.043   0.273  -0.281  1.00  0.00     0.301 C 
HETATM   14  O   LIG     1       0.248   1.194  -0.439  1.00  0.00    -0.259 OA
BRANCH  13  15
HETATM   15  C   LIG     1       0.656  -1.140  -0.225  1.00  0.00     0.070 A 
HETATM   16  C   LIG     1       1.419  -2.118   0.377  1.00  0.00     0.107 A 
HETATM   17  N   LIG     1       1.062  -3.421   0.428  1.00  0.00    -0.361 N 
HETATM   18  C   LIG     1      -0.112  -3.728  -0.147  1.00  0.00     0.180 A 
ATOM     19  HN  LIG     1       1.648  -4.126   0.875  1.00  0.00     0.166 HD
HETATM   20  N   LIG     1      -0.945  -2.858  -0.743  1.00  0.00    -0.361 N 
HETATM   21  C   LIG     1      -0.539  -1.567  -0.761  1.00  0.00     0.107 A 
ATOM     22  HN  LIG     1      -1.830  -3.153  -1.157  1.00  0.00     0.166 HD
ENDBRANCH  13  15
ENDBRANCH  12  13
ENDBRANCH   1  12
TORSDOF 3
