REMARK  1 active torsions:
REMARK  status: ('A' for Active; 'I' for Inactive)
REMARK    1  A    between atoms: C_3  and  C_11 
ROOT
HETATM    1  C   LIG     1      -0.996   1.433  -0.080  1.00  0.00     0.023 A 
HETATM    2  C   LIG     1      -2.168   0.667  -0.047  1.00  0.00     0.018 A 
HETATM    3  C   LIG     1      -2.130  -0.733   0.033  1.00  0.00     0.028 A 
HETATM    4  C   LIG     1      -0.891  -1.392   0.081  1.00  0.00     0.048 A 
HETATM    5  C   LIG     1       0.225   0.751  -0.030  1.00  0.00     0.047 A 
HETATM    6  C   LIG     1       0.305  -0.642   0.049  1.00  0.00     0.064 A 
HETATM    7  N   LIG     1       1.596  -1.153   0.090  1.00  0.00    -0.292 N 
ATOM      8  HN  LIG     1       1.814  -2.148   0.149  1.00  0.00     0.183 HD
HETATM    9  N   LIG     1       2.508  -0.198   0.044  1.00  0.00    -0.061 NA
HETATM   10  S   LIG     1       1.847   1.333  -0.048  1.00  0.00     0.002 SA
ENDROOT
BRANCH   3  11
HETATM   11  C   LIG     1      -3.426  -1.490   0.064  1.00  0.00     0.252 C 
HETATM   12 CL   LIG     1      -3.418  -3.236   0.180  1.00  0.00    -0.038 Cl
HETATM   13  O   LIG     1      -4.461  -0.828   0.005  1.00  0.00    -0.274 OA
ENDBRANCH   3  11
TORSDOF 1
