REMARK  1 active torsions:
REMARK  status: ('A' for Active; 'I' for Inactive)
REMARK    1  A    between atoms: C_2  and  C_7 
ROOT
HETATM    1  S   LIG     1       1.161   1.060   0.235  1.00  0.00    -0.078 SA
HETATM    2  C   LIG     1       1.016  -0.647   0.038  1.00  0.00     0.137 A 
HETATM    3  N   LIG     1      -0.225  -1.073  -0.135  1.00  0.00    -0.356 N 
ATOM      4  HN  LIG     1      -0.492  -2.048  -0.268  1.00  0.00     0.166 HD
HETATM    5  C   LIG     1      -1.106  -0.011  -0.110  1.00  0.00     0.096 A 
HETATM    6  C   LIG     1      -0.536   1.226   0.080  1.00  0.00     0.069 A 
ENDROOT
BRANCH   2   7
HETATM    7  C   LIG     1       2.164  -1.568   0.056  1.00  0.00     0.275 C 
HETATM    8  O   LIG     1       2.034  -2.783  -0.094  1.00  0.00    -0.272 OA
HETATM    9 CL   LIG     1       3.752  -0.845   0.305  1.00  0.00    -0.036 Cl
ENDBRANCH   2   7
TORSDOF 1
