REMARK  1 active torsions:
REMARK  status: ('A' for Active; 'I' for Inactive)
REMARK    1  A    between atoms: C_3  and  C_12 
ROOT
HETATM    1  C   LIG     1      -0.940   1.465  -0.077  1.00  0.00     0.033 A 
HETATM    2  C   LIG     1      -2.103   0.670  -0.043  1.00  0.00     0.019 A 
HETATM    3  C   LIG     1      -2.092  -0.756   0.035  1.00  0.00     0.029 A 
HETATM    4  C   LIG     1      -0.889  -1.492   0.084  1.00  0.00     0.048 A 
HETATM    5  C   LIG     1       0.286   0.765  -0.029  1.00  0.00     0.067 A 
HETATM    6  C   LIG     1       0.310  -0.738   0.052  1.00  0.00     0.067 A 
HETATM    7  N   LIG     1       1.552  -1.244   0.089  1.00  0.00    -0.310 N 
ATOM      8  HN  LIG     1       1.809  -2.230   0.144  1.00  0.00     0.176 HD
HETATM    9  S   LIG     1       2.590   0.053   0.027  1.00  0.00     0.068 SA
HETATM   10  N   LIG     1       1.509   1.313  -0.049  1.00  0.00    -0.310 N 
ATOM     11  HN  LIG     1       1.732   2.307  -0.101  1.00  0.00     0.176 HD
ENDROOT
BRANCH   3  12
HETATM   12  C   LIG     1      -3.420  -1.465   0.063  1.00  0.00     0.252 C 
HETATM   13 CL   LIG     1      -3.482  -3.210   0.182  1.00  0.00    -0.038 Cl
HETATM   14  O   LIG     1      -4.430  -0.765   0.001  1.00  0.00    -0.274 OA
ENDBRANCH   3  12
TORSDOF 1
