REMARK  1 active torsions:
REMARK  status: ('A' for Active; 'I' for Inactive)
REMARK    1  A    between atoms: C_4  and  C_5 
ROOT
HETATM    1  C   LIG     1      -0.934  -1.488  -0.018  1.00  0.00     0.032 A 
HETATM    2  C   LIG     1      -2.093  -0.701   0.009  1.00  0.00     0.003 A 
HETATM    3  C   LIG     1      -2.059   0.713   0.026  1.00  0.00     0.019 A 
HETATM    4  C   LIG     1      -0.859   1.472   0.013  1.00  0.00     0.056 A 
HETATM    5  C   LIG     1       0.298  -0.791  -0.017  1.00  0.00     0.068 A 
HETATM    6  C   LIG     1       0.347   0.725   0.002  1.00  0.00     0.082 A 
HETATM    7  N   LIG     1       1.609   1.183   0.027  1.00  0.00    -0.310 N 
ATOM      8  HN  LIG     1       1.895   2.162   0.058  1.00  0.00     0.176 HD
HETATM    9  S   LIG     1       2.617  -0.131  -0.002  1.00  0.00     0.068 SA
HETATM   10  N   LIG     1       1.510  -1.364  -0.029  1.00  0.00    -0.310 N 
ATOM     11  HN  LIG     1       1.711  -2.364  -0.051  1.00  0.00     0.176 HD
ENDROOT
BRANCH   4  12
HETATM   12  C   LIG     1      -0.921   2.951   0.026  1.00  0.00     0.254 C 
HETATM   13 CL   LIG     1       0.397   3.923  -0.574  1.00  0.00    -0.038 Cl
HETATM   14  O   LIG     1      -1.975   3.437   0.440  1.00  0.00    -0.274 OA
ENDBRANCH   4  12
TORSDOF 1
