REMARK  1 active torsions:
REMARK  status: ('A' for Active; 'I' for Inactive)
REMARK    1  A    between atoms: C_3  and  C_12 
ROOT
HETATM    1  C   LIG     1      -0.919   1.469  -0.079  1.00  0.00     0.035 A 
HETATM    2  C   LIG     1      -2.085   0.675  -0.044  1.00  0.00     0.019 A 
HETATM    3  C   LIG     1      -2.075  -0.756   0.036  1.00  0.00     0.029 A 
HETATM    4  C   LIG     1      -0.872  -1.494   0.086  1.00  0.00     0.050 A 
HETATM    5  C   LIG     1       0.280   0.739  -0.029  1.00  0.00     0.085 A 
HETATM    6  C   LIG     1       0.302  -0.714   0.052  1.00  0.00     0.086 A 
HETATM    7  N   LIG     1       1.578  -1.113   0.085  1.00  0.00    -0.240 N 
ATOM      8  HN  LIG     1       1.922  -2.072   0.142  1.00  0.00     0.197 HD
HETATM    9  O   LIG     1       2.337   0.045   0.026  1.00  0.00    -0.156 OA
HETATM   10  N   LIG     1       1.543   1.178  -0.043  1.00  0.00    -0.240 N 
ATOM     11  HN  LIG     1       1.857   2.147  -0.094  1.00  0.00     0.197 HD
ENDROOT
BRANCH   3  12
HETATM   12  C   LIG     1      -3.404  -1.463   0.064  1.00  0.00     0.252 C 
HETATM   13 CL   LIG     1      -3.465  -3.208   0.186  1.00  0.00    -0.038 Cl
HETATM   14  O   LIG     1      -4.412  -0.762  -0.000  1.00  0.00    -0.274 OA
ENDBRANCH   3  12
TORSDOF 1
