REMARK  2 active torsions:
REMARK  status: ('A' for Active; 'I' for Inactive)
REMARK    1  A    between atoms: C_2  and  C_7 
REMARK    2  A    between atoms: C_5  and  C_6 
ROOT
HETATM    1  S   LIG     1      -0.542   1.304  -0.567  1.00  0.00    -0.085 SA
HETATM    2  C   LIG     1      -1.336  -0.157  -0.147  1.00  0.00     0.068 A 
HETATM    3  C   LIG     1      -0.444  -1.050   0.416  1.00  0.00     0.025 A 
HETATM    4  C   LIG     1       0.878  -0.519   0.511  1.00  0.00     0.021 A 
HETATM    5  C   LIG     1       0.980   0.771   0.022  1.00  0.00     0.016 A 
ENDROOT
BRANCH   5   6
HETATM    6  C   LIG     1       2.172   1.637  -0.056  1.00  0.00    -0.019 A 
HETATM    7  C   LIG     1       2.085   3.036   0.037  1.00  0.00     0.013 A 
HETATM    8  C   LIG     1       3.229   3.837  -0.034  1.00  0.00     0.001 A 
HETATM    9  C   LIG     1       4.482   3.253  -0.192  1.00  0.00     0.000 A 
HETATM   10  C   LIG     1       4.592   1.868  -0.279  1.00  0.00     0.001 A 
HETATM   11  C   LIG     1       3.447   1.068  -0.212  1.00  0.00     0.013 A 
ENDBRANCH   5   6
BRANCH   2  12
HETATM   12  C   LIG     1      -2.769  -0.286  -0.416  1.00  0.00     0.259 C 
HETATM   13  O   LIG     1      -3.444   0.608  -0.922  1.00  0.00    -0.273 OA
HETATM   14 CL   LIG     1      -3.462  -1.833   0.049  1.00  0.00    -0.038 Cl
ENDBRANCH   2  12
TORSDOF 2
