REMARK  1 active torsions:
REMARK  status: ('A' for Active; 'I' for Inactive)
REMARK    1  A    between atoms: C_1  and  C_2 
ROOT
HETATM    1  C   LIG     1       0.348   1.095   0.759  1.00  0.00     0.028 A 
HETATM    2  C   LIG     1       0.777   2.411   0.552  1.00  0.00     0.048 A 
HETATM    3  C   LIG     1       0.186   3.477   1.220  1.00  0.00     0.059 A 
HETATM    4  N   LIG     1       0.634   4.725   0.987  1.00  0.00    -0.363 N 
ATOM      5  HN  LIG     1       1.395   4.909   0.334  1.00  0.00     0.165 HD
HETATM    6  N   LIG     1      -1.472   4.238   2.797  1.00  0.00    -0.363 N 
ATOM      7  HN  LIG     1      -2.235   4.069   3.452  1.00  0.00     0.165 HD
HETATM    8  C   LIG     1      -0.873   3.233   2.131  1.00  0.00     0.059 A 
HETATM    9  C   LIG     1      -0.698   0.860   1.658  1.00  0.00     0.019 A 
HETATM   10  C   LIG     1      -1.296   1.928   2.333  1.00  0.00     0.033 A 
HETATM   11  C   LIG     1       0.021   5.721   1.665  1.00  0.00     0.105 A 
HETATM   12  C   LIG     1      -1.009   5.482   2.551  1.00  0.00     0.105 A 
ENDROOT
BRANCH   1  13
HETATM   13  C   LIG     1       0.973  -0.069   0.048  1.00  0.00     0.252 C 
HETATM   14  O   LIG     1       0.514  -1.184   0.293  1.00  0.00    -0.274 OA
HETATM   15 CL   LIG     1       2.293   0.193  -1.070  1.00  0.00    -0.038 Cl
ENDBRANCH   1  13
TORSDOF 1
