REMARK  2 active torsions:
REMARK  status: ('A' for Active; 'I' for Inactive)
REMARK    1  A    between atoms: C_3  and  C_12 
REMARK    2  A    between atoms: C_6  and  C_7 
ROOT
HETATM    1  S   LIG     1      -1.005  -1.358   0.006  1.00  0.00    -0.081 SA
HETATM    2  C   LIG     1      -1.472   0.287   0.019  1.00  0.00     0.086 A 
HETATM    3  C   LIG     1      -0.355   1.106   0.014  1.00  0.00     0.102 A 
HETATM    4  N   LIG     1       0.856   0.410  -0.004  1.00  0.00    -0.345 N 
ATOM      5  HN  LIG     1       1.776   0.851  -0.012  1.00  0.00     0.167 HD
HETATM    6  C   LIG     1       0.652  -0.894  -0.010  1.00  0.00     0.091 A 
ENDROOT
BRANCH   6   7
HETATM    7  C   LIG     1       1.758  -1.827  -0.026  1.00  0.00     0.038 A 
HETATM    8  C   LIG     1       3.104  -1.495  -0.032  1.00  0.00     0.022 A 
HETATM    9  C   LIG     1       3.959  -2.636  -0.045  1.00  0.00     0.008 A 
HETATM   10  C   LIG     1       3.244  -3.811  -0.052  1.00  0.00     0.050 A 
HETATM   11  S   LIG     1       1.560  -3.534  -0.040  1.00  0.00    -0.099 SA
ENDBRANCH   6   7
BRANCH   3  12
HETATM   12  C   LIG     1      -0.420   2.580   0.025  1.00  0.00     0.269 C 
HETATM   13 CL   LIG     1       1.115   3.433   0.018  1.00  0.00    -0.037 Cl
HETATM   14  O   LIG     1      -1.508   3.152   0.038  1.00  0.00    -0.272 OA
ENDBRANCH   3  12
TORSDOF 2
