REMARK  1 active torsions:
REMARK  status: ('A' for Active; 'I' for Inactive)
REMARK    1  A    between atoms: C_6  and  C_10 
ROOT
HETATM    1  C   LIG     1       2.168   0.759  -0.051  1.00  0.00     0.001 A 
HETATM    2  C   LIG     1       2.262  -0.625   0.017  1.00  0.00     0.001 A 
HETATM    3  C   LIG     1       1.111  -1.413   0.071  1.00  0.00     0.019 A 
HETATM    4  C   LIG     1       0.916   1.380  -0.067  1.00  0.00     0.013 A 
HETATM    5  S   LIG     1      -1.690  -1.540   0.111  1.00  0.00    -0.085 SA
HETATM    6  C   LIG     1      -2.532  -0.056   0.047  1.00  0.00     0.068 A 
HETATM    7  C   LIG     1      -1.645   1.004  -0.018  1.00  0.00     0.036 A 
HETATM    8  C   LIG     1      -0.268   0.606  -0.014  1.00  0.00    -0.018 A 
HETATM    9  C   LIG     1      -0.148  -0.782   0.054  1.00  0.00     0.016 A 
ENDROOT
BRANCH   6  10
HETATM   10  C   LIG     1      -3.993   0.048   0.059  1.00  0.00     0.259 C 
HETATM   11  O   LIG     1      -4.544   1.146   0.006  1.00  0.00    -0.273 OA
HETATM   12 CL   LIG     1      -4.906  -1.447   0.154  1.00  0.00    -0.038 Cl
ENDBRANCH   6  10
TORSDOF 1
