REMARK  1 active torsions:
REMARK  status: ('A' for Active; 'I' for Inactive)
REMARK    1  A    between atoms: C_1  and  C_2 
ROOT
HETATM    1  C   LIG     1       0.232  -1.037  -0.603  1.00  0.00     0.029 A 
HETATM    2  C   LIG     1      -0.973  -2.181  -2.371  1.00  0.00     0.102 A 
HETATM    3  C   LIG     1      -0.450  -1.005  -1.826  1.00  0.00     0.056 A 
HETATM    4  C   LIG     1      -0.847  -3.392  -1.687  1.00  0.00     0.102 A 
HETATM    5  O   LIG     1      -1.694  -2.044  -3.526  1.00  0.00    -0.348 OA
HETATM    6  O   LIG     1      -1.435  -4.555  -2.100  1.00  0.00    -0.348 OA
HETATM    7  C   LIG     1       0.358  -2.259   0.076  1.00  0.00     0.019 A 
HETATM    8  C   LIG     1      -0.194  -3.427  -0.457  1.00  0.00     0.040 A 
HETATM    9  C   LIG     1      -1.614  -4.277  -4.522  1.00  0.00     0.053 C 
HETATM   10  C   LIG     1      -1.165  -2.827  -4.597  1.00  0.00     0.178 C 
HETATM   11  C   LIG     1      -0.942  -4.997  -3.364  1.00  0.00     0.178 C 
ENDROOT
BRANCH   1  12
HETATM   12  C   LIG     1       0.822   0.198   0.011  1.00  0.00     0.252 C 
HETATM   13  O   LIG     1       1.429   0.062   1.072  1.00  0.00    -0.274 OA
HETATM   14 CL   LIG     1       0.639   1.746  -0.788  1.00  0.00    -0.038 Cl
ENDBRANCH   1  12
TORSDOF 1
