REMARK  4 active torsions:
REMARK  status: ('A' for Active; 'I' for Inactive)
REMARK    1  A    between atoms: C_1  and  C_7 
REMARK    2  A    between atoms: C_4  and  C_8 
REMARK    3  A    between atoms: C_7  and  O_12 
REMARK    4  A    between atoms: O_12  and  C_17 
ROOT
HETATM    1  C   LIG     1      -0.146   2.033   0.089  1.00  0.00     0.316 C 
HETATM    2  O   LIG     1      -1.198   2.679   0.124  1.00  0.00    -0.257 OA
ENDROOT
BRANCH   1   3
HETATM    3  C   LIG     1      -0.112   0.568   0.063  1.00  0.00     0.116 A 
HETATM    4  N   LIG     1       1.076  -0.170   0.014  1.00  0.00    -0.345 N 
HETATM    5  C   LIG     1       0.824  -1.467   0.049  1.00  0.00     0.086 A 
ATOM      6  HN  LIG     1       2.009   0.238  -0.041  1.00  0.00     0.167 HD
HETATM    7  S   LIG     1      -0.851  -1.868   0.149  1.00  0.00    -0.081 SA
HETATM    8  C   LIG     1      -1.252  -0.211   0.142  1.00  0.00     0.087 A 
BRANCH   5   9
HETATM    9  C   LIG     1       1.849  -2.520   0.077  1.00  0.00     0.013 A 
HETATM   10  C   LIG     1       1.628  -3.813  -0.397  1.00  0.00     0.101 A 
HETATM   11  N   LIG     1       2.546  -4.813  -0.378  1.00  0.00    -0.374 N 
HETATM   12  C   LIG     1       3.754  -4.514   0.140  1.00  0.00     0.087 A 
ATOM     13  HN  LIG     1       2.332  -5.743  -0.737  1.00  0.00     0.164 HD
HETATM   14  C   LIG     1       4.086  -3.266   0.638  1.00  0.00     0.018 A 
HETATM   15  C   LIG     1       3.121  -2.259   0.601  1.00  0.00     0.017 A 
ENDBRANCH   5   9
ENDBRANCH   1   3
BRANCH   1  16
HETATM   16  O   LIG     1       1.128   2.607   0.106  1.00  0.00    -0.267 OA
BRANCH  16  17
HETATM   17  C   LIG     1       1.237   3.920   0.605  1.00  0.00     0.163 A 
HETATM   18  C   LIG     1       0.618   4.295   1.800  1.00  0.00     0.195 A 
HETATM   19  C   LIG     1       0.818   5.565   2.327  1.00  0.00     0.199 A 
HETATM   20  F   LIG     1      -0.128   3.414   2.481  1.00  0.00    -0.200 F 
HETATM   21  C   LIG     1       1.662   6.460   1.686  1.00  0.00     0.199 A 
HETATM   22  F   LIG     1       0.221   5.910   3.476  1.00  0.00    -0.199 F 
HETATM   23  C   LIG     1       2.309   6.084   0.515  1.00  0.00     0.199 A 
HETATM   24  F   LIG     1       1.876   7.673   2.215  1.00  0.00    -0.199 F 
HETATM   25  C   LIG     1       2.101   4.815  -0.025  1.00  0.00     0.195 A 
HETATM   26  F   LIG     1       3.155   6.938  -0.080  1.00  0.00    -0.199 F 
HETATM   27  F   LIG     1       2.763   4.452  -1.133  1.00  0.00    -0.200 F 
ENDBRANCH  16  17
ENDBRANCH   1  16
TORSDOF 4
