REMARK  1 active torsions:
REMARK  status: ('A' for Active; 'I' for Inactive)
REMARK    1  A    between atoms: C_3  and  C_6 
ROOT
HETATM    1  S   LIG     1      -0.458  -1.447   0.140  1.00  0.00    -0.113 SA
HETATM    2  C   LIG     1      -1.243   0.071   0.107  1.00  0.00     0.066 A 
HETATM    3  C   LIG     1      -0.367   1.137  -0.026  1.00  0.00     0.033 A 
HETATM    4  C   LIG     1       0.988   0.657  -0.100  1.00  0.00     0.024 A 
HETATM    5  C   LIG     1       1.075  -0.716  -0.022  1.00  0.00     0.050 A 
ENDROOT
BRANCH   3   6
HETATM    6  C   LIG     1      -0.834   2.534  -0.076  1.00  0.00     0.252 C 
HETATM    7 CL   LIG     1       0.386   3.785  -0.249  1.00  0.00    -0.038 Cl
HETATM    8  O   LIG     1      -2.035   2.784   0.003  1.00  0.00    -0.274 OA
ENDBRANCH   3   6
TORSDOF 1
