REMARK  2 active torsions:
REMARK  status: ('A' for Active; 'I' for Inactive)
REMARK    1  A    between atoms: C_2  and  C_4 
REMARK    2  A    between atoms: C_3  and  C_5 
ROOT
HETATM    1  S   LIG     1       1.194  -1.132  -0.033  1.00  0.00    -0.084 SA
HETATM    2  C   LIG     1       1.070   0.581   0.000  1.00  0.00     0.022 A 
HETATM    3  C   LIG     1      -0.505  -1.363   0.003  1.00  0.00     0.068 A 
HETATM    4  C   LIG     1      -1.160  -0.146   0.036  1.00  0.00     0.025 A 
HETATM    5  C   LIG     1      -0.259   0.962   0.034  1.00  0.00     0.022 A 
ENDROOT
BRANCH   2   6
HETATM    6  C   LIG     1       2.247   1.429  -0.007  1.00  0.00     0.021 A 
HETATM    7  S   LIG     1       2.125   3.147   0.032  1.00  0.00    -0.101 SA
HETATM    8  C   LIG     1       3.818   3.352   0.008  1.00  0.00     0.050 A 
HETATM    9  C   LIG     1       4.481   2.149  -0.032  1.00  0.00     0.008 A 
HETATM   10  C   LIG     1       3.578   1.045  -0.041  1.00  0.00     0.021 A 
ENDBRANCH   2   6
BRANCH   3  11
HETATM   11  C   LIG     1      -1.034  -2.727  -0.003  1.00  0.00     0.259 C 
HETATM   12  O   LIG     1      -0.319  -3.727  -0.034  1.00  0.00    -0.273 OA
HETATM   13 CL   LIG     1      -2.788  -2.829   0.040  1.00  0.00    -0.038 Cl
ENDBRANCH   3  11
TORSDOF 2
