REMARK  2 active torsions:
REMARK  status: ('A' for Active; 'I' for Inactive)
REMARK    1  A    between atoms: C_3  and  C_13 
REMARK    2  A    between atoms: C_5  and  C_7 
ROOT
HETATM    1  O   LIG     1       0.932   0.663   0.046  1.00  0.00    -0.314 OA
HETATM    2  C   LIG     1       1.020  -0.695   0.031  1.00  0.00     0.065 A 
HETATM    3  C   LIG     1      -0.245  -1.261   0.015  1.00  0.00     0.058 A 
HETATM    4  C   LIG     1      -1.148  -0.151   0.027  1.00  0.00     0.057 A 
HETATM    5  C   LIG     1      -0.389   1.002   0.043  1.00  0.00     0.087 A 
HETATM    6  C   LIG     1       2.399  -1.231   0.017  1.00  0.00     0.077 C 
ENDROOT
BRANCH   5   7
HETATM    7  C   LIG     1      -0.690   2.431   0.049  1.00  0.00    -0.002 A 
HETATM    8  C   LIG     1      -2.018   2.883   0.019  1.00  0.00     0.014 A 
HETATM    9  C   LIG     1      -2.310   4.250   0.019  1.00  0.00     0.001 A 
HETATM   10  C   LIG     1      -1.279   5.185   0.050  1.00  0.00     0.000 A 
HETATM   11  C   LIG     1       0.045   4.755   0.082  1.00  0.00     0.001 A 
HETATM   12  C   LIG     1       0.336   3.388   0.081  1.00  0.00     0.014 A 
ENDBRANCH   5   7
BRANCH   3  13
HETATM   13  C   LIG     1      -0.543  -2.695  -0.014  1.00  0.00     0.254 C 
HETATM   14 CL   LIG     1      -2.242  -3.149  -0.005  1.00  0.00    -0.038 Cl
HETATM   15  O   LIG     1       0.362  -3.522  -0.045  1.00  0.00    -0.274 OA
ENDBRANCH   3  13
TORSDOF 2
