REMARK  2 active torsions:
REMARK  status: ('A' for Active; 'I' for Inactive)
REMARK    1  A    between atoms: N_1  and  C_12 
REMARK    2  A    between atoms: C_4  and  C_9 
ROOT
HETATM    1  N   LIG     1      -0.050  -1.131   0.049  1.00  0.00    -0.196 N 
HETATM    2  N   LIG     1       1.175  -0.677   0.419  1.00  0.00    -0.273 N 
ATOM      3  HN  LIG     1       1.988  -1.216   0.716  1.00  0.00     0.189 HD
HETATM    4  C   LIG     1       1.054   0.658   0.298  1.00  0.00     0.136 A 
HETATM    5  C   LIG     1      -0.261   0.955  -0.137  1.00  0.00     0.057 A 
HETATM    6  N   LIG     1      -0.954  -0.178  -0.294  1.00  0.00    -0.281 N 
ATOM      7  HN  LIG     1      -1.921  -0.297  -0.596  1.00  0.00     0.189 HD
HETATM    8  C   LIG     1      -0.886   2.272  -0.402  1.00  0.00     0.072 C 
ENDROOT
BRANCH   1   9
HETATM    9  C   LIG     1      -0.361  -2.515   0.018  1.00  0.00     0.074 A 
HETATM   10  C   LIG     1      -1.637  -2.940  -0.379  1.00  0.00     0.033 A 
HETATM   11  C   LIG     1      -1.939  -4.302  -0.410  1.00  0.00     0.002 A 
HETATM   12  C   LIG     1      -0.974  -5.242  -0.046  1.00  0.00     0.000 A 
HETATM   13  C   LIG     1       0.296  -4.824   0.350  1.00  0.00     0.002 A 
HETATM   14  C   LIG     1       0.607  -3.463   0.384  1.00  0.00     0.033 A 
ENDBRANCH   1   9
BRANCH   4  15
HETATM   15  C   LIG     1       2.140   1.607   0.587  1.00  0.00     0.272 C 
HETATM   16 CL   LIG     1       3.678   0.937   1.116  1.00  0.00    -0.037 Cl
HETATM   17  O   LIG     1       1.953   2.815   0.455  1.00  0.00    -0.272 OA
ENDBRANCH   4  15
TORSDOF 2
