REMARK  2 active torsions:
REMARK  status: ('A' for Active; 'I' for Inactive)
REMARK    1  A    between atoms: C_1  and  N_5 
REMARK    2  A    between atoms: C_2  and  C_6 
ROOT
HETATM    1  C   LIG     1       1.827   0.564  -1.228  1.00  0.00     0.082 A 
HETATM    2  C   LIG     1      -0.224   1.011  -3.071  1.00  0.00     0.042 A 
HETATM    3  N   LIG     1       1.828   1.691  -1.970  1.00  0.00    -0.356 N 
ATOM      4  HN  LIG     1       2.572   2.380  -1.862  1.00  0.00     0.166 HD
HETATM    5  C   LIG     1       0.823   1.896  -2.864  1.00  0.00     0.105 A 
HETATM    6  C   LIG     1      -0.235  -0.143  -2.299  1.00  0.00     0.021 A 
HETATM    7  C   LIG     1       0.787  -0.358  -1.368  1.00  0.00     0.043 A 
ENDROOT
BRANCH   1   8
HETATM    8  N   LIG     1       2.842   0.351  -0.288  1.00  0.00    -0.265 NA
HETATM    9  C   LIG     1       3.846   1.438  -0.192  1.00  0.00     0.123 C 
HETATM   10  C   LIG     1       4.913   1.310  -1.296  1.00  0.00     0.182 C 
HETATM   11  O   LIG     1       5.536   0.011  -1.283  1.00  0.00    -0.389 OA
HETATM   12  C   LIG     1       4.551  -1.021  -1.449  1.00  0.00     0.182 C 
HETATM   13  C   LIG     1       3.504  -0.972  -0.323  1.00  0.00     0.123 C 
ENDBRANCH   1   8
BRANCH   2  14
HETATM   14  C   LIG     1      -1.266   1.333  -4.078  1.00  0.00     0.253 C 
HETATM   15  O   LIG     1      -1.136   2.382  -4.706  1.00  0.00    -0.274 OA
HETATM   16 CL   LIG     1      -2.605   0.232  -4.331  1.00  0.00    -0.038 Cl
ENDBRANCH   2  14
TORSDOF 2
