REMARK  4 active torsions:
REMARK  status: ('A' for Active; 'I' for Inactive)
REMARK    1  A    between atoms: N_1  and  C_2 
REMARK    2  A    between atoms: C_7  and  O_15 
REMARK    3  A    between atoms: C_7  and  C_8 
REMARK    4  A    between atoms: O_15  and  C_16 
ROOT
HETATM    1  O   LIG     1       1.303   6.086  -3.472  1.00  0.00    -0.259 OA
HETATM    2  C   LIG     1       1.841   4.985  -3.522  1.00  0.00     0.298 C 
ENDROOT
BRANCH   2   3
HETATM    3  O   LIG     1       2.795   4.576  -4.434  1.00  0.00    -0.268 OA
BRANCH   3   4
HETATM    4  C   LIG     1       3.480   5.617  -5.064  1.00  0.00     0.163 A 
HETATM    5  C   LIG     1       4.057   6.651  -4.324  1.00  0.00     0.195 A 
HETATM    6  C   LIG     1       4.768   7.651  -4.966  1.00  0.00     0.199 A 
HETATM    7  F   LIG     1       3.955   6.666  -2.987  1.00  0.00    -0.200 F 
HETATM    8  C   LIG     1       4.943   7.601  -6.342  1.00  0.00     0.199 A 
HETATM    9  F   LIG     1       5.296   8.654  -4.252  1.00  0.00    -0.199 F 
HETATM   10  C   LIG     1       4.409   6.548  -7.078  1.00  0.00     0.199 A 
HETATM   11  F   LIG     1       5.642   8.563  -6.959  1.00  0.00    -0.199 F 
HETATM   12  C   LIG     1       3.678   5.553  -6.440  1.00  0.00     0.195 A 
HETATM   13  F   LIG     1       4.606   6.491  -8.402  1.00  0.00    -0.199 F 
HETATM   14  F   LIG     1       3.182   4.528  -7.148  1.00  0.00    -0.200 F 
ENDBRANCH   3   4
ENDBRANCH   2   3
BRANCH   2  15
HETATM   15  C   LIG     1       1.590   3.893  -2.555  1.00  0.00     0.040 A 
HETATM   16  C   LIG     1       0.750   4.136  -1.471  1.00  0.00     0.020 A 
HETATM   17  C   LIG     1       0.501   3.125  -0.533  1.00  0.00     0.030 A 
HETATM   18  C   LIG     1       1.093   1.852  -0.625  1.00  0.00     0.030 A 
HETATM   19  C   LIG     1       1.922   1.642  -1.741  1.00  0.00     0.030 A 
HETATM   20  C   LIG     1       2.184   2.641  -2.683  1.00  0.00     0.020 A 
BRANCH  18  21
HETATM   21  N   LIG     1       0.824   0.838   0.305  1.00  0.00    -0.377 N 
HETATM   22  C   LIG     1       0.490   1.223   1.702  1.00  0.00     0.149 C 
HETATM   23  C   LIG     1       1.784   1.495   2.494  1.00  0.00     0.187 C 
HETATM   24  O   LIG     1       2.668   0.357   2.475  1.00  0.00    -0.388 OA
HETATM   25  C   LIG     1       2.986  -0.024   1.123  1.00  0.00     0.187 C 
HETATM   26  C   LIG     1       1.708  -0.356   0.333  1.00  0.00     0.149 C 
ENDBRANCH  18  21
ENDBRANCH   2  15
TORSDOF 4
