REMARK  2 active torsions:
REMARK  status: ('A' for Active; 'I' for Inactive)
REMARK    1  A    between atoms: C_2  and  N_10 
REMARK    2  A    between atoms: C_5  and  C_7 
ROOT
HETATM    1  C   LIG     1      -0.780   1.097  -0.354  1.00  0.00     0.032 A 
HETATM    2  C   LIG     1      -1.394  -0.140  -0.126  1.00  0.00     0.056 A 
HETATM    3  C   LIG     1      -0.596  -1.262   0.142  1.00  0.00     0.032 A 
HETATM    4  C   LIG     1       0.799  -1.152   0.180  1.00  0.00     0.018 A 
HETATM    5  C   LIG     1       1.417   0.082  -0.050  1.00  0.00     0.026 A 
HETATM    6  C   LIG     1       0.616   1.204  -0.316  1.00  0.00     0.018 A 
ENDROOT
BRANCH   2   7
HETATM    7  N   LIG     1      -2.810  -0.284  -0.163  1.00  0.00    -0.268 N 
HETATM    8  C   LIG     1      -3.760   0.687  -0.402  1.00  0.00     0.118 A 
HETATM    9  C   LIG     1      -4.990   0.076  -0.345  1.00  0.00     0.038 A 
HETATM   10  C   LIG     1      -4.702  -1.266  -0.066  1.00  0.00     0.109 A 
HETATM   11  N   LIG     1      -3.394  -1.494   0.047  1.00  0.00    -0.305 N 
ATOM     12  HN  LIG     1      -2.932  -2.381   0.247  1.00  0.00     0.186 HD
ENDBRANCH   2   7
BRANCH   5  13
HETATM   13  C   LIG     1       2.910   0.237  -0.023  1.00  0.00     0.252 C 
HETATM   14 CL   LIG     1       3.925  -1.153   0.305  1.00  0.00    -0.038 Cl
HETATM   15  O   LIG     1       3.364   1.359  -0.239  1.00  0.00    -0.274 OA
ENDBRANCH   5  13
TORSDOF 2
