REMARK  3 active torsions:
REMARK  status: ('A' for Active; 'I' for Inactive)
REMARK    1  A    between atoms: C_1  and  C_2 
REMARK    2  A    between atoms: C_5  and  O_9 
REMARK    3  A    between atoms: O_9  and  C_12 
ROOT
HETATM    1  C   LIG     1       0.595   1.543   0.207  1.00  0.00     0.042 A 
HETATM    2  N   LIG     1      -1.560   0.434   0.296  1.00  0.00    -0.346 N 
ATOM      3  HN  LIG     1      -2.572   0.485   0.413  1.00  0.00     0.167 HD
HETATM    4  C   LIG     1      -0.933  -0.747   0.096  1.00  0.00     0.147 A 
HETATM    5  C   LIG     1      -0.789   1.548   0.334  1.00  0.00     0.106 A 
HETATM    6  C   LIG     1       1.221   0.306   0.029  1.00  0.00     0.022 A 
HETATM    7  C   LIG     1       0.446  -0.858  -0.020  1.00  0.00     0.057 A 
ENDROOT
BRANCH   4   8
HETATM    8  O   LIG     1      -1.663  -1.929   0.039  1.00  0.00    -0.294 OA
BRANCH   8   9
HETATM    9  C   LIG     1      -2.978  -1.874  -0.371  1.00  0.00     0.077 A 
HETATM   10  C   LIG     1      -3.440  -1.025  -1.381  1.00  0.00     0.037 A 
HETATM   11  C   LIG     1      -4.789  -1.022  -1.736  1.00  0.00     0.003 A 
HETATM   12  C   LIG     1      -5.674  -1.906  -1.122  1.00  0.00     0.000 A 
HETATM   13  C   LIG     1      -5.207  -2.802  -0.161  1.00  0.00     0.003 A 
HETATM   14  C   LIG     1      -3.860  -2.786   0.214  1.00  0.00     0.037 A 
ENDBRANCH   8   9
ENDBRANCH   4   8
BRANCH   1  15
HETATM   15  C   LIG     1       1.327   2.839   0.273  1.00  0.00     0.253 C 
HETATM   16  O   LIG     1       0.652   3.856   0.446  1.00  0.00    -0.274 OA
HETATM   17 CL   LIG     1       3.068   2.867   0.108  1.00  0.00    -0.038 Cl
ENDBRANCH   1  15
TORSDOF 3
