REMARK  2 active torsions:
REMARK  status: ('A' for Active; 'I' for Inactive)
REMARK    1  A    between atoms: C_1  and  C_10 
REMARK    2  A    between atoms: C_5  and  C_7 
ROOT
HETATM    1  C   LIG     1      -0.585  -1.408  -0.106  1.00  0.00    -0.008 A 
HETATM    2  C   LIG     1      -1.418  -0.283  -0.031  1.00  0.00     0.014 A 
HETATM    3  C   LIG     1      -0.877   1.002  -0.006  1.00  0.00     0.002 A 
HETATM    4  C   LIG     1       0.505   1.176  -0.056  1.00  0.00     0.016 A 
HETATM    5  C   LIG     1       1.361   0.067  -0.139  1.00  0.00     0.027 A 
HETATM    6  C   LIG     1       0.807  -1.223  -0.169  1.00  0.00     0.030 A 
ENDROOT
BRANCH   1   7
HETATM    7  C   LIG     1      -1.135  -2.760  -0.133  1.00  0.00     0.049 A 
HETATM    8  C   LIG     1      -2.321  -3.125   0.476  1.00  0.00     0.081 A 
HETATM    9  S   LIG     1      -2.635  -4.788   0.208  1.00  0.00    -0.087 SA
HETATM   10  C   LIG     1      -1.170  -4.907  -0.682  1.00  0.00     0.047 A 
HETATM   11  N   LIG     1      -0.471  -3.795  -0.775  1.00  0.00    -0.353 N 
HETATM   12  C   LIG     1      -0.777  -6.210  -1.284  1.00  0.00     0.076 C 
ATOM     13  HN  LIG     1       0.428  -3.707  -1.250  1.00  0.00     0.166 HD
ENDBRANCH   1   7
BRANCH   5  14
HETATM   14  C   LIG     1       2.842   0.304  -0.187  1.00  0.00     0.252 C 
HETATM   15 CL   LIG     1       3.945  -1.053  -0.272  1.00  0.00    -0.038 Cl
HETATM   16  O   LIG     1       3.225   1.473  -0.157  1.00  0.00    -0.274 OA
ENDBRANCH   5  14
TORSDOF 2
