REMARK  2 active torsions:
REMARK  status: ('A' for Active; 'I' for Inactive)
REMARK    1  A    between atoms: C_2  and  C_16 
REMARK    2  A    between atoms: C_6  and  C_7 
ROOT
HETATM    1  S   LIG     1      -0.203  -1.817   0.231  1.00  0.00    -0.063 SA
HETATM    2  C   LIG     1       1.165  -0.789   0.138  1.00  0.00     0.091 A 
HETATM    3  C   LIG     1       0.735   0.518  -0.055  1.00  0.00     0.028 A 
HETATM    4  N   LIG     1      -0.643   0.679  -0.123  1.00  0.00    -0.351 N 
ATOM      5  HN  LIG     1      -1.115   1.572  -0.262  1.00  0.00     0.166 HD
HETATM    6  C   LIG     1      -1.259  -0.480   0.017  1.00  0.00     0.103 A 
HETATM    7  C   LIG     1       1.582   1.737  -0.196  1.00  0.00     0.070 C 
ENDROOT
BRANCH   6   8
HETATM    8  C   LIG     1      -2.717  -0.664   0.001  1.00  0.00     0.081 A 
HETATM    9  N   LIG     1      -3.204  -1.926   0.156  1.00  0.00    -0.361 N 
HETATM   10  C   LIG     1      -4.552  -2.047   0.139  1.00  0.00     0.105 A 
ATOM     11  HN  LIG     1      -2.590  -2.731   0.278  1.00  0.00     0.165 HD
HETATM   12  C   LIG     1      -5.393  -0.960  -0.024  1.00  0.00     0.104 A 
HETATM   13  N   LIG     1      -4.926   0.298  -0.179  1.00  0.00    -0.372 N 
HETATM   14  C   LIG     1      -3.573   0.420  -0.162  1.00  0.00     0.120 A 
ATOM     15  HN  LIG     1      -5.545   1.099  -0.300  1.00  0.00     0.164 HD
ENDBRANCH   6   8
BRANCH   2  16
HETATM   16  C   LIG     1       2.537  -1.274   0.252  1.00  0.00     0.261 C 
HETATM   17  O   LIG     1       3.495  -0.507   0.171  1.00  0.00    -0.273 OA
HETATM   18 CL   LIG     1       2.757  -2.998   0.511  1.00  0.00    -0.038 Cl
ENDBRANCH   2  16
TORSDOF 2
