REMARK  2 active torsions:
REMARK  status: ('A' for Active; 'I' for Inactive)
REMARK    1  A    between atoms: C_2  and  C_11 
REMARK    2  A    between atoms: C_3  and  C_8 
ROOT
HETATM    1  O   LIG     1       0.685  -0.845  -0.012  1.00  0.00    -0.236 OA
HETATM    2  C   LIG     1       1.747   0.012  -0.089  1.00  0.00     0.126 A 
HETATM    3  C   LIG     1       1.263   1.308  -0.122  1.00  0.00     0.087 A 
HETATM    4  C   LIG     1      -0.153   1.146  -0.033  1.00  0.00     0.046 A 
HETATM    5  N   LIG     1      -0.497  -0.143   0.020  1.00  0.00    -0.264 N 
ATOM      6  HN  LIG     1      -1.440  -0.527   0.073  1.00  0.00     0.194 HD
HETATM    7  C   LIG     1      -1.208   2.189  -0.039  1.00  0.00     0.071 C 
ENDROOT
BRANCH   2   8
HETATM    8  C   LIG     1       3.043  -0.660  -0.088  1.00  0.00     0.001 A 
HETATM    9  C   LIG     1       4.152  -0.129   0.583  1.00  0.00     0.014 A 
HETATM   10  C   LIG     1       5.390  -0.780   0.547  1.00  0.00     0.001 A 
HETATM   11  C   LIG     1       5.527  -1.988  -0.134  1.00  0.00     0.000 A 
HETATM   12  C   LIG     1       4.427  -2.548  -0.775  1.00  0.00     0.001 A 
HETATM   13  C   LIG     1       3.196  -1.888  -0.755  1.00  0.00     0.014 A 
ENDBRANCH   2   8
BRANCH   3  14
HETATM   14  C   LIG     1       1.972   2.574  -0.232  1.00  0.00     0.257 C 
HETATM   15 CL   LIG     1       3.474   2.618  -1.134  1.00  0.00    -0.038 Cl
HETATM   16  O   LIG     1       1.472   3.583   0.255  1.00  0.00    -0.274 OA
ENDBRANCH   3  14
TORSDOF 2
