REMARK  2 active torsions:
REMARK  status: ('A' for Active; 'I' for Inactive)
REMARK    1  A    between atoms: C_5  and  C_7 
REMARK    2  A    between atoms: C_11  and  C_14 
ROOT
HETATM    1  C   LIG     1       2.870  -0.288  -0.259  1.00  0.00     0.042 A 
HETATM    2  N   LIG     1       3.221   1.019  -0.368  1.00  0.00    -0.364 N 
ATOM      3  HN  LIG     1       2.529   1.758  -0.244  1.00  0.00     0.165 HD
HETATM    4  C   LIG     1       4.516   1.318  -0.646  1.00  0.00     0.104 A 
HETATM    5  C   LIG     1       5.510   0.368  -0.834  1.00  0.00     0.042 A 
HETATM    6  C   LIG     1       5.139  -0.973  -0.731  1.00  0.00     0.020 A 
HETATM    7  C   LIG     1       3.811  -1.302  -0.442  1.00  0.00     0.031 A 
ENDROOT
BRANCH   1   8
HETATM    8  C   LIG     1       1.447  -0.549   0.050  1.00  0.00    -0.009 A 
HETATM    9  C   LIG     1       1.032  -1.681   0.777  1.00  0.00     0.013 A 
HETATM   10  C   LIG     1      -0.320  -1.911   1.060  1.00  0.00     0.001 A 
HETATM   11  C   LIG     1      -1.287  -1.010   0.625  1.00  0.00     0.000 A 
HETATM   12  C   LIG     1      -0.905   0.121  -0.089  1.00  0.00     0.001 A 
HETATM   13  C   LIG     1       0.446   0.347  -0.369  1.00  0.00     0.013 A 
ENDBRANCH   1   8
BRANCH   5  14
HETATM   14  C   LIG     1       6.897   0.816  -1.138  1.00  0.00     0.253 C 
HETATM   15 CL   LIG     1       8.160  -0.372  -1.381  1.00  0.00    -0.038 Cl
HETATM   16  O   LIG     1       7.094   2.028  -1.204  1.00  0.00    -0.274 OA
ENDBRANCH   5  14
TORSDOF 2
