REMARK  1 active torsions:
REMARK  status: ('A' for Active; 'I' for Inactive)
REMARK    1  A    between atoms: C_2  and  C_12 
ROOT
HETATM    1  S   LIG     1       1.755  -1.219  -0.072  1.00  0.00    -0.065 SA
HETATM    2  C   LIG     1       2.202   0.476  -0.052  1.00  0.00     0.070 A 
HETATM    3  C   LIG     1       1.069   1.300  -0.014  1.00  0.00     0.040 A 
HETATM    4  C   LIG     1      -1.441   0.719   0.026  1.00  0.00     0.035 A 
HETATM    5  N   LIG     1      -2.077  -0.475   0.018  1.00  0.00    -0.302 N 
ATOM      6  HN  LIG     1      -3.082  -0.648   0.036  1.00  0.00     0.187 HD
HETATM    7  N   LIG     1      -1.069  -1.396  -0.019  1.00  0.00    -0.289 N 
HETATM    8  C   LIG     1       0.150  -0.812  -0.033  1.00  0.00     0.104 A 
HETATM    9  C   LIG     1      -0.070   0.504  -0.006  1.00  0.00     0.024 A 
HETATM   10  C   LIG     1      -1.370  -2.805  -0.036  1.00  0.00     0.178 C 
HETATM   11  C   LIG     1      -2.198   1.989   0.063  1.00  0.00     0.070 C 
ENDROOT
BRANCH   2  12
HETATM   12  C   LIG     1       3.595   0.932  -0.071  1.00  0.00     0.259 C 
HETATM   13  O   LIG     1       3.861   2.132  -0.051  1.00  0.00    -0.273 OA
HETATM   14 CL   LIG     1       4.843  -0.298  -0.125  1.00  0.00    -0.038 Cl
ENDBRANCH   2  12
TORSDOF 1
