REMARK  1 active torsions:
REMARK  status: ('A' for Active; 'I' for Inactive)
REMARK    1  A    between atoms: C_2  and  C_10 
ROOT
HETATM    1  O   LIG     1      -1.264  -1.550  -0.026  1.00  0.00    -0.336 OA
HETATM    2  C   LIG     1      -2.386  -0.645  -0.042  1.00  0.00     0.219 A 
HETATM    3  C   LIG     1      -1.907   0.808   0.103  1.00  0.00     0.083 A 
HETATM    4  C   LIG     1      -0.158  -0.746  -0.016  1.00  0.00     0.076 A 
HETATM    5  C   LIG     1      -0.443   0.607   0.041  1.00  0.00    -0.022 A 
HETATM    6  C   LIG     1       0.572   1.547   0.058  1.00  0.00     0.010 A 
HETATM    7  C   LIG     1       1.893   1.093   0.009  1.00  0.00     0.001 A 
HETATM    8  C   LIG     1       2.175  -0.281  -0.050  1.00  0.00     0.003 A 
HETATM    9  C   LIG     1       1.138  -1.216  -0.063  1.00  0.00     0.037 A 
ENDROOT
BRANCH   2  10
HETATM   10  C   LIG     1      -3.286  -0.770  -1.275  1.00  0.00     0.248 C 
HETATM   11  O   LIG     1      -4.480  -0.472  -1.211  1.00  0.00    -0.277 OA
HETATM   12 CL   LIG     1      -2.457  -1.242  -2.731  1.00  0.00    -0.041 Cl
ENDBRANCH   2  10
TORSDOF 1
