REMARK  4 active torsions:
REMARK  status: ('A' for Active; 'I' for Inactive)
REMARK    1  A    between atoms: C_1  and  C_3 
REMARK    2  A    between atoms: C_2  and  N_4 
REMARK    3  A    between atoms: C_3  and  O_5 
REMARK    4  A    between atoms: O_5  and  C_16 
ROOT
HETATM    1  C   LIG     1      -2.008  -0.205  -0.407  1.00  0.00     0.300 C 
HETATM    2  O   LIG     1      -2.553   0.705   0.191  1.00  0.00    -0.259 OA
ENDROOT
BRANCH   1   3
HETATM    3  C   LIG     1      -0.608  -0.637  -0.127  1.00  0.00     0.061 A 
HETATM    4  C   LIG     1      -0.106  -1.954  -0.295  1.00  0.00     0.027 A 
HETATM    5  C   LIG     1       1.218  -2.170   0.160  1.00  0.00     0.025 A 
HETATM    6  C   LIG     1       2.023  -1.152   0.683  1.00  0.00     0.002 A 
HETATM    7  C   LIG     1       1.532   0.137   0.784  1.00  0.00     0.001 A 
HETATM    8  C   LIG     1       0.219   0.388   0.398  1.00  0.00     0.019 A 
BRANCH   4   9
HETATM    9  N   LIG     1      -0.850  -3.019  -0.882  1.00  0.00    -0.279 NA
HETATM   10  C   LIG     1      -0.028  -4.043  -1.591  1.00  0.00     0.122 C 
HETATM   11  C   LIG     1      -0.887  -5.160  -2.199  1.00  0.00     0.182 C 
HETATM   12  O   LIG     1      -1.709  -5.773  -1.197  1.00  0.00    -0.389 OA
HETATM   13  C   LIG     1      -2.594  -4.791  -0.640  1.00  0.00     0.182 C 
HETATM   14  C   LIG     1      -1.820  -3.649   0.055  1.00  0.00     0.122 C 
ENDBRANCH   4   9
ENDBRANCH   1   3
BRANCH   1  15
HETATM   15  O   LIG     1      -2.551  -0.931  -1.460  1.00  0.00    -0.268 OA
BRANCH  15  16
HETATM   16  C   LIG     1      -3.944  -0.895  -1.667  1.00  0.00     0.163 A 
HETATM   17  C   LIG     1      -4.400  -0.934  -2.985  1.00  0.00     0.195 A 
HETATM   18  C   LIG     1      -5.764  -1.012  -3.254  1.00  0.00     0.199 A 
HETATM   19  F   LIG     1      -3.526  -0.934  -4.002  1.00  0.00    -0.200 F 
HETATM   20  C   LIG     1      -6.678  -1.057  -2.209  1.00  0.00     0.199 A 
HETATM   21  F   LIG     1      -6.198  -1.066  -4.521  1.00  0.00    -0.199 F 
HETATM   22  C   LIG     1      -6.229  -1.040  -0.895  1.00  0.00     0.199 A 
HETATM   23  F   LIG     1      -7.990  -1.151  -2.467  1.00  0.00    -0.199 F 
HETATM   24  C   LIG     1      -4.866  -0.980  -0.622  1.00  0.00     0.195 A 
HETATM   25  F   LIG     1      -7.109  -1.120   0.113  1.00  0.00    -0.199 F 
HETATM   26  F   LIG     1      -4.459  -1.087   0.650  1.00  0.00    -0.200 F 
ENDBRANCH  15  16
ENDBRANCH   1  15
TORSDOF 4
