REMARK  1 active torsions:
REMARK  status: ('A' for Active; 'I' for Inactive)
REMARK    1  A    between atoms: C_1  and  C_3 
ROOT
HETATM    1  C   LIG     1       2.369  -0.793  -0.029  1.00  0.00     0.029 A 
HETATM    2  C   LIG     1       1.223  -1.486  -0.052  1.00  0.00     0.028 A 
HETATM    3  O   LIG     1       1.145   1.399  -0.039  1.00  0.00    -0.346 OA
HETATM    4  C   LIG     1      -0.025  -0.737  -0.023  1.00  0.00    -0.002 A 
HETATM    5  C   LIG     1       2.403   0.708   0.023  1.00  0.00     0.219 A 
HETATM    6  C   LIG     1      -0.002   0.659  -0.017  1.00  0.00     0.079 A 
HETATM    7  C   LIG     1      -1.257  -1.404  -0.009  1.00  0.00     0.014 A 
HETATM    8  C   LIG     1      -1.196   1.382  -0.001  1.00  0.00     0.037 A 
HETATM    9  C   LIG     1      -2.450  -0.679   0.011  1.00  0.00     0.001 A 
HETATM   10  C   LIG     1      -2.420   0.714   0.015  1.00  0.00     0.003 A 
ENDROOT
BRANCH   1  11
HETATM   11  C   LIG     1       3.720  -1.451  -0.045  1.00  0.00     0.250 C 
HETATM   12  O   LIG     1       4.711  -0.722   0.014  1.00  0.00    -0.274 OA
HETATM   13 CL   LIG     1       3.833  -3.196  -0.144  1.00  0.00    -0.039 Cl
ENDBRANCH   1  11
TORSDOF 1
