REMARK  1 active torsions:
REMARK  status: ('A' for Active; 'I' for Inactive)
REMARK    1  A    between atoms: C_9  and  C_11 
ROOT
HETATM    1  C   LIG     1       2.501  -0.646  -0.202  1.00  0.00     0.001 A 
HETATM    2  C   LIG     1       2.471   0.747  -0.217  1.00  0.00     0.003 A 
HETATM    3  C   LIG     1       1.250   1.416  -0.143  1.00  0.00     0.037 A 
HETATM    4  C   LIG     1       1.312  -1.369  -0.106  1.00  0.00     0.010 A 
HETATM    5  C   LIG     1       0.081  -0.704  -0.022  1.00  0.00    -0.024 A 
HETATM    6  C   LIG     1       0.060   0.694  -0.060  1.00  0.00     0.075 A 
HETATM    7  O   LIG     1      -1.089   1.433   0.023  1.00  0.00    -0.350 OA
HETATM    8  C   LIG     1      -2.284   0.704  -0.262  1.00  0.00     0.189 C 
HETATM    9  C   LIG     1      -2.374  -0.613   0.497  1.00  0.00     0.101 C 
HETATM   10  C   LIG     1      -1.193  -1.494   0.090  1.00  0.00     0.057 C 
ENDROOT
BRANCH   9  11
HETATM   11  C   LIG     1      -2.431  -0.394   2.008  1.00  0.00     0.225 C 
HETATM   12 CL   LIG     1      -3.869   0.463   2.512  1.00  0.00    -0.043 Cl
HETATM   13  O   LIG     1      -1.606  -0.871   2.782  1.00  0.00    -0.279 OA
ENDBRANCH   9  11
TORSDOF 1
