REMARK  1 active torsions:
REMARK  status: ('A' for Active; 'I' for Inactive)
REMARK    1  A    between atoms: C_1  and  C_11 
ROOT
HETATM    1  C   LIG     1       1.536   1.230   0.007  1.00  0.00     0.072 A 
HETATM    2  C   LIG     1       2.286   0.033  -0.044  1.00  0.00     0.126 A 
HETATM    3  N   LIG     1       1.537  -1.066  -0.063  1.00  0.00    -0.304 N 
ATOM      4  HN  LIG     1       1.854  -2.035  -0.098  1.00  0.00     0.186 HD
HETATM    5  C   LIG     1       0.220   0.791   0.018  1.00  0.00     0.072 A 
HETATM    6  N   LIG     1       0.262  -0.614  -0.025  1.00  0.00    -0.267 N 
HETATM    7  C   LIG     1      -0.892  -1.399  -0.027  1.00  0.00     0.116 A 
HETATM    8  C   LIG     1      -2.104  -0.825   0.013  1.00  0.00     0.019 A 
HETATM    9  C   LIG     1      -2.182   0.622   0.056  1.00  0.00     0.004 A 
HETATM   10  C   LIG     1      -1.078   1.394   0.058  1.00  0.00     0.032 A 
ENDROOT
BRANCH   1  11
HETATM   11  C   LIG     1       2.125   2.568   0.038  1.00  0.00     0.256 C 
HETATM   12 CL   LIG     1       1.077   3.967   0.118  1.00  0.00    -0.038 Cl
HETATM   13  O   LIG     1       3.349   2.676   0.008  1.00  0.00    -0.274 OA
ENDBRANCH   1  11
TORSDOF 1
