REMARK  1 active torsions:
REMARK  status: ('A' for Active; 'I' for Inactive)
REMARK    1  A    between atoms: C_3  and  C_9 
ROOT
HETATM    1  O   LIG     1      -0.291  -1.035  -0.039  1.00  0.00    -0.300 OA
HETATM    2  C   LIG     1       0.985  -0.545  -0.015  1.00  0.00     0.083 A 
HETATM    3  C   LIG     1       0.915   0.833   0.070  1.00  0.00     0.126 A 
HETATM    4  N   LIG     1      -0.420   1.213   0.101  1.00  0.00    -0.335 N 
ATOM      5  HN  LIG     1      -0.801   2.157   0.161  1.00  0.00     0.168 HD
HETATM    6  C   LIG     1      -1.082   0.077   0.035  1.00  0.00     0.120 A 
HETATM    7  C   LIG     1      -2.541  -0.144   0.026  1.00  0.00     0.098 C 
HETATM    8  C   LIG     1       2.084  -1.526  -0.081  1.00  0.00     0.079 C 
ENDROOT
BRANCH   3   9
HETATM    9  C   LIG     1       2.048   1.762   0.120  1.00  0.00     0.271 C 
HETATM   10 CL   LIG     1       1.661   3.471   0.225  1.00  0.00    -0.037 Cl
HETATM   11  O   LIG     1       3.202   1.337   0.087  1.00  0.00    -0.272 OA
ENDBRANCH   3   9
TORSDOF 1
