REMARK  2 active torsions:
REMARK  status: ('A' for Active; 'I' for Inactive)
REMARK    1  A    between atoms: C_3  and  C_7 
REMARK    2  A    between atoms: C_6  and  C_10 
ROOT
HETATM    1  O   LIG     1      -0.196  -1.208   0.106  1.00  0.00    -0.295 OA
HETATM    2  C   LIG     1       1.006  -0.560   0.061  1.00  0.00     0.083 A 
HETATM    3  C   LIG     1       0.759   0.788  -0.114  1.00  0.00     0.127 A 
HETATM    4  N   LIG     1      -0.613   0.988  -0.184  1.00  0.00    -0.330 N 
ATOM      5  HN  LIG     1      -1.110   1.869  -0.312  1.00  0.00     0.168 HD
HETATM    6  C   LIG     1      -1.130  -0.219  -0.047  1.00  0.00     0.158 A 
HETATM    7  C   LIG     1       2.218  -1.388   0.200  1.00  0.00     0.079 C 
ENDROOT
BRANCH   6   8
HETATM    8  C   LIG     1      -2.531  -0.632  -0.040  1.00  0.00     0.015 A 
HETATM    9  C   LIG     1      -2.905  -1.975   0.123  1.00  0.00     0.016 A 
HETATM   10  C   LIG     1      -4.253  -2.347   0.125  1.00  0.00     0.001 A 
HETATM   11  C   LIG     1      -5.243  -1.381  -0.035  1.00  0.00     0.000 A 
HETATM   12  C   LIG     1      -4.889  -0.043  -0.197  1.00  0.00     0.001 A 
HETATM   13  C   LIG     1      -3.542   0.329  -0.199  1.00  0.00     0.016 A 
ENDBRANCH   6   8
BRANCH   3  14
HETATM   14  C   LIG     1       1.764   1.850  -0.213  1.00  0.00     0.271 C 
HETATM   15 CL   LIG     1       1.163   3.481  -0.457  1.00  0.00    -0.037 Cl
HETATM   16  O   LIG     1       2.962   1.583  -0.125  1.00  0.00    -0.272 OA
ENDBRANCH   3  14
TORSDOF 2
