REMARK  1 active torsions:
REMARK  status: ('A' for Active; 'I' for Inactive)
REMARK    1  A    between atoms: C_1  and  C_12 
ROOT
HETATM    1  C   LIG     1       0.505   1.425  -0.021  1.00  0.00     0.060 A 
HETATM    2  C   LIG     1       1.853   1.052   0.096  1.00  0.00     0.019 A 
HETATM    3  C   LIG     1       2.215  -0.305   0.135  1.00  0.00     0.002 A 
HETATM    4  C   LIG     1       1.241  -1.302   0.055  1.00  0.00     0.010 A 
HETATM    5  C   LIG     1      -0.447   0.421  -0.094  1.00  0.00     0.091 A 
HETATM    6  C   LIG     1      -0.086  -0.919  -0.056  1.00  0.00    -0.021 A 
HETATM    7  C   LIG     1      -1.288  -1.771  -0.214  1.00  0.00     0.079 C 
HETATM    8  C   LIG     1      -2.395  -0.704  -0.068  1.00  0.00     0.064 C 
HETATM    9  O   LIG     1      -1.795   0.607  -0.257  1.00  0.00    -0.339 OA
HETATM   10  C   LIG     1      -3.474  -0.878  -1.138  1.00  0.00     0.046 C 
HETATM   11  C   LIG     1      -3.032  -0.733   1.327  1.00  0.00     0.046 C 
ENDROOT
BRANCH   1  12
HETATM   12  C   LIG     1       0.113   2.856  -0.049  1.00  0.00     0.255 C 
HETATM   13  O   LIG     1      -0.848   3.210   0.630  1.00  0.00    -0.274 OA
HETATM   14 CL   LIG     1       1.079   3.954  -1.016  1.00  0.00    -0.038 Cl
ENDBRANCH   1  12
TORSDOF 1
