REMARK  1 active torsions:
REMARK  status: ('A' for Active; 'I' for Inactive)
REMARK    1  A    between atoms: C_6  and  C_8 
ROOT
HETATM    1  O   LIG     1       0.862   0.685  -0.212  1.00  0.00    -0.233 OA
HETATM    2  N   LIG     1       0.893  -0.697  -0.194  1.00  0.00    -0.265 N 
ATOM      3  HN  LIG     1       1.714  -1.295  -0.288  1.00  0.00     0.194 HD
HETATM    4  C   LIG     1      -0.375  -1.089  -0.028  1.00  0.00     0.031 A 
HETATM    5  C   LIG     1      -1.243   0.020   0.066  1.00  0.00     0.071 A 
HETATM    6  C   LIG     1      -0.421   1.119  -0.056  1.00  0.00     0.162 A 
HETATM    7  C   LIG     1      -0.707  -2.530   0.038  1.00  0.00     0.070 C 
ENDROOT
BRANCH   6   8
HETATM    8  C   LIG     1      -0.711   2.535  -0.041  1.00  0.00     0.277 C 
HETATM    9 CL   LIG     1       0.676   3.585  -0.235  1.00  0.00    -0.036 Cl
HETATM   10  O   LIG     1      -1.858   2.953   0.100  1.00  0.00    -0.272 OA
ENDBRANCH   6   8
TORSDOF 1
