REMARK  1 active torsions:
REMARK  status: ('A' for Active; 'I' for Inactive)
REMARK    1  A    between atoms: C_9  and  C_10 
ROOT
HETATM    1  C   LIG     1      -2.211  -0.641  -0.063  1.00  0.00     0.001 A 
HETATM    2  C   LIG     1      -2.143   0.751  -0.010  1.00  0.00     0.003 A 
HETATM    3  C   LIG     1      -0.911   1.405   0.038  1.00  0.00     0.038 A 
HETATM    4  C   LIG     1      -1.046  -1.424  -0.070  1.00  0.00     0.015 A 
HETATM    5  C   LIG     1       0.215  -0.792  -0.022  1.00  0.00     0.015 A 
HETATM    6  C   LIG     1       0.227   0.601   0.030  1.00  0.00     0.086 A 
HETATM    7  O   LIG     1       1.502   1.067   0.073  1.00  0.00    -0.321 OA
HETATM    8  C   LIG     1       2.316  -0.014   0.049  1.00  0.00     0.160 A 
HETATM    9  C   LIG     1       1.593  -1.193  -0.010  1.00  0.00     0.061 A 
ENDROOT
BRANCH   9  10
HETATM   10  C   LIG     1       2.241  -2.503  -0.048  1.00  0.00     0.255 C 
HETATM   11 CL   LIG     1       1.236  -3.934  -0.133  1.00  0.00    -0.038 Cl
HETATM   12  O   LIG     1       3.469  -2.570  -0.019  1.00  0.00    -0.274 OA
ENDBRANCH   9  10
TORSDOF 1
