REMARK  1 active torsions:
REMARK  status: ('A' for Active; 'I' for Inactive)
REMARK    1  A    between atoms: C_2  and  C_6 
ROOT
HETATM    1  S   LIG     1       1.351  -0.772   0.183  1.00  0.00    -0.096 SA
HETATM    2  C   LIG     1      -0.310  -1.192   0.057  1.00  0.00     0.068 A 
HETATM    3  C   LIG     1      -1.096  -0.054  -0.060  1.00  0.00     0.043 A 
HETATM    4  C   LIG     1      -0.326   1.133  -0.045  1.00  0.00     0.018 A 
HETATM    5  C   LIG     1       1.019   0.903   0.082  1.00  0.00     0.069 A 
HETATM    6 BR   LIG     1      -1.115   2.839  -0.187  1.00  0.00    -0.051 Br
ENDROOT
BRANCH   2   7
HETATM    7  C   LIG     1      -0.797  -2.574   0.075  1.00  0.00     0.259 C 
HETATM    8  O   LIG     1      -1.998  -2.816  -0.023  1.00  0.00    -0.273 OA
HETATM    9 CL   LIG     1       0.398  -3.847   0.240  1.00  0.00    -0.038 Cl
ENDBRANCH   2   7
TORSDOF 1
