REMARK  2 active torsions:
REMARK  status: ('A' for Active; 'I' for Inactive)
REMARK    1  A    between atoms: C_2  and  C_14 
REMARK    2  A    between atoms: C_6  and  C_8 
ROOT
HETATM    1  S   LIG     1       0.346  -2.023   0.024  1.00  0.00    -0.065 SA
HETATM    2  C   LIG     1       1.367  -0.647   0.082  1.00  0.00     0.091 A 
HETATM    3  C   LIG     1       0.581   0.497   0.036  1.00  0.00     0.028 A 
HETATM    4  N   LIG     1      -0.786   0.269  -0.059  1.00  0.00    -0.352 N 
ATOM      5  HN  LIG     1      -1.492   1.002  -0.127  1.00  0.00     0.166 HD
HETATM    6  C   LIG     1      -1.048  -1.022  -0.049  1.00  0.00     0.085 A 
HETATM    7  C   LIG     1       1.049   1.912   0.070  1.00  0.00     0.070 C 
ENDROOT
BRANCH   6   8
HETATM    8  C   LIG     1      -2.402  -1.599  -0.137  1.00  0.00    -0.002 A 
HETATM    9  C   LIG     1      -2.728  -2.853   0.409  1.00  0.00     0.016 A 
HETATM   10  C   LIG     1      -4.025  -3.368   0.308  1.00  0.00     0.024 A 
HETATM   11  C   LIG     1      -5.014  -2.633  -0.340  1.00  0.00     0.034 A 
HETATM   12  C   LIG     1      -4.718  -1.386  -0.881  1.00  0.00     0.024 A 
HETATM   13 CL   LIG     1      -6.607  -3.269  -0.463  1.00  0.00    -0.084 Cl
HETATM   14  C   LIG     1      -3.421  -0.871  -0.775  1.00  0.00     0.016 A 
ENDBRANCH   6   8
BRANCH   2  15
HETATM   15  C   LIG     1       2.822  -0.730   0.165  1.00  0.00     0.261 C 
HETATM   16 CL   LIG     1       3.530  -2.337   0.223  1.00  0.00    -0.038 Cl
HETATM   17  O   LIG     1       3.520   0.282   0.192  1.00  0.00    -0.273 OA
ENDBRANCH   2  15
TORSDOF 2
