REMARK  2 active torsions:
REMARK  status: ('A' for Active; 'I' for Inactive)
REMARK    1  A    between atoms: C_4  and  C_7 
REMARK    2  A    between atoms: C_11  and  C_13 
ROOT
HETATM    1  C   LIG     1       2.817   0.020  -0.093  1.00  0.00     0.111 A 
HETATM    2  O   LIG     1       3.422   1.242  -0.109  1.00  0.00    -0.237 OA
HETATM    3  N   LIG     1       4.794   1.093  -0.150  1.00  0.00    -0.256 N 
ATOM      4  HN  LIG     1       5.491   1.837  -0.170  1.00  0.00     0.195 HD
HETATM    5  C   LIG     1       5.024  -0.229  -0.158  1.00  0.00     0.119 A 
HETATM    6  C   LIG     1       3.797  -0.945  -0.122  1.00  0.00     0.076 A 
ENDROOT
BRANCH   1   7
HETATM    7  C   LIG     1       1.359   0.015  -0.050  1.00  0.00    -0.000 A 
HETATM    8  C   LIG     1       0.629   1.214  -0.023  1.00  0.00     0.014 A 
HETATM    9  C   LIG     1      -0.768   1.205   0.017  1.00  0.00     0.001 A 
HETATM   10  C   LIG     1      -1.457  -0.004   0.030  1.00  0.00     0.000 A 
HETATM   11  C   LIG     1      -0.751  -1.204   0.003  1.00  0.00     0.001 A 
HETATM   12  C   LIG     1       0.647  -1.195  -0.037  1.00  0.00     0.014 A 
ENDBRANCH   1   7
BRANCH   5  13
HETATM   13  C   LIG     1       6.378  -0.799  -0.197  1.00  0.00     0.270 C 
HETATM   14 CL   LIG     1       7.736   0.315  -0.246  1.00  0.00    -0.037 Cl
HETATM   15  O   LIG     1       6.520  -2.021  -0.196  1.00  0.00    -0.272 OA
ENDBRANCH   5  13
TORSDOF 2
