REMARK  1 active torsions:
REMARK  status: ('A' for Active; 'I' for Inactive)
REMARK    1  A    between atoms: C_2  and  C_10 
ROOT
HETATM    1  O   LIG     1      -1.555  -1.043   0.081  1.00  0.00    -0.305 OA
HETATM    2  C   LIG     1      -2.385   0.048   0.034  1.00  0.00     0.139 A 
HETATM    3  C   LIG     1      -1.621   1.201  -0.029  1.00  0.00     0.056 A 
HETATM    4  C   LIG     1      -0.276  -0.585   0.049  1.00  0.00     0.086 A 
HETATM    5  C   LIG     1      -0.259   0.803  -0.019  1.00  0.00     0.002 A 
HETATM    6  C   LIG     1       0.982   1.462  -0.061  1.00  0.00     0.033 A 
HETATM    7  C   LIG     1       2.147   0.684  -0.031  1.00  0.00     0.011 A 
HETATM    8  C   LIG     1       2.095  -0.711   0.037  1.00  0.00     0.022 A 
HETATM    9  C   LIG     1       0.867  -1.381   0.079  1.00  0.00     0.039 A 
HETATM   10 BR   LIG     1       3.832   1.546  -0.085  1.00  0.00    -0.051 Br
ENDROOT
BRANCH   2  11
HETATM   11  C   LIG     1      -3.827  -0.124   0.053  1.00  0.00     0.275 C 
HETATM   12  O   LIG     1      -4.590   0.838   0.010  1.00  0.00    -0.272 OA
HETATM   13 CL   LIG     1      -4.376  -1.785   0.141  1.00  0.00    -0.036 Cl
ENDBRANCH   2  11
TORSDOF 1
