REMARK  1 active torsions:
REMARK  status: ('A' for Active; 'I' for Inactive)
REMARK    1  A    between atoms: C_9  and  C_11 
ROOT
HETATM    1  C   LIG     1      -2.462   0.654  -0.343  1.00  0.00     0.031 C 
HETATM    2  C   LIG     1      -2.353  -0.707   0.323  1.00  0.00     0.176 C 
HETATM    3  O   LIG     1      -1.165  -1.401  -0.069  1.00  0.00    -0.351 OA
HETATM    4  C   LIG     1      -1.296   1.519   0.111  1.00  0.00     0.043 C 
HETATM    5  C   LIG     1      -0.009   0.744   0.055  1.00  0.00    -0.024 A 
HETATM    6  C   LIG     1      -0.020  -0.652  -0.019  1.00  0.00     0.075 A 
HETATM    7  C   LIG     1       1.177  -1.362  -0.085  1.00  0.00     0.038 A 
HETATM    8  C   LIG     1       2.397  -0.685  -0.047  1.00  0.00     0.019 A 
HETATM    9  C   LIG     1       2.431   0.714   0.054  1.00  0.00     0.027 A 
HETATM   10  C   LIG     1       1.221   1.422   0.106  1.00  0.00     0.026 A 
ENDROOT
BRANCH   9  11
HETATM   11  C   LIG     1       3.762   1.405   0.099  1.00  0.00     0.252 C 
HETATM   12 CL   LIG     1       3.837   3.150   0.234  1.00  0.00    -0.038 Cl
HETATM   13  O   LIG     1       4.768   0.698   0.039  1.00  0.00    -0.274 OA
ENDBRANCH   9  11
TORSDOF 1
