REMARK  1 active torsions:
REMARK  status: ('A' for Active; 'I' for Inactive)
REMARK    1  A    between atoms: C_1  and  C_8 
ROOT
HETATM    1  C   LIG     1      -0.270   1.134   0.007  1.00  0.00     0.119 A 
HETATM    2  C   LIG     1      -0.388  -1.090  -0.033  1.00  0.00     0.135 A 
HETATM    3  C   LIG     1      -1.170   0.038   0.081  1.00  0.00     0.079 A 
HETATM    4  N   LIG     1       0.987   0.691  -0.150  1.00  0.00    -0.256 N 
ATOM      5  HN  LIG     1       1.830   1.258  -0.235  1.00  0.00     0.195 HD
HETATM    6  O   LIG     1       0.909  -0.686  -0.174  1.00  0.00    -0.235 OA
HETATM    7  C   LIG     1      -0.781  -2.464  -0.016  1.00  0.00     0.110 A 
HETATM    8  C   LIG     1       0.019  -3.590  -0.128  1.00  0.00     0.042 A 
HETATM    9  O   LIG     1      -2.085  -2.867   0.123  1.00  0.00    -0.320 OA
HETATM   10  C   LIG     1      -0.832  -4.719  -0.058  1.00  0.00     0.027 A 
HETATM   11  C   LIG     1      -2.103  -4.224   0.095  1.00  0.00     0.142 A 
ENDROOT
BRANCH   1  12
HETATM   12  C   LIG     1      -0.601   2.565   0.083  1.00  0.00     0.270 C 
HETATM   13  O   LIG     1      -1.776   2.911   0.206  1.00  0.00    -0.272 OA
HETATM   14 CL   LIG     1       0.727   3.714   0.002  1.00  0.00    -0.037 Cl
ENDBRANCH   1  12
TORSDOF 1
