REMARK  2 active torsions:
REMARK  status: ('A' for Active; 'I' for Inactive)
REMARK    1  A    between atoms: C_1  and  C_6 
REMARK    2  A    between atoms: C_4  and  C_7 
ROOT
HETATM    1  C   LIG     1       2.107  -1.467  -0.012  1.00  0.00    -0.001 A 
HETATM    2  C   LIG     1       3.037  -3.733  -0.173  1.00  0.00     0.027 A 
HETATM    3  C   LIG     1       1.941  -2.868  -0.023  1.00  0.00     0.030 A 
HETATM    4  C   LIG     1       3.408  -0.957  -0.157  1.00  0.00     0.014 A 
HETATM    5  C   LIG     1       4.320  -3.189  -0.318  1.00  0.00     0.016 A 
HETATM    6  C   LIG     1       4.504  -1.809  -0.309  1.00  0.00     0.002 A 
ENDROOT
BRANCH   1   7
HETATM    7  C   LIG     1       0.913  -0.607   0.147  1.00  0.00     0.084 A 
HETATM    8  N   LIG     1      -0.316  -1.073   0.282  1.00  0.00    -0.359 N 
HETATM    9  C   LIG     1      -1.218  -0.035   0.409  1.00  0.00     0.096 A 
ATOM     10  HN  LIG     1      -0.564  -2.062   0.291  1.00  0.00     0.166 HD
HETATM   11  C   LIG     1      -0.675   1.229   0.372  1.00  0.00     0.069 A 
HETATM   12  S   LIG     1       1.018   1.118   0.171  1.00  0.00    -0.082 SA
ENDBRANCH   1   7
BRANCH   2  13
HETATM   13  C   LIG     1       2.882  -5.226  -0.181  1.00  0.00     0.252 C 
HETATM   14  O   LIG     1       3.907  -5.896  -0.310  1.00  0.00    -0.274 OA
HETATM   15 CL   LIG     1       1.295  -5.946  -0.012  1.00  0.00    -0.038 Cl
ENDBRANCH   2  13
TORSDOF 2
