REMARK  2 active torsions:
REMARK  status: ('A' for Active; 'I' for Inactive)
REMARK    1  A    between atoms: C_1  and  C_9 
REMARK    2  A    between atoms: C_11  and  C_15 
ROOT
HETATM    1  C   LIG     1      -0.392  -2.667  -0.054  1.00  0.00     0.011 A 
HETATM    2  C   LIG     1       0.511  -3.504   0.625  1.00  0.00     0.031 A 
HETATM    3  C   LIG     1       0.371  -4.900   0.576  1.00  0.00     0.027 A 
HETATM    4  C   LIG     1      -0.683  -5.455  -0.165  1.00  0.00     0.016 A 
HETATM    5  C   LIG     1      -1.582  -4.633  -0.844  1.00  0.00     0.002 A 
HETATM    6  C   LIG     1      -1.438  -3.247  -0.787  1.00  0.00     0.015 A 
ENDROOT
BRANCH   1   7
HETATM    7  C   LIG     1      -0.237  -1.217   0.008  1.00  0.00     0.137 A 
HETATM    8  N   LIG     1       0.791  -0.617   0.706  1.00  0.00    -0.323 N 
HETATM    9  C   LIG     1       0.568   0.659   0.498  1.00  0.00     0.144 A 
ATOM     10  HN  LIG     1       1.536  -1.055   1.247  1.00  0.00     0.169 HD
HETATM   11  O   LIG     1      -0.527   0.898  -0.275  1.00  0.00    -0.223 OA
HETATM   12  C   LIG     1       1.316   1.838   0.964  1.00  0.00     0.100 C 
HETATM   13  N   LIG     1      -1.060  -0.347  -0.601  1.00  0.00    -0.242 N 
ATOM     14  HN  LIG     1      -1.882  -0.550  -1.169  1.00  0.00     0.196 HD
ENDBRANCH   1   7
BRANCH   3  15
HETATM   15  C   LIG     1       1.314  -5.820   1.294  1.00  0.00     0.252 C 
HETATM   16  O   LIG     1       1.107  -7.029   1.189  1.00  0.00    -0.274 OA
HETATM   17 CL   LIG     1       2.638  -5.162   2.232  1.00  0.00    -0.038 Cl
ENDBRANCH   3  15
TORSDOF 2
