REMARK  2 active torsions:
REMARK  status: ('A' for Active; 'I' for Inactive)
REMARK    1  A    between atoms: C_2  and  C_13 
REMARK    2  A    between atoms: C_5  and  C_7 
ROOT
HETATM    1  C   LIG     1      -0.768   1.171  -0.080  1.00  0.00     0.017 A 
HETATM    2  C   LIG     1      -1.481  -0.031  -0.054  1.00  0.00     0.026 A 
HETATM    3  C   LIG     1      -0.768  -1.237  -0.027  1.00  0.00     0.017 A 
HETATM    4  C   LIG     1       0.633  -1.241  -0.032  1.00  0.00     0.015 A 
HETATM    5  C   LIG     1       1.363  -0.043  -0.064  1.00  0.00    -0.002 A 
HETATM    6  C   LIG     1       0.635   1.160  -0.085  1.00  0.00     0.015 A 
ENDROOT
BRANCH   5   7
HETATM    7  C   LIG     1       2.842   0.011  -0.079  1.00  0.00     0.084 A 
HETATM    8  N   LIG     1       3.539   1.134  -0.104  1.00  0.00    -0.359 N 
HETATM    9  C   LIG     1       4.893   0.863  -0.116  1.00  0.00     0.096 A 
ATOM     10  HN  LIG     1       3.133   2.070  -0.113  1.00  0.00     0.166 HD
HETATM   11  C   LIG     1       5.231  -0.470  -0.100  1.00  0.00     0.069 A 
HETATM   12  S   LIG     1       3.812  -1.420  -0.070  1.00  0.00    -0.082 SA
ENDBRANCH   5   7
BRANCH   2  13
HETATM   13  C   LIG     1      -2.981  -0.076  -0.059  1.00  0.00     0.252 C 
HETATM   14 CL   LIG     1      -3.899   1.414  -0.091  1.00  0.00    -0.038 Cl
HETATM   15  O   LIG     1      -3.511  -1.187  -0.043  1.00  0.00    -0.274 OA
ENDBRANCH   2  13
TORSDOF 2
