REMARK  2 active torsions:
REMARK  status: ('A' for Active; 'I' for Inactive)
REMARK    1  A    between atoms: C_3  and  C_10 
REMARK    2  A    between atoms: C_10  and  C_11 
ROOT
HETATM    1  O   LIG     1       1.371   1.243   0.037  1.00  0.00    -0.321 OA
HETATM    2  C   LIG     1       1.986   0.037   0.102  1.00  0.00     0.151 A 
HETATM    3  C   LIG     1       1.070  -0.996   0.022  1.00  0.00    -0.015 A 
HETATM    4  C   LIG     1       0.038   1.005  -0.087  1.00  0.00     0.085 A 
HETATM    5  C   LIG     1      -0.208  -0.364  -0.101  1.00  0.00     0.006 A 
HETATM    6  C   LIG     1      -1.543  -0.795  -0.220  1.00  0.00     0.015 A 
HETATM    7  C   LIG     1      -2.560   0.167  -0.329  1.00  0.00     0.001 A 
HETATM    8  C   LIG     1      -2.265   1.532  -0.313  1.00  0.00     0.003 A 
HETATM    9  C   LIG     1      -0.948   1.984  -0.186  1.00  0.00     0.038 A 
ENDROOT
BRANCH   3  10
HETATM   10  C   LIG     1       1.372  -2.453   0.085  1.00  0.00     0.138 C 
BRANCH  10  11
HETATM   11  C   LIG     1       1.095  -3.164  -1.224  1.00  0.00     0.223 C 
HETATM   12  O   LIG     1       0.017  -3.715  -1.445  1.00  0.00    -0.280 OA
HETATM   13 CL   LIG     1       2.450  -3.119  -2.318  1.00  0.00    -0.043 Cl
ENDBRANCH  10  11
ENDBRANCH   3  10
TORSDOF 2
