REMARK  2 active torsions:
REMARK  status: ('A' for Active; 'I' for Inactive)
REMARK    1  A    between atoms: C_4  and  C_7 
REMARK    2  A    between atoms: C_11  and  C_14 
ROOT
HETATM    1  C   LIG     1       2.753   0.381  -0.231  1.00  0.00     0.063 A 
HETATM    2  N   LIG     1       3.682   1.400  -0.286  1.00  0.00    -0.295 N 
HETATM    3  N   LIG     1       4.951   0.974  -0.456  1.00  0.00    -0.294 N 
ATOM      4  HN  LIG     1       5.790   1.546  -0.554  1.00  0.00     0.187 HD
HETATM    5  C   LIG     1       4.869  -0.366  -0.468  1.00  0.00     0.112 A 
HETATM    6  C   LIG     1       3.518  -0.772  -0.329  1.00  0.00     0.068 A 
HETATM    7  C   LIG     1       3.476   2.823  -0.140  1.00  0.00     0.178 C 
ENDROOT
BRANCH   1   8
HETATM    8  C   LIG     1       1.295   0.504  -0.060  1.00  0.00    -0.008 A 
HETATM    9  C   LIG     1       0.589  -0.500   0.624  1.00  0.00     0.014 A 
HETATM   10  C   LIG     1      -0.799  -0.432   0.784  1.00  0.00     0.001 A 
HETATM   11  C   LIG     1      -1.507   0.649   0.271  1.00  0.00     0.000 A 
HETATM   12  C   LIG     1      -0.829   1.650  -0.417  1.00  0.00     0.001 A 
HETATM   13  C   LIG     1       0.557   1.569  -0.594  1.00  0.00     0.014 A 
ENDBRANCH   1   8
BRANCH   5  14
HETATM   14  C   LIG     1       6.043  -1.255  -0.603  1.00  0.00     0.270 C 
HETATM   15 CL   LIG     1       7.621  -0.495  -0.779  1.00  0.00    -0.037 Cl
HETATM   16  O   LIG     1       5.891  -2.474  -0.587  1.00  0.00    -0.272 OA
ENDBRANCH   5  14
TORSDOF 2
