REMARK  2 active torsions:
REMARK  status: ('A' for Active; 'I' for Inactive)
REMARK    1  A    between atoms: C_4  and  C_7 
REMARK    2  A    between atoms: C_11  and  C_13 
ROOT
HETATM    1  C   LIG     1       2.850   0.008  -0.278  1.00  0.00     0.060 A 
HETATM    2  N   LIG     1       3.423   1.221  -0.308  1.00  0.00    -0.298 N 
ATOM      3  HN  LIG     1       2.958   2.127  -0.246  1.00  0.00     0.187 HD
HETATM    4  N   LIG     1       4.741   0.989  -0.437  1.00  0.00    -0.291 N 
HETATM    5  C   LIG     1       5.068  -0.343  -0.488  1.00  0.00     0.114 A 
HETATM    6  C   LIG     1       3.849  -0.995  -0.394  1.00  0.00     0.068 A 
HETATM    7  C   LIG     1       5.638   2.122  -0.501  1.00  0.00     0.178 C 
ENDROOT
BRANCH   1   8
HETATM    8  C   LIG     1       1.398  -0.163  -0.138  1.00  0.00    -0.008 A 
HETATM    9  C   LIG     1       0.551   0.954  -0.070  1.00  0.00     0.014 A 
HETATM   10  C   LIG     1      -0.831   0.801   0.073  1.00  0.00     0.001 A 
HETATM   11  C   LIG     1      -1.388  -0.473   0.150  1.00  0.00     0.000 A 
HETATM   12  C   LIG     1      -0.564  -1.593   0.081  1.00  0.00     0.001 A 
HETATM   13  C   LIG     1       0.819  -1.440  -0.062  1.00  0.00     0.014 A 
ENDBRANCH   1   8
BRANCH   5  14
HETATM   14  C   LIG     1       6.417  -0.864  -0.610  1.00  0.00     0.270 C 
HETATM   15 CL   LIG     1       6.530  -2.610  -0.670  1.00  0.00    -0.037 Cl
HETATM   16  O   LIG     1       7.399  -0.129  -0.665  1.00  0.00    -0.272 OA
ENDBRANCH   5  14
TORSDOF 2
