REMARK  1 active torsions:
REMARK  status: ('A' for Active; 'I' for Inactive)
REMARK    1  A    between atoms: C_4  and  C_12 
ROOT
HETATM    1  N   LIG     1       1.327   0.405   0.023  1.00  0.00    -0.295 N 
HETATM    2  N   LIG     1       0.992  -0.903  -0.020  1.00  0.00    -0.294 N 
ATOM      3  HN  LIG     1       1.622  -1.705  -0.037  1.00  0.00     0.187 HD
HETATM    4  C   LIG     1      -0.352  -0.917  -0.035  1.00  0.00     0.112 A 
HETATM    5  C   LIG     1      -0.856   0.408   0.008  1.00  0.00     0.068 A 
HETATM    6  C   LIG     1       0.240   1.250   0.058  1.00  0.00     0.069 A 
HETATM    7  S   LIG     1       1.447   3.620   0.891  1.00  0.00    -0.100 SA
HETATM    8  C   LIG     1       0.239   2.691   0.104  1.00  0.00     0.033 A 
HETATM    9  C   LIG     1      -0.748   3.517  -0.409  1.00  0.00     0.021 A 
HETATM   10  C   LIG     1      -0.486   4.902  -0.190  1.00  0.00     0.008 A 
HETATM   11  C   LIG     1       0.688   5.097   0.497  1.00  0.00     0.050 A 
HETATM   12  C   LIG     1       2.732   0.736  -0.038  1.00  0.00     0.178 C 
ENDROOT
BRANCH   4  13
HETATM   13  C   LIG     1      -1.155  -2.158  -0.094  1.00  0.00     0.270 C 
HETATM   14 CL   LIG     1      -0.287  -3.687  -0.141  1.00  0.00    -0.037 Cl
HETATM   15  O   LIG     1      -2.382  -2.089  -0.112  1.00  0.00    -0.272 OA
ENDBRANCH   4  13
TORSDOF 1
