REMARK  2 active torsions:
REMARK  status: ('A' for Active; 'I' for Inactive)
REMARK    1  A    between atoms: C_2  and  C_13 
REMARK    2  A    between atoms: C_4  and  C_8 
ROOT
HETATM    1  N   LIG     1       0.953  -0.672  -0.003  1.00  0.00    -0.291 N 
HETATM    2  C   LIG     1      -0.282  -1.277  -0.013  1.00  0.00     0.114 A 
HETATM    3  C   LIG     1      -1.182  -0.223  -0.020  1.00  0.00     0.068 A 
HETATM    4  C   LIG     1      -0.407   0.957  -0.017  1.00  0.00     0.067 A 
HETATM    5  N   LIG     1       0.900   0.674  -0.007  1.00  0.00    -0.297 N 
ATOM      6  HN  LIG     1       1.681   1.330  -0.003  1.00  0.00     0.187 HD
HETATM    7  C   LIG     1       2.250  -1.314   0.001  1.00  0.00     0.178 C 
ENDROOT
BRANCH   4   8
HETATM    8  C   LIG     1      -0.924   2.365  -0.023  1.00  0.00     0.033 A 
HETATM    9  S   LIG     1      -2.582   2.783  -0.032  1.00  0.00    -0.100 SA
HETATM   10  C   LIG     1      -2.229   4.456  -0.029  1.00  0.00     0.050 A 
HETATM   11  C   LIG     1      -0.873   4.696  -0.025  1.00  0.00     0.008 A 
HETATM   12  C   LIG     1      -0.117   3.486  -0.022  1.00  0.00     0.021 A 
ENDBRANCH   4   8
BRANCH   2  13
HETATM   13  C   LIG     1      -0.502  -2.712  -0.014  1.00  0.00     0.270 C 
HETATM   14  O   LIG     1       0.426  -3.514   0.027  1.00  0.00    -0.272 OA
HETATM   15 CL   LIG     1      -2.182  -3.200  -0.083  1.00  0.00    -0.037 Cl
ENDBRANCH   2  13
TORSDOF 2
