REMARK  2 active torsions:
REMARK  status: ('A' for Active; 'I' for Inactive)
REMARK    1  A    between atoms: C_4  and  C_6 
REMARK    2  A    between atoms: C_10  and  C_12 
ROOT
HETATM    1  C   LIG     1       2.100   1.502  -0.059  1.00  0.00    -0.025 A 
HETATM    2  C   LIG     1       2.026   2.899   0.033  1.00  0.00     0.012 A 
HETATM    3  C   LIG     1       3.178   3.683  -0.053  1.00  0.00     0.002 A 
HETATM    4  C   LIG     1       4.424   3.083  -0.243  1.00  0.00     0.016 A 
HETATM    5  C   LIG     1       4.523   1.691  -0.349  1.00  0.00     0.027 A 
HETATM    6  C   LIG     1       3.357   0.910  -0.252  1.00  0.00     0.028 A 
ENDROOT
BRANCH   1   7
HETATM    7  C   LIG     1       0.897   0.669   0.029  1.00  0.00    -0.019 A 
HETATM    8  C   LIG     1       0.667  -0.597  -0.609  1.00  0.00     0.020 A 
HETATM    9  C   LIG     1      -0.571  -1.127  -0.318  1.00  0.00     0.050 A 
HETATM   10  S   LIG     1      -1.469  -0.118   0.724  1.00  0.00    -0.113 SA
HETATM   11  C   LIG     1      -0.198   1.026   0.796  1.00  0.00     0.061 A 
ENDBRANCH   1   7
BRANCH   5  12
HETATM   12  C   LIG     1       5.840   1.005  -0.565  1.00  0.00     0.252 C 
HETATM   13 CL   LIG     1       7.311   1.949  -0.678  1.00  0.00    -0.038 Cl
HETATM   14  O   LIG     1       5.827  -0.223  -0.660  1.00  0.00    -0.274 OA
ENDBRANCH   5  12
TORSDOF 2
