REMARK  1 active torsions:
REMARK  status: ('A' for Active; 'I' for Inactive)
REMARK    1  A    between atoms: C_4  and  C_8 
ROOT
HETATM    1  N   LIG     1       0.879   0.672   0.005  1.00  0.00    -0.307 N 
HETATM    2  N   LIG     1       0.943  -0.661   0.136  1.00  0.00    -0.295 N 
ATOM      3  HN  LIG     1       1.773  -1.229   0.307  1.00  0.00     0.187 HD
HETATM    4  C   LIG     1      -0.329  -1.087  -0.007  1.00  0.00     0.112 A 
HETATM    5  C   LIG     1      -1.192   0.028  -0.222  1.00  0.00     0.054 A 
HETATM    6  C   LIG     1      -0.382   1.137  -0.208  1.00  0.00     0.112 A 
HETATM    7  C   LIG     1       2.087   1.456   0.107  1.00  0.00     0.177 C 
ENDROOT
BRANCH   4   8
HETATM    8  C   LIG     1      -0.689  -2.526   0.066  1.00  0.00     0.270 C 
HETATM    9 CL   LIG     1      -2.400  -2.916  -0.130  1.00  0.00    -0.037 Cl
HETATM   10  O   LIG     1       0.160  -3.396   0.252  1.00  0.00    -0.272 OA
ENDBRANCH   4   8
TORSDOF 1
