REMARK  2 active torsions:
REMARK  status: ('A' for Active; 'I' for Inactive)
REMARK    1  A    between atoms: C_1  and  C_8 
REMARK    2  A    between atoms: C_12  and  C_15 
ROOT
HETATM    1  C   LIG     1      -0.454  -2.534  -0.073  1.00  0.00     0.018 A 
HETATM    2  C   LIG     1       0.359  -3.393   0.684  1.00  0.00     0.016 A 
HETATM    3  C   LIG     1       0.205  -4.776   0.605  1.00  0.00     0.002 A 
HETATM    4  C   LIG     1      -0.765  -5.321  -0.235  1.00  0.00     0.016 A 
HETATM    5  C   LIG     1      -1.593  -4.488  -1.002  1.00  0.00     0.027 A 
HETATM    6  C   LIG     1      -1.432  -3.095  -0.914  1.00  0.00     0.032 A 
ENDROOT
BRANCH   1   7
HETATM    7  C   LIG     1      -0.300  -1.084  -0.001  1.00  0.00     0.182 A 
HETATM    8  O   LIG     1       0.669  -0.605   0.838  1.00  0.00    -0.217 OA
HETATM    9  N   LIG     1       0.630   0.785   0.747  1.00  0.00    -0.247 N 
HETATM   10  C   LIG     1      -0.353   1.003  -0.135  1.00  0.00     0.100 A 
ATOM     11  HN  LIG     1       1.209   1.469   1.234  1.00  0.00     0.196 HD
HETATM   12  N   LIG     1      -0.956  -0.129  -0.625  1.00  0.00    -0.323 N 
HETATM   13  C   LIG     1      -0.765   2.361  -0.536  1.00  0.00     0.091 C 
ATOM     14  HN  LIG     1      -1.717  -0.209  -1.299  1.00  0.00     0.169 HD
ENDBRANCH   1   7
BRANCH   5  15
HETATM   15  C   LIG     1      -2.622  -5.121  -1.893  1.00  0.00     0.252 C 
HETATM   16 CL   LIG     1      -3.671  -4.118  -2.871  1.00  0.00    -0.038 Cl
HETATM   17  O   LIG     1      -2.682  -6.351  -1.896  1.00  0.00    -0.274 OA
ENDBRANCH   5  15
TORSDOF 2
