REMARK  4 active torsions:
REMARK  status: ('A' for Active; 'I' for Inactive)
REMARK    1  A    between atoms: C_5  and  N_8 
REMARK    2  A    between atoms: C_7  and  C_14 
REMARK    3  A    between atoms: C_14  and  O_15 
REMARK    4  A    between atoms: O_15  and  C_17 
ROOT
HETATM    1  C   LIG     1      -1.777  -0.727  -0.074  1.00  0.00     0.298 C 
HETATM    2  O   LIG     1      -1.793  -1.907  -0.371  1.00  0.00    -0.259 OA
ENDROOT
BRANCH   1   3
HETATM    3  C   LIG     1      -0.585   0.157  -0.111  1.00  0.00     0.044 A 
HETATM    4  C   LIG     1      -0.703   1.534  -0.214  1.00  0.00     0.034 A 
HETATM    5  C   LIG     1       0.469   2.261  -0.192  1.00  0.00     0.090 A 
HETATM    6  N   LIG     1       1.698   1.707  -0.063  1.00  0.00    -0.352 N 
HETATM    7  C   LIG     1       1.820   0.366   0.041  1.00  0.00     0.103 A 
ATOM      8  HN  LIG     1       2.528   2.300  -0.044  1.00  0.00     0.166 HD
HETATM    9  C   LIG     1       0.677  -0.431  -0.021  1.00  0.00     0.066 A 
BRANCH   7  10
HETATM   10  N   LIG     1       3.090  -0.198   0.192  1.00  0.00    -0.366 N 
HETATM   11  C   LIG     1       3.231  -1.422   0.999  1.00  0.00     0.134 C 
HETATM   12  C   LIG     1       3.104  -1.131   2.499  1.00  0.00     0.093 C 
HETATM   13  S   LIG     1       4.424  -0.013   3.094  1.00  0.00    -0.166 SA
HETATM   14  C   LIG     1       4.252   1.306   1.830  1.00  0.00     0.093 C 
HETATM   15  C   LIG     1       4.207   0.755   0.397  1.00  0.00     0.134 C 
ENDBRANCH   7  10
ENDBRANCH   1   3
BRANCH   1  16
HETATM   16  O   LIG     1      -2.826   0.028   0.438  1.00  0.00    -0.268 OA
BRANCH  16  17
HETATM   17  C   LIG     1      -4.125  -0.483   0.315  1.00  0.00     0.163 A 
HETATM   18  C   LIG     1      -4.627  -0.928  -0.906  1.00  0.00     0.195 A 
HETATM   19  C   LIG     1      -5.967  -1.281  -1.015  1.00  0.00     0.199 A 
HETATM   20  F   LIG     1      -3.845  -0.963  -1.995  1.00  0.00    -0.200 F 
HETATM   21  C   LIG     1      -6.805  -1.177   0.090  1.00  0.00     0.199 A 
HETATM   22  F   LIG     1      -6.455  -1.696  -2.191  1.00  0.00    -0.199 F 
HETATM   23  C   LIG     1      -6.307  -0.720   1.304  1.00  0.00     0.199 A 
HETATM   24  F   LIG     1      -8.099  -1.506  -0.021  1.00  0.00    -0.199 F 
HETATM   25  C   LIG     1      -4.968  -0.369   1.417  1.00  0.00     0.195 A 
HETATM   26  F   LIG     1      -7.121  -0.602   2.362  1.00  0.00    -0.199 F 
HETATM   27  F   LIG     1      -4.495   0.104   2.577  1.00  0.00    -0.200 F 
ENDBRANCH  16  17
ENDBRANCH   1  16
TORSDOF 4
