REMARK  2 active torsions:
REMARK  status: ('A' for Active; 'I' for Inactive)
REMARK    1  A    between atoms: C_2  and  C_7 
REMARK    2  A    between atoms: C_5  and  C_8 
ROOT
HETATM    1  C   LIG     1      -0.773   1.291  -0.081  1.00  0.00     0.017 A 
HETATM    2  C   LIG     1      -1.518   0.103  -0.096  1.00  0.00     0.017 A 
HETATM    3  C   LIG     1      -0.823  -1.116  -0.097  1.00  0.00     0.017 A 
HETATM    4  C   LIG     1       0.578  -1.152  -0.081  1.00  0.00     0.017 A 
HETATM    5  C   LIG     1       1.316   0.038  -0.065  1.00  0.00     0.026 A 
HETATM    6  C   LIG     1       0.627   1.260  -0.065  1.00  0.00     0.017 A 
ENDROOT
BRANCH   2   7
HETATM    7  C   LIG     1      -2.977   0.107  -0.106  1.00  0.00     0.182 A 
HETATM    8  N   LIG     1      -3.826  -0.898  -0.109  1.00  0.00    -0.323 N 
HETATM    9  C   LIG     1      -5.037  -0.253  -0.101  1.00  0.00     0.100 A 
ATOM     10  HN  LIG     1      -3.633  -1.900  -0.116  1.00  0.00     0.169 HD
HETATM   11  N   LIG     1      -4.967   1.084  -0.099  1.00  0.00    -0.247 N 
HETATM   12  C   LIG     1      -6.325  -0.970  -0.091  1.00  0.00     0.091 C 
HETATM   13  O   LIG     1      -3.594   1.328  -0.102  1.00  0.00    -0.217 OA
ATOM     14  HN  LIG     1      -5.731   1.759  -0.096  1.00  0.00     0.196 HD
ENDBRANCH   2   7
BRANCH   5  15
HETATM   15  C   LIG     1       2.816   0.050  -0.050  1.00  0.00     0.252 C 
HETATM   16 CL   LIG     1       3.701  -1.461  -0.042  1.00  0.00    -0.038 Cl
HETATM   17  O   LIG     1       3.369   1.150  -0.043  1.00  0.00    -0.274 OA
ENDBRANCH   5  15
TORSDOF 2
