REMARK  2 active torsions:
REMARK  status: ('A' for Active; 'I' for Inactive)
REMARK    1  A    between atoms: C_8  and  C_12 
REMARK    2  A    between atoms: C_11  and  C_12 
ROOT
HETATM    1  C   LIG     1       0.273   1.535  -0.113  1.00  0.00     0.040 A 
HETATM    2  C   LIG     1       0.881  -1.221   0.038  1.00  0.00     0.047 A 
HETATM    3  C   LIG     1      -0.716   0.577  -0.076  1.00  0.00     0.105 A 
HETATM    4  C   LIG     1      -0.420  -0.763  -0.005  1.00  0.00     0.105 A 
HETATM    5  O   LIG     1      -1.535  -1.541   0.014  1.00  0.00    -0.323 OA
HETATM    6  C   LIG     1      -2.568  -0.534  -0.033  1.00  0.00     0.352 A 
HETATM    7  O   LIG     1      -2.055   0.812  -0.107  1.00  0.00    -0.323 OA
HETATM    8  C   LIG     1       1.919  -0.275   0.005  1.00  0.00    -0.047 A 
HETATM    9  C   LIG     1       1.603   1.102  -0.073  1.00  0.00     0.010 A 
ENDROOT
BRANCH   8  10
HETATM   10  C   LIG     1       3.360  -0.728   0.030  1.00  0.00     0.135 C 
BRANCH  10  11
HETATM   11  C   LIG     1       4.114  -0.269   1.262  1.00  0.00     0.223 C 
HETATM   12  O   LIG     1       4.710   0.807   1.290  1.00  0.00    -0.280 OA
HETATM   13 CL   LIG     1       4.022  -1.409   2.575  1.00  0.00    -0.043 Cl
ENDBRANCH  10  11
ENDBRANCH   8  10
TORSDOF 2
