REMARK  5 active torsions:
REMARK  status: ('A' for Active; 'I' for Inactive)
REMARK    1  A    between atoms: C_4  and  O_7 
REMARK    2  A    between atoms: O_7  and  C_8 
REMARK    3  A    between atoms: C_9  and  C_14 
REMARK    4  A    between atoms: C_14  and  O_16 
REMARK    5  A    between atoms: O_16  and  C_17 
ROOT
HETATM    1  C   LIG     1      -1.803  -4.692  -1.505  1.00  0.00     0.301 C 
HETATM    2  O   LIG     1      -2.334  -5.765  -1.708  1.00  0.00    -0.259 OA
ENDROOT
BRANCH   1   3
HETATM    3  C   LIG     1      -1.590  -3.674  -2.573  1.00  0.00     0.073 A 
HETATM    4  C   LIG     1      -1.498  -2.297  -2.326  1.00  0.00     0.085 A 
HETATM    5  C   LIG     1      -1.304  -1.437  -3.413  1.00  0.00     0.038 A 
HETATM    6  C   LIG     1      -1.199  -1.926  -4.717  1.00  0.00     0.003 A 
HETATM    7  C   LIG     1      -1.282  -3.289  -4.958  1.00  0.00     0.001 A 
HETATM    8  C   LIG     1      -1.476  -4.163  -3.888  1.00  0.00     0.020 A 
BRANCH   4   9
HETATM    9  O   LIG     1      -1.683  -1.862  -1.041  1.00  0.00    -0.345 OA
BRANCH   9  10
HETATM   10  C   LIG     1      -1.082  -0.623  -0.645  1.00  0.00     0.133 C 
HETATM   11  C   LIG     1      -2.053   0.534  -0.883  1.00  0.00     0.058 C 
HETATM   12  C   LIG     1      -1.514   1.808  -0.266  1.00  0.00     0.170 C 
HETATM   13  O   LIG     1      -1.291   1.630   1.128  1.00  0.00    -0.391 OA
HETATM   14  C   LIG     1      -0.306   0.633   1.393  1.00  0.00     0.170 C 
HETATM   15  C   LIG     1      -0.743  -0.719   0.850  1.00  0.00     0.058 C 
ENDBRANCH   9  10
ENDBRANCH   4   9
ENDBRANCH   1   3
BRANCH   1  16
HETATM   16  O   LIG     1      -1.189  -4.283  -0.323  1.00  0.00    -0.268 OA
BRANCH  16  17
HETATM   17  C   LIG     1      -0.869  -5.294   0.595  1.00  0.00     0.163 A 
HETATM   18  C   LIG     1      -1.127  -5.092   1.951  1.00  0.00     0.195 A 
HETATM   19  C   LIG     1      -0.758  -6.064   2.880  1.00  0.00     0.199 A 
HETATM   20  F   LIG     1      -1.694  -3.954   2.377  1.00  0.00    -0.200 F 
HETATM   21  C   LIG     1      -0.128  -7.229   2.457  1.00  0.00     0.199 A 
HETATM   22  F   LIG     1      -0.993  -5.870   4.186  1.00  0.00    -0.199 F 
HETATM   23  C   LIG     1       0.169  -7.409   1.113  1.00  0.00     0.199 A 
HETATM   24  F   LIG     1       0.223  -8.165   3.350  1.00  0.00    -0.199 F 
HETATM   25  C   LIG     1      -0.174  -6.432   0.189  1.00  0.00     0.195 A 
HETATM   26  F   LIG     1       0.811  -8.512   0.708  1.00  0.00    -0.199 F 
HETATM   27  F   LIG     1       0.222  -6.564  -1.085  1.00  0.00    -0.200 F 
ENDBRANCH  16  17
ENDBRANCH   1  16
TORSDOF 5
