REMARK  5 active torsions:
REMARK  status: ('A' for Active; 'I' for Inactive)
REMARK    1  A    between atoms: C_4  and  O_7 
REMARK    2  A    between atoms: O_7  and  C_8 
REMARK    3  A    between atoms: C_11  and  C_14 
REMARK    4  A    between atoms: C_14  and  O_15 
REMARK    5  A    between atoms: O_15  and  C_16 
ROOT
HETATM    1  C   LIG     1      -0.418  -3.852  -5.935  1.00  0.00     0.298 C 
HETATM    2  O   LIG     1      -1.043  -3.540  -6.942  1.00  0.00    -0.259 OA
ENDROOT
BRANCH   1   3
HETATM    3  C   LIG     1      -0.719  -3.368  -4.563  1.00  0.00     0.040 A 
HETATM    4  C   LIG     1      -0.342  -4.129  -3.449  1.00  0.00     0.020 A 
HETATM    5  C   LIG     1      -0.568  -3.650  -2.160  1.00  0.00     0.038 A 
HETATM    6  C   LIG     1      -1.201  -2.424  -1.967  1.00  0.00     0.069 A 
HETATM    7  C   LIG     1      -1.574  -1.659  -3.078  1.00  0.00     0.038 A 
HETATM    8  C   LIG     1      -1.344  -2.129  -4.376  1.00  0.00     0.020 A 
BRANCH   6   9
HETATM    9  O   LIG     1      -1.453  -1.860  -0.748  1.00  0.00    -0.346 OA
BRANCH   9  10
HETATM   10  C   LIG     1      -1.707  -2.751   0.344  1.00  0.00     0.133 C 
HETATM   11  C   LIG     1      -0.657  -2.539   1.433  1.00  0.00     0.058 C 
HETATM   12  C   LIG     1      -1.019  -3.351   2.667  1.00  0.00     0.170 C 
HETATM   13  O   LIG     1      -2.333  -3.028   3.122  1.00  0.00    -0.391 OA
HETATM   14  C   LIG     1      -3.336  -3.289   2.140  1.00  0.00     0.170 C 
HETATM   15  C   LIG     1      -3.096  -2.446   0.900  1.00  0.00     0.058 C 
ENDBRANCH   9  10
ENDBRANCH   6   9
ENDBRANCH   1   3
BRANCH   1  16
HETATM   16  O   LIG     1       0.720  -4.644  -5.860  1.00  0.00    -0.268 OA
BRANCH  16  17
HETATM   17  C   LIG     1       1.509  -4.851  -7.005  1.00  0.00     0.163 A 
HETATM   18  C   LIG     1       2.135  -6.087  -7.160  1.00  0.00     0.195 A 
HETATM   19  C   LIG     1       3.008  -6.299  -8.223  1.00  0.00     0.199 A 
HETATM   20  F   LIG     1       1.927  -7.067  -6.268  1.00  0.00    -0.200 F 
HETATM   21  C   LIG     1       3.261  -5.274  -9.128  1.00  0.00     0.199 A 
HETATM   22  F   LIG     1       3.621  -7.482  -8.367  1.00  0.00    -0.199 F 
HETATM   23  C   LIG     1       2.661  -4.033  -8.958  1.00  0.00     0.199 A 
HETATM   24  F   LIG     1       4.105  -5.474 -10.150  1.00  0.00    -0.199 F 
HETATM   25  C   LIG     1       1.804  -3.813  -7.888  1.00  0.00     0.195 A 
HETATM   26  F   LIG     1       2.932  -3.035  -9.809  1.00  0.00    -0.199 F 
HETATM   27  F   LIG     1       1.326  -2.580  -7.677  1.00  0.00    -0.200 F 
ENDBRANCH  16  17
ENDBRANCH   1  16
TORSDOF 5
