REMARK  4 active torsions:
REMARK  status: ('A' for Active; 'I' for Inactive)
REMARK    1  A    between atoms: C_3  and  O_23 
REMARK    2  A    between atoms: C_11  and  C_15 
REMARK    3  A    between atoms: C_19  and  C_22 
REMARK    4  A    between atoms: C_22  and  O_23 
ROOT
HETATM    1  C   LIG     1      -3.797  -0.999   0.844  1.00  0.00     0.300 C 
HETATM    2  O   LIG     1      -3.697  -2.133   0.390  1.00  0.00    -0.259 OA
ENDROOT
BRANCH   1   3
HETATM    3  C   LIG     1      -4.658   0.053   0.265  1.00  0.00     0.055 A 
HETATM    4  C   LIG     1      -4.558   1.380   0.660  1.00  0.00     0.106 A 
HETATM    5  N   LIG     1      -5.315   2.379   0.150  1.00  0.00    -0.364 N 
HETATM    6  C   LIG     1      -6.235   2.054  -0.793  1.00  0.00     0.049 A 
ATOM      7  HN  LIG     1      -5.198   3.343   0.463  1.00  0.00     0.165 HD
HETATM    8  C   LIG     1      -6.412   0.747  -1.240  1.00  0.00     0.032 A 
HETATM    9  C   LIG     1      -5.610  -0.265  -0.704  1.00  0.00     0.021 A 
BRANCH   6  10
HETATM   10  C   LIG     1      -6.970   3.213  -1.313  1.00  0.00     0.031 A 
HETATM   11  S   LIG     1      -8.573   3.076  -1.911  1.00  0.00    -0.100 SA
HETATM   12  C   LIG     1      -8.668   4.749  -2.253  1.00  0.00     0.050 A 
HETATM   13  C   LIG     1      -7.508   5.411  -1.924  1.00  0.00     0.008 A 
HETATM   14  C   LIG     1      -6.536   4.528  -1.375  1.00  0.00     0.021 A 
ENDBRANCH   6  10
ENDBRANCH   1   3
BRANCH   1  15
HETATM   15  O   LIG     1      -3.170  -0.500   1.973  1.00  0.00    -0.268 OA
BRANCH  15  16
HETATM   16  C   LIG     1      -2.605  -1.420   2.867  1.00  0.00     0.163 A 
HETATM   17  C   LIG     1      -1.355  -1.125   3.407  1.00  0.00     0.195 A 
HETATM   18  C   LIG     1      -0.812  -1.945   4.390  1.00  0.00     0.199 A 
HETATM   19  F   LIG     1      -0.691  -0.030   3.009  1.00  0.00    -0.200 F 
HETATM   20  F   LIG     1       0.376  -1.644   4.934  1.00  0.00    -0.199 F 
HETATM   21  C   LIG     1      -1.514  -3.060   4.832  1.00  0.00     0.199 A 
HETATM   22  C   LIG     1      -2.769  -3.345   4.307  1.00  0.00     0.199 A 
HETATM   23  F   LIG     1      -0.997  -3.842   5.789  1.00  0.00    -0.199 F 
HETATM   24  C   LIG     1      -3.323  -2.517   3.340  1.00  0.00     0.195 A 
HETATM   25  F   LIG     1      -3.463  -4.398   4.762  1.00  0.00    -0.199 F 
HETATM   26  F   LIG     1      -4.575  -2.742   2.917  1.00  0.00    -0.200 F 
ENDBRANCH  15  16
ENDBRANCH   1  15
TORSDOF 4
