REMARK  1 active torsions:
REMARK  status: ('A' for Active; 'I' for Inactive)
REMARK    1  A    between atoms: C_4  and  C_7 
ROOT
HETATM    1  S   LIG     1      -0.480  -1.441  -0.057  1.00  0.00    -0.111 SA
HETATM    2  C   LIG     1      -1.298   0.049   0.054  1.00  0.00     0.069 A 
HETATM    3  C   LIG     1      -0.425   1.111   0.045  1.00  0.00     0.033 A 
HETATM    4  C   LIG     1       0.958   0.731  -0.054  1.00  0.00     0.051 A 
HETATM    5  C   LIG     1       1.039  -0.655  -0.117  1.00  0.00     0.067 A 
HETATM    6 BR   LIG     1      -1.057   2.895   0.148  1.00  0.00    -0.050 Br
ENDROOT
BRANCH   4   7
HETATM    7  C   LIG     1       2.140   1.619  -0.086  1.00  0.00     0.254 C 
HETATM    8 CL   LIG     1       3.721   0.871  -0.319  1.00  0.00    -0.038 Cl
HETATM    9  O   LIG     1       2.023   2.833   0.046  1.00  0.00    -0.274 OA
ENDBRANCH   4   7
TORSDOF 1
