REMARK  1 active torsions:
REMARK  status: ('A' for Active; 'I' for Inactive)
REMARK    1  A    between atoms: C_4  and  C_7 
ROOT
HETATM    1  S   LIG     1      -0.565  -1.448  -0.069  1.00  0.00    -0.093 SA
HETATM    2  C   LIG     1      -1.254   0.111  -0.087  1.00  0.00     0.052 A 
HETATM    3  C   LIG     1      -0.290   1.091  -0.024  1.00  0.00     0.025 A 
HETATM    4  C   LIG     1       1.059   0.567   0.015  1.00  0.00     0.051 A 
HETATM    5  C   LIG     1       1.013  -0.814   0.041  1.00  0.00     0.066 A 
HETATM    6 BR   LIG     1       2.466  -1.989   0.261  1.00  0.00    -0.042 Br
ENDROOT
BRANCH   4   7
HETATM    7  C   LIG     1       2.239   1.444   0.067  1.00  0.00     0.254 C 
HETATM    8 CL   LIG     1       3.680   0.982  -0.816  1.00  0.00    -0.038 Cl
HETATM    9  O   LIG     1       2.148   2.520   0.655  1.00  0.00    -0.274 OA
ENDBRANCH   4   7
TORSDOF 1
