REMARK  2 active torsions:
REMARK  status: ('A' for Active; 'I' for Inactive)
REMARK    1  A    between atoms: C_5  and  C_9 
REMARK    2  A    between atoms: C_13  and  C_15 
ROOT
HETATM    1  C   LIG     1       2.379   1.342  -0.322  1.00  0.00     0.009 A 
HETATM    2  C   LIG     1       2.458   2.747  -0.373  1.00  0.00     0.015 A 
HETATM    3  C   LIG     1       3.637   3.400  -0.740  1.00  0.00     0.002 A 
HETATM    4  C   LIG     1       4.770   2.659  -1.068  1.00  0.00     0.016 A 
HETATM    5  C   LIG     1       4.734   1.259  -1.031  1.00  0.00     0.027 A 
HETATM    6  C   LIG     1       3.543   0.615  -0.658  1.00  0.00     0.031 A 
ENDROOT
BRANCH   1   7
HETATM    7  C   LIG     1       1.130   0.653   0.068  1.00  0.00     0.115 A 
HETATM    8  N   LIG     1       1.137  -0.695   0.091  1.00  0.00    -0.352 N 
HETATM    9  C   LIG     1      -0.012  -1.299   0.448  1.00  0.00     0.091 A 
ATOM     10  HN  LIG     1       1.971  -1.230  -0.150  1.00  0.00     0.166 HD
HETATM   11  C   LIG     1      -1.156  -0.616   0.780  1.00  0.00     0.034 A 
HETATM   12  C   LIG     1      -1.064   0.753   0.726  1.00  0.00     0.091 A 
HETATM   13  N   LIG     1       0.058   1.411   0.376  1.00  0.00    -0.352 N 
ATOM     14  HN  LIG     1       0.095   2.430   0.345  1.00  0.00     0.166 HD
ENDBRANCH   1   7
BRANCH   5  15
HETATM   15  C   LIG     1       5.973   0.493  -1.392  1.00  0.00     0.252 C 
HETATM   16 CL   LIG     1       5.965  -1.258  -1.357  1.00  0.00    -0.038 Cl
HETATM   17  O   LIG     1       6.967   1.148  -1.706  1.00  0.00    -0.274 OA
ENDBRANCH   5  15
TORSDOF 2
