REMARK  3 active torsions:
REMARK  status: ('A' for Active; 'I' for Inactive)
REMARK    1  A    between atoms: O_1  and  C_11 
REMARK    2  A    between atoms: O_1  and  C_2 
REMARK    3  A    between atoms: C_4  and  C_8 
ROOT
HETATM    1  C   LIG     1       4.122   0.072   0.350  1.00  0.00     0.077 A 
HETATM    2  C   LIG     1       4.901   1.210   0.560  1.00  0.00     0.053 A 
HETATM    3  C   LIG     1       6.220   1.252   0.085  1.00  0.00     0.029 A 
HETATM    4  C   LIG     1       6.763   0.143  -0.582  1.00  0.00     0.016 A 
HETATM    5  C   LIG     1       5.997  -1.010  -0.749  1.00  0.00     0.004 A 
HETATM    6  C   LIG     1       4.684  -1.045  -0.277  1.00  0.00     0.037 A 
ENDROOT
BRANCH   1   7
HETATM    7  O   LIG     1       2.826  -0.077   0.794  1.00  0.00    -0.311 OA
BRANCH   7   8
HETATM    8  C   LIG     1       1.978   1.008   0.832  1.00  0.00     0.076 A 
HETATM    9  C   LIG     1       1.912   1.990  -0.160  1.00  0.00     0.037 A 
HETATM   10  C   LIG     1       0.995   3.040  -0.042  1.00  0.00     0.003 A 
HETATM   11  C   LIG     1       0.115   3.086   1.039  1.00  0.00     0.000 A 
HETATM   12  C   LIG     1       0.142   2.077   2.000  1.00  0.00     0.003 A 
HETATM   13  C   LIG     1       1.071   1.040   1.895  1.00  0.00     0.037 A 
ENDBRANCH   7   8
ENDBRANCH   1   7
BRANCH   3  14
HETATM   14  C   LIG     1       7.052   2.479   0.253  1.00  0.00     0.252 C 
HETATM   15 CL   LIG     1       6.761   3.540   1.612  1.00  0.00    -0.038 Cl
HETATM   16  O   LIG     1       7.927   2.675  -0.591  1.00  0.00    -0.274 OA
ENDBRANCH   3  14
TORSDOF 3
