REMARK  5 active torsions:
REMARK  status: ('A' for Active; 'I' for Inactive)
REMARK    1  A    between atoms: C_2  and  O_8 
REMARK    2  A    between atoms: C_6  and  C_15 
REMARK    3  A    between atoms: O_8  and  C_9 
REMARK    4  A    between atoms: C_15  and  O_17 
REMARK    5  A    between atoms: O_17  and  C_18 
ROOT
HETATM    1  C   LIG     1      -0.379   1.075   0.809  1.00  0.00     0.057 A 
HETATM    2  C   LIG     1      -1.166   0.024   0.376  1.00  0.00     0.142 A 
HETATM    3  N   LIG     1      -0.712  -0.973  -0.417  1.00  0.00    -0.346 N 
ATOM      4  HN  LIG     1      -1.329  -1.720  -0.737  1.00  0.00     0.167 HD
HETATM    5  C   LIG     1       0.596  -0.939  -0.769  1.00  0.00     0.107 A 
HETATM    6  C   LIG     1       1.472   0.051  -0.354  1.00  0.00     0.055 A 
HETATM    7  C   LIG     1       0.963   1.082   0.448  1.00  0.00     0.023 A 
ENDROOT
BRANCH   6   8
HETATM    8  C   LIG     1       2.884  -0.007  -0.781  1.00  0.00     0.300 C 
HETATM    9  O   LIG     1       3.376  -0.890  -1.471  1.00  0.00    -0.259 OA
BRANCH   8  10
HETATM   10  O   LIG     1       3.526   1.100  -0.257  1.00  0.00    -0.268 OA
BRANCH  10  11
HETATM   11  C   LIG     1       4.775   1.498  -0.754  1.00  0.00     0.163 A 
HETATM   12  C   LIG     1       5.689   2.003   0.169  1.00  0.00     0.195 A 
HETATM   13  C   LIG     1       6.889   2.546  -0.269  1.00  0.00     0.199 A 
HETATM   14  F   LIG     1       5.392   2.001   1.477  1.00  0.00    -0.200 F 
HETATM   15  C   LIG     1       7.173   2.591  -1.628  1.00  0.00     0.199 A 
HETATM   16  F   LIG     1       7.758   3.052   0.617  1.00  0.00    -0.199 F 
HETATM   17  C   LIG     1       6.255   2.102  -2.551  1.00  0.00     0.199 A 
HETATM   18  F   LIG     1       8.323   3.132  -2.053  1.00  0.00    -0.199 F 
HETATM   19  C   LIG     1       5.049   1.567  -2.117  1.00  0.00     0.195 A 
HETATM   20  F   LIG     1       6.515   2.181  -3.863  1.00  0.00    -0.199 F 
HETATM   21  F   LIG     1       4.132   1.192  -3.019  1.00  0.00    -0.200 F 
ENDBRANCH  10  11
ENDBRANCH   8  10
ENDBRANCH   6   8
BRANCH   2  22
HETATM   22  O   LIG     1      -2.478   0.022   0.806  1.00  0.00    -0.330 OA
BRANCH  22  23
HETATM   23  C   LIG     1      -3.114  -1.254   0.678  1.00  0.00     0.134 C 
HETATM   24  C   LIG     1      -4.164  -1.387   1.782  1.00  0.00     0.059 C 
HETATM   25  C   LIG     1      -4.900  -2.706   1.610  1.00  0.00     0.170 C 
HETATM   26  O   LIG     1      -5.529  -2.758   0.330  1.00  0.00    -0.391 OA
HETATM   27  C   LIG     1      -4.592  -2.677  -0.745  1.00  0.00     0.170 C 
HETATM   28  C   LIG     1      -3.799  -1.382  -0.683  1.00  0.00     0.059 C 
ENDBRANCH  22  23
ENDBRANCH   2  22
TORSDOF 5
