REMARK  4 active torsions:
REMARK  status: ('A' for Active; 'I' for Inactive)
REMARK    1  A    between atoms: C_4  and  C_7 
REMARK    2  A    between atoms: C_11  and  C_14 
REMARK    3  A    between atoms: C_14  and  O_15 
REMARK    4  A    between atoms: O_15  and  C_17 
ROOT
HETATM    1  C   LIG     1      -2.313  -4.277   0.809  1.00  0.00     0.298 C 
HETATM    2  O   LIG     1      -3.011  -3.976  -0.150  1.00  0.00    -0.259 OA
ENDROOT
BRANCH   1   3
HETATM    3  C   LIG     1      -0.933  -3.766   1.038  1.00  0.00     0.040 A 
HETATM    4  C   LIG     1       0.040  -4.550   1.670  1.00  0.00     0.017 A 
HETATM    5  C   LIG     1       1.306  -4.020   1.901  1.00  0.00     0.002 A 
HETATM    6  C   LIG     1       1.599  -2.710   1.509  1.00  0.00     0.014 A 
HETATM    7  C   LIG     1       0.636  -1.907   0.874  1.00  0.00    -0.007 A 
HETATM    8  C   LIG     1      -0.632  -2.455   0.634  1.00  0.00     0.031 A 
BRANCH   7   9
HETATM    9  C   LIG     1       0.958  -0.526   0.483  1.00  0.00     0.059 A 
HETATM   10  N   LIG     1       2.163   0.017   0.734  1.00  0.00    -0.299 N 
HETATM   11  N   LIG     1       2.090   1.263   0.238  1.00  0.00    -0.307 N 
ATOM     12  HN  LIG     1       2.958  -0.421   1.199  1.00  0.00     0.187 HD
HETATM   13  C   LIG     1       3.224   2.151   0.334  1.00  0.00     0.177 C 
HETATM   14  C   LIG     1       0.884   1.558  -0.318  1.00  0.00     0.112 A 
HETATM   15  C   LIG     1       0.124   0.422  -0.176  1.00  0.00     0.050 A 
ENDBRANCH   7   9
ENDBRANCH   1   3
BRANCH   1  16
HETATM   16  O   LIG     1      -2.666  -5.039   1.910  1.00  0.00    -0.268 OA
BRANCH  16  17
HETATM   17  C   LIG     1      -4.040  -5.179   2.165  1.00  0.00     0.163 A 
HETATM   18  C   LIG     1      -4.906  -4.083   2.145  1.00  0.00     0.195 A 
HETATM   19  C   LIG     1      -6.240  -4.241   2.496  1.00  0.00     0.199 A 
HETATM   20  F   LIG     1      -4.446  -2.858   1.854  1.00  0.00    -0.200 F 
HETATM   21  C   LIG     1      -6.708  -5.479   2.915  1.00  0.00     0.199 A 
HETATM   22  F   LIG     1      -7.067  -3.186   2.467  1.00  0.00    -0.199 F 
HETATM   23  C   LIG     1      -5.841  -6.564   2.981  1.00  0.00     0.199 A 
HETATM   24  F   LIG     1      -7.988  -5.620   3.287  1.00  0.00    -0.199 F 
HETATM   25  C   LIG     1      -4.509  -6.416   2.602  1.00  0.00     0.195 A 
HETATM   26  F   LIG     1      -6.283  -7.744   3.437  1.00  0.00    -0.199 F 
HETATM   27  F   LIG     1      -3.672  -7.460   2.697  1.00  0.00    -0.200 F 
ENDBRANCH  16  17
ENDBRANCH   1  16
TORSDOF 4
