REMARK  4 active torsions:
REMARK  status: ('A' for Active; 'I' for Inactive)
REMARK    1  A    between atoms: C_9  and  C_10 
REMARK    2  A    between atoms: C_10  and  C_11 
REMARK    3  A    between atoms: C_11  and  O_13 
REMARK    4  A    between atoms: O_13  and  C_15 
ROOT
HETATM    1  C   LIG     1       2.765  -2.319   1.354  1.00  0.00     0.267 C 
HETATM    2  O   LIG     1       2.898  -3.467   1.739  1.00  0.00    -0.265 OA
ENDROOT
BRANCH   1   3
HETATM    3  C   LIG     1       1.452  -1.582   1.243  1.00  0.00     0.154 C 
BRANCH   3   4
HETATM    4  C   LIG     1       0.945  -1.543  -0.213  1.00  0.00     0.094 C 
HETATM    5  C   LIG     1      -0.375  -0.781  -0.295  1.00  0.00    -0.010 A 
HETATM    6  C   LIG     1      -1.647  -1.164   0.239  1.00  0.00     0.018 A 
HETATM    7  C   LIG     1      -0.467   0.433  -0.947  1.00  0.00    -0.006 A 
HETATM    8  C   LIG     1      -2.631  -0.240  -0.041  1.00  0.00     0.051 A 
HETATM    9  S   LIG     1      -2.028   1.094  -0.927  1.00  0.00    -0.106 SA
HETATM   10  C   LIG     1       0.684   1.084  -1.636  1.00  0.00     0.073 C 
HETATM   11  C   LIG     1       1.979   0.499  -1.064  1.00  0.00     0.174 C 
HETATM   12  O   LIG     1       1.953  -0.937  -1.074  1.00  0.00    -0.375 OA
HETATM   13  C   LIG     1       0.750  -2.963  -0.775  1.00  0.00     0.052 C 
ENDBRANCH   3   4
ENDBRANCH   1   3
BRANCH   1  14
HETATM   14  O   LIG     1       3.792  -1.459   0.965  1.00  0.00    -0.272 OA
BRANCH  14  15
HETATM   15  C   LIG     1       5.044  -1.917   0.503  1.00  0.00     0.162 A 
HETATM   16  C   LIG     1       5.201  -3.046  -0.300  1.00  0.00     0.195 A 
HETATM   17  C   LIG     1       6.428  -3.296  -0.910  1.00  0.00     0.199 A 
HETATM   18  F   LIG     1       4.171  -3.858  -0.564  1.00  0.00    -0.200 F 
HETATM   19  C   LIG     1       7.491  -2.417  -0.733  1.00  0.00     0.199 A 
HETATM   20  F   LIG     1       6.573  -4.361  -1.711  1.00  0.00    -0.199 F 
HETATM   21  C   LIG     1       7.339  -1.297   0.073  1.00  0.00     0.199 A 
HETATM   22  F   LIG     1       8.652  -2.632  -1.367  1.00  0.00    -0.199 F 
HETATM   23  C   LIG     1       6.119  -1.049   0.692  1.00  0.00     0.195 A 
HETATM   24  F   LIG     1       8.352  -0.433   0.219  1.00  0.00    -0.199 F 
HETATM   25  F   LIG     1       5.963   0.059   1.431  1.00  0.00    -0.200 F 
ENDBRANCH  14  15
ENDBRANCH   1  14
TORSDOF 4
