REMARK  2 active torsions:
REMARK  status: ('A' for Active; 'I' for Inactive)
REMARK    1  A    between atoms: C_2  and  C_6 
REMARK    2  A    between atoms: C_6  and  C_12 
ROOT
HETATM    1  C   LIG     1      -0.969  -2.420  -0.170  1.00  0.00     0.073 C 
HETATM    2  C   LIG     1      -2.147  -2.124  -1.136  1.00  0.00     0.050 C 
HETATM    3  C   LIG     1      -1.807  -2.372  -2.603  1.00  0.00     0.169 C 
HETATM    4  O   LIG     1      -1.290  -3.683  -2.786  1.00  0.00    -0.391 OA
HETATM    5  C   LIG     1      -0.069  -3.870  -2.079  1.00  0.00     0.169 C 
HETATM    6  C   LIG     1      -0.321  -3.770  -0.585  1.00  0.00     0.050 C 
ENDROOT
BRANCH   1   7
HETATM    7  C   LIG     1       0.082  -1.292  -0.139  1.00  0.00    -0.000 A 
HETATM    8  S   LIG     1       1.418  -1.386   0.956  1.00  0.00    -0.105 SA
HETATM    9  C   LIG     1       2.048   0.113   0.447  1.00  0.00     0.050 A 
HETATM   10  C   LIG     1       1.275   0.691  -0.529  1.00  0.00     0.008 A 
HETATM   11  C   LIG     1       0.141  -0.108  -0.859  1.00  0.00     0.016 A 
ENDBRANCH   1   7
BRANCH   1  12
HETATM   12  C   LIG     1      -1.547  -2.576   1.267  1.00  0.00     0.232 C 
HETATM   13 CL   LIG     1      -2.361  -1.149   1.879  1.00  0.00    -0.043 Cl
HETATM   14  O   LIG     1      -1.444  -3.625   1.907  1.00  0.00    -0.279 OA
ENDBRANCH   1  12
TORSDOF 2
