REMARK  3 active torsions:
REMARK  status: ('A' for Active; 'I' for Inactive)
REMARK    1  A    between atoms: C_5  and  O_9 
REMARK    2  A    between atoms: O_9  and  C_11 
REMARK    3  A    between atoms: C_14  and  C_17 
ROOT
HETATM    1  O   LIG     1      -2.033  -1.228   1.110  1.00  0.00    -0.292 OA
ENDROOT
BRANCH   1   2
HETATM    2  C   LIG     1      -1.386  -0.233   1.820  1.00  0.00     0.164 A 
HETATM    3  C   LIG     1      -0.410  -0.612   2.731  1.00  0.00     0.144 A 
HETATM    4  N   LIG     1       0.264   0.285   3.490  1.00  0.00    -0.370 N 
HETATM    5  C   LIG     1      -0.069   1.581   3.279  1.00  0.00     0.112 A 
ATOM      6  HN  LIG     1       0.970   0.005   4.170  1.00  0.00     0.164 HD
HETATM    7  C   LIG     1      -1.019   1.973   2.339  1.00  0.00     0.022 A 
HETATM    8  N   LIG     1      -1.687   1.065   1.585  1.00  0.00    -0.338 N 
HETATM    9  C   LIG     1      -1.338   3.417   2.121  1.00  0.00     0.069 C 
ATOM     10  HN  LIG     1      -2.374   1.343   0.884  1.00  0.00     0.168 HD
ENDBRANCH   1   2
BRANCH   1  11
HETATM   11  C   LIG     1      -3.366  -1.055   0.806  1.00  0.00     0.077 A 
HETATM   12  C   LIG     1      -3.813  -1.677  -0.362  1.00  0.00     0.038 A 
HETATM   13  C   LIG     1      -5.166  -1.631  -0.722  1.00  0.00     0.019 A 
HETATM   14  C   LIG     1      -6.092  -0.967   0.094  1.00  0.00     0.026 A 
HETATM   15  C   LIG     1      -5.637  -0.348   1.269  1.00  0.00     0.019 A 
HETATM   16  C   LIG     1      -4.286  -0.401   1.629  1.00  0.00     0.038 A 
BRANCH  14  17
HETATM   17  C   LIG     1      -7.555  -0.913  -0.234  1.00  0.00     0.252 C 
HETATM   18 CL   LIG     1      -8.157  -1.698  -1.679  1.00  0.00    -0.038 Cl
HETATM   19  O   LIG     1      -8.288  -0.309   0.551  1.00  0.00    -0.274 OA
ENDBRANCH  14  17
ENDBRANCH   1  11
TORSDOF 3
