REMARK  3 active torsions:
REMARK  status: ('A' for Active; 'I' for Inactive)
REMARK    1  A    between atoms: C_2  and  C_8 
REMARK    2  A    between atoms: C_8  and  O_10 
REMARK    3  A    between atoms: O_10  and  C_11 
ROOT
HETATM    1  C   LIG     1      -2.971  -2.728  -0.188  1.00  0.00     0.163 A 
HETATM    2  C   LIG     1      -3.576  -3.576  -1.112  1.00  0.00     0.195 A 
HETATM    3  C   LIG     1      -4.234  -4.723  -0.677  1.00  0.00     0.199 A 
HETATM    4  C   LIG     1      -4.286  -5.024   0.679  1.00  0.00     0.199 A 
HETATM    5  C   LIG     1      -3.706  -4.165   1.604  1.00  0.00     0.199 A 
HETATM    6  C   LIG     1      -3.068  -3.007   1.175  1.00  0.00     0.195 A 
HETATM    7  F   LIG     1      -2.596  -2.135   2.077  1.00  0.00    -0.200 F 
HETATM    8  F   LIG     1      -3.784  -4.440   2.914  1.00  0.00    -0.199 F 
HETATM    9  F   LIG     1      -4.913  -6.133   1.096  1.00  0.00    -0.199 F 
HETATM   10  F   LIG     1      -4.835  -5.528  -1.564  1.00  0.00    -0.199 F 
HETATM   11  F   LIG     1      -3.552  -3.276  -2.418  1.00  0.00    -0.200 F 
ENDROOT
BRANCH   1  12
HETATM   12  O   LIG     1      -2.417  -1.524  -0.649  1.00  0.00    -0.267 OA
BRANCH  12  13
HETATM   13  C   LIG     1      -1.143  -1.177  -0.188  1.00  0.00     0.317 C 
HETATM   14  O   LIG     1      -0.343  -1.958   0.304  1.00  0.00    -0.257 OA
BRANCH  13  15
HETATM   15  C   LIG     1      -0.952   0.240  -0.381  1.00  0.00     0.127 A 
HETATM   16  N   LIG     1       0.153   0.953   0.020  1.00  0.00    -0.291 N 
HETATM   17  C   LIG     1       1.320   0.454   0.713  1.00  0.00     0.178 C 
HETATM   18  N   LIG     1       0.089   2.265  -0.287  1.00  0.00    -0.309 N 
HETATM   19  C   LIG     1      -1.093   2.399  -0.887  1.00  0.00     0.110 A 
ATOM     20  HN  LIG     1       0.785   2.988  -0.102  1.00  0.00     0.186 HD
HETATM   21  C   LIG     1      -1.789   1.183  -0.956  1.00  0.00     0.056 A 
ENDBRANCH  13  15
ENDBRANCH  12  13
ENDBRANCH   1  12
TORSDOF 3
