REMARK  4 active torsions:
REMARK  status: ('A' for Active; 'I' for Inactive)
REMARK    1  A    between atoms: C_3  and  C_13 
REMARK    2  A    between atoms: C_6  and  N_7 
REMARK    3  A    between atoms: C_13  and  O_14 
REMARK    4  A    between atoms: O_14  and  C_16 
ROOT
HETATM    1  C   LIG     1      -0.420   1.278  -0.204  1.00  0.00     0.316 C 
HETATM    2  O   LIG     1      -1.181   2.174   0.157  1.00  0.00    -0.257 OA
ENDROOT
BRANCH   1   3
HETATM    3  C   LIG     1      -0.558  -0.128   0.164  1.00  0.00     0.117 A 
HETATM    4  C   LIG     1      -1.565  -0.648   0.950  1.00  0.00     0.089 A 
HETATM    5  S   LIG     1      -1.393  -2.346   1.073  1.00  0.00    -0.063 SA
HETATM    6  C   LIG     1       0.010  -2.300   0.057  1.00  0.00     0.147 A 
HETATM    7  N   LIG     1       0.330  -1.082  -0.323  1.00  0.00    -0.331 N 
ATOM      8  HN  LIG     1       1.136  -0.862  -0.908  1.00  0.00     0.168 HD
BRANCH   6   9
HETATM    9  N   LIG     1       0.744  -3.398  -0.302  1.00  0.00    -0.357 N 
HETATM   10  C   LIG     1       0.074  -4.705  -0.426  1.00  0.00     0.151 C 
HETATM   11  C   LIG     1       1.112  -5.827  -0.580  1.00  0.00     0.187 C 
HETATM   12  O   LIG     1       1.987  -5.586  -1.690  1.00  0.00    -0.388 OA
HETATM   13  C   LIG     1       2.706  -4.362  -1.485  1.00  0.00     0.187 C 
HETATM   14  C   LIG     1       1.756  -3.165  -1.358  1.00  0.00     0.151 C 
ENDBRANCH   6   9
ENDBRANCH   1   3
BRANCH   1  15
HETATM   15  O   LIG     1       0.679   1.458  -1.040  1.00  0.00    -0.267 OA
BRANCH  15  16
HETATM   16  C   LIG     1       0.690   2.468  -2.017  1.00  0.00     0.163 A 
HETATM   17  C   LIG     1       1.928   3.028  -2.327  1.00  0.00     0.195 A 
HETATM   18  C   LIG     1       2.055   3.879  -3.419  1.00  0.00     0.199 A 
HETATM   19  F   LIG     1       3.008   2.718  -1.596  1.00  0.00    -0.200 F 
HETATM   20  C   LIG     1       0.946   4.171  -4.203  1.00  0.00     0.199 A 
HETATM   21  F   LIG     1       3.252   4.394  -3.731  1.00  0.00    -0.199 F 
HETATM   22  C   LIG     1      -0.291   3.621  -3.892  1.00  0.00     0.199 A 
HETATM   23  F   LIG     1       1.075   4.968  -5.273  1.00  0.00    -0.199 F 
HETATM   24  C   LIG     1      -0.422   2.765  -2.803  1.00  0.00     0.195 A 
HETATM   25  F   LIG     1      -1.353   3.886  -4.665  1.00  0.00    -0.199 F 
HETATM   26  F   LIG     1      -1.605   2.182  -2.564  1.00  0.00    -0.200 F 
ENDBRANCH  15  16
ENDBRANCH   1  15
TORSDOF 4
