REMARK  1 active torsions:
REMARK  status: ('A' for Active; 'I' for Inactive)
REMARK    1  A    between atoms: C_2  and  C_8 
ROOT
HETATM    1  N   LIG     1       0.934  -0.678   0.013  1.00  0.00    -0.292 N 
HETATM    2  C   LIG     1      -0.340  -1.196   0.065  1.00  0.00     0.114 A 
HETATM    3  C   LIG     1      -1.170  -0.086  -0.026  1.00  0.00     0.054 A 
HETATM    4  C   LIG     1      -0.320   1.026  -0.059  1.00  0.00     0.110 A 
HETATM    5  N   LIG     1       0.962   0.671  -0.020  1.00  0.00    -0.309 N 
ATOM      6  HN  LIG     1       1.780   1.280  -0.016  1.00  0.00     0.186 HD
HETATM    7  C   LIG     1       2.199  -1.369  -0.094  1.00  0.00     0.178 C 
ENDROOT
BRANCH   2   8
HETATM    8  C   LIG     1      -0.777  -2.579   0.154  1.00  0.00     0.270 C 
HETATM    9  O   LIG     1      -1.895  -2.912  -0.228  1.00  0.00    -0.272 OA
HETATM   10 CL   LIG     1       0.330  -3.701   0.908  1.00  0.00    -0.037 Cl
ENDBRANCH   2   8
TORSDOF 1
