REMARK  3 active torsions:
REMARK  status: ('A' for Active; 'I' for Inactive)
REMARK    1  A    between atoms: C_2  and  C_7 
REMARK    2  A    between atoms: C_4  and  C_14 
REMARK    3  A    between atoms: C_12  and  C_18 
ROOT
HETATM    1  N   LIG     1       1.460   1.037  -0.133  1.00  0.00    -0.295 N 
HETATM    2  C   LIG     1       1.345  -0.329   0.078  1.00  0.00     0.063 A 
HETATM    3  C   LIG     1       0.038  -0.475   0.534  1.00  0.00     0.067 A 
HETATM    4  C   LIG     1      -0.548   0.818   0.554  1.00  0.00     0.134 A 
HETATM    5  N   LIG     1       0.356   1.736   0.187  1.00  0.00    -0.294 N 
ATOM      6  HN  LIG     1       0.233   2.748   0.157  1.00  0.00     0.187 HD
HETATM    7  C   LIG     1       2.561   1.812  -0.661  1.00  0.00     0.178 C 
ENDROOT
BRANCH   2   8
HETATM    8  C   LIG     1       2.399  -1.363  -0.103  1.00  0.00     0.007 A 
HETATM    9  C   LIG     1       3.749  -1.047   0.140  1.00  0.00     0.015 A 
HETATM   10  C   LIG     1       4.768  -2.009   0.054  1.00  0.00     0.001 A 
HETATM   11  C   LIG     1       4.462  -3.335  -0.220  1.00  0.00     0.001 A 
HETATM   12  C   LIG     1       3.140  -3.691  -0.450  1.00  0.00     0.017 A 
HETATM   13  C   LIG     1       2.126  -2.712  -0.424  1.00  0.00     0.039 A 
BRANCH  13  14
HETATM   14  C   LIG     1       0.789  -3.208  -0.826  1.00  0.00     0.253 C 
HETATM   15 CL   LIG     1       0.148  -2.650  -2.352  1.00  0.00    -0.038 Cl
HETATM   16  O   LIG     1       0.263  -4.041  -0.099  1.00  0.00    -0.274 OA
ENDBRANCH  13  14
ENDBRANCH   2   8
BRANCH   4  17
HETATM   17  C   LIG     1      -1.962   1.190   0.920  1.00  0.00     0.434 C 
HETATM   18  F   LIG     1      -2.759   0.094   1.053  1.00  0.00    -0.165 F 
HETATM   19  F   LIG     1      -2.034   1.864   2.099  1.00  0.00    -0.165 F 
HETATM   20  F   LIG     1      -2.550   1.977  -0.021  1.00  0.00    -0.165 F 
ENDBRANCH   4  17
TORSDOF 3
