REMARK  1 active torsions:
REMARK  status: ('A' for Active; 'I' for Inactive)
REMARK    1  A    between atoms: C_6  and  C_8 
ROOT
HETATM    1  S   LIG     1       1.357   0.785  -0.198  1.00  0.00    -0.054 SA
HETATM    2  C   LIG     1       0.930  -0.850  -0.044  1.00  0.00     0.146 A 
HETATM    3  N   LIG     1      -0.339  -1.127   0.114  1.00  0.00    -0.349 N 
ATOM      4  HN  LIG     1      -0.738  -2.060   0.219  1.00  0.00     0.166 HD
HETATM    5  C   LIG     1      -1.047   0.060   0.114  1.00  0.00     0.113 A 
HETATM    6  C   LIG     1      -0.299   1.216  -0.044  1.00  0.00     0.085 A 
HETATM    7 CL   LIG     1       2.141  -2.063  -0.098  1.00  0.00    -0.056 Cl
ENDROOT
BRANCH   6   8
HETATM    8  C   LIG     1      -0.810   2.578  -0.076  1.00  0.00     0.260 C 
HETATM    9 CL   LIG     1       0.361   3.863  -0.293  1.00  0.00    -0.038 Cl
HETATM   10  O   LIG     1      -2.013   2.799   0.044  1.00  0.00    -0.273 OA
ENDBRANCH   6   8
TORSDOF 1
