REMARK  4 active torsions:
REMARK  status: ('A' for Active; 'I' for Inactive)
REMARK    1  A    between atoms: C_4  and  C_8 
REMARK    2  A    between atoms: C_6  and  C_7 
REMARK    3  A    between atoms: C_7  and  O_11 
REMARK    4  A    between atoms: O_11  and  C_12 
ROOT
HETATM    1  C   LIG     1       1.135  -1.240  -0.319  1.00  0.00     0.009 A 
HETATM    2  C   LIG     1       2.058  -0.198  -0.285  1.00  0.00     0.002 A 
HETATM    3  C   LIG     1       1.624   1.125  -0.223  1.00  0.00     0.016 A 
HETATM    4  C   LIG     1       0.254   1.416  -0.192  1.00  0.00     0.027 A 
HETATM    5  C   LIG     1      -0.672   0.357  -0.222  1.00  0.00     0.025 A 
HETATM    6  C   LIG     1      -0.241  -0.980  -0.301  1.00  0.00    -0.033 A 
ENDROOT
BRANCH   6   7
HETATM    7  C   LIG     1      -1.251  -2.110  -0.309  1.00  0.00     0.214 C 
BRANCH   7   8
HETATM    8  O   LIG     1      -0.740  -3.219  -1.057  1.00  0.00    -0.347 OA
BRANCH   8   9
HETATM    9  C   LIG     1      -1.535  -4.332  -1.094  1.00  0.00     0.069 A 
HETATM   10  C   LIG     1      -2.929  -4.319  -1.042  1.00  0.00     0.037 A 
HETATM   11  C   LIG     1      -3.645  -5.517  -1.108  1.00  0.00     0.003 A 
HETATM   12  C   LIG     1      -2.972  -6.731  -1.235  1.00  0.00     0.000 A 
HETATM   13  C   LIG     1      -1.581  -6.747  -1.310  1.00  0.00     0.003 A 
HETATM   14  C   LIG     1      -0.866  -5.549  -1.248  1.00  0.00     0.037 A 
ENDBRANCH   8   9
ENDBRANCH   7   8
ENDBRANCH   6   7
BRANCH   4  15
HETATM   15  C   LIG     1      -0.242   2.828  -0.133  1.00  0.00     0.252 C 
HETATM   16 CL   LIG     1       0.892   4.162  -0.097  1.00  0.00    -0.038 Cl
HETATM   17  O   LIG     1      -1.463   2.989  -0.115  1.00  0.00    -0.274 OA
ENDBRANCH   4  15
TORSDOF 4
