REMARK  4 active torsions:
REMARK  status: ('A' for Active; 'I' for Inactive)
REMARK    1  A    between atoms: C_11  and  N_12 
REMARK    2  A    between atoms: C_15  and  C_18 
REMARK    3  A    between atoms: C_18  and  O_19 
REMARK    4  A    between atoms: O_19  and  C_21 
ROOT
HETATM    1  N   LIG     1       0.914  -2.693  -0.005  1.00  0.00    -0.268 NA
HETATM    2  C   LIG     1       1.771  -3.305  -1.030  1.00  0.00     0.098 C 
HETATM    3  C   LIG     1       1.363  -4.765  -1.199  1.00  0.00     0.029 C 
HETATM    4  C   LIG     1       1.448  -5.522   0.135  1.00  0.00     0.088 C 
HETATM    5  C   LIG     1       0.643  -4.781   1.217  1.00  0.00     0.029 C 
HETATM    6  C   LIG     1       1.059  -3.314   1.315  1.00  0.00     0.098 C 
ENDROOT
BRANCH   4   7
HETATM    7  C   LIG     1       0.967  -6.956  -0.040  1.00  0.00     0.268 C 
HETATM    8  O   LIG     1       0.808  -7.527  -1.108  1.00  0.00    -0.264 OA
BRANCH   7   9
HETATM    9  O   LIG     1       0.840  -7.553   1.217  1.00  0.00    -0.272 OA
BRANCH   9  10
HETATM   10  C   LIG     1       0.195  -8.797   1.309  1.00  0.00     0.162 A 
HETATM   11  C   LIG     1       0.729  -9.740   2.187  1.00  0.00     0.195 A 
HETATM   12  C   LIG     1       0.053 -10.934   2.424  1.00  0.00     0.199 A 
HETATM   13  F   LIG     1       1.874  -9.483   2.836  1.00  0.00    -0.200 F 
HETATM   14  C   LIG     1      -1.154 -11.186   1.782  1.00  0.00     0.199 A 
HETATM   15  F   LIG     1       0.545 -11.821   3.299  1.00  0.00    -0.199 F 
HETATM   16  C   LIG     1      -1.690 -10.246   0.911  1.00  0.00     0.199 A 
HETATM   17  F   LIG     1      -1.820 -12.322   2.033  1.00  0.00    -0.199 F 
HETATM   18  C   LIG     1      -1.028  -9.046   0.687  1.00  0.00     0.195 A 
HETATM   19  F   LIG     1      -2.871 -10.477   0.320  1.00  0.00    -0.199 F 
HETATM   20  F   LIG     1      -1.609  -8.106  -0.073  1.00  0.00    -0.200 F 
ENDBRANCH   9  10
ENDBRANCH   7   9
ENDBRANCH   4   7
BRANCH   1  21
HETATM   21  C   LIG     1       1.110  -1.300   0.081  1.00  0.00     0.103 A 
HETATM   22  C   LIG     1       0.079  -0.413   0.439  1.00  0.00     0.070 A 
HETATM   23  S   LIG     1      -1.569  -0.729   0.841  1.00  0.00    -0.096 SA
HETATM   24  C   LIG     1       0.342   0.952   0.481  1.00  0.00     0.054 A 
HETATM   25  C   LIG     1      -1.912   0.928   1.069  1.00  0.00     0.053 A 
HETATM   26  C   LIG     1      -0.808   1.716   0.843  1.00  0.00     0.038 A 
HETATM   27  N   LIG     1       1.558   1.479   0.198  1.00  0.00    -0.351 N 
HETATM   28  C   LIG     1       2.473   0.569  -0.140  1.00  0.00     0.182 A 
ATOM     29  HN  LIG     1       1.755   2.479   0.240  1.00  0.00     0.166 HD
HETATM   30  N   LIG     1       2.318  -0.761  -0.214  1.00  0.00    -0.342 N 
ATOM     31  HN  LIG     1       3.098  -1.358  -0.488  1.00  0.00     0.167 HD
ENDBRANCH   1  21
TORSDOF 4
