REMARK  4 active torsions:
REMARK  status: ('A' for Active; 'I' for Inactive)
REMARK    1  A    between atoms: C_3  and  C_15 
REMARK    2  A    between atoms: C_6  and  C_7 
REMARK    3  A    between atoms: C_7  and  O_8 
REMARK    4  A    between atoms: O_8  and  C_9 
ROOT
HETATM    1  C   LIG     1      -0.118   0.636  -1.563  1.00  0.00     0.010 A 
HETATM    2  C   LIG     1      -0.861  -0.524  -1.806  1.00  0.00     0.017 A 
HETATM    3  C   LIG     1      -0.780  -1.617  -0.931  1.00  0.00     0.026 A 
HETATM    4  C   LIG     1       0.094  -1.544   0.164  1.00  0.00     0.017 A 
HETATM    5  C   LIG     1       0.839  -0.384   0.400  1.00  0.00     0.010 A 
HETATM    6  C   LIG     1       0.719   0.728  -0.439  1.00  0.00    -0.034 A 
ENDROOT
BRANCH   6   7
HETATM    7  C   LIG     1       1.459   2.024  -0.171  1.00  0.00     0.214 C 
BRANCH   7   8
HETATM    8  O   LIG     1       2.117   2.019   1.101  1.00  0.00    -0.347 OA
BRANCH   8   9
HETATM    9  C   LIG     1       2.751   3.181   1.458  1.00  0.00     0.069 A 
HETATM   10  C   LIG     1       3.345   3.182   2.724  1.00  0.00     0.037 A 
HETATM   11  C   LIG     1       3.993   4.324   3.203  1.00  0.00     0.003 A 
HETATM   12  C   LIG     1       4.047   5.474   2.420  1.00  0.00     0.000 A 
HETATM   13  C   LIG     1       3.476   5.474   1.150  1.00  0.00     0.003 A 
HETATM   14  C   LIG     1       2.837   4.329   0.668  1.00  0.00     0.037 A 
ENDBRANCH   8   9
ENDBRANCH   7   8
ENDBRANCH   6   7
BRANCH   3  15
HETATM   15  C   LIG     1      -1.637  -2.820  -1.164  1.00  0.00     0.252 C 
HETATM   16 CL   LIG     1      -1.558  -4.184  -0.069  1.00  0.00    -0.038 Cl
HETATM   17  O   LIG     1      -2.394  -2.790  -2.142  1.00  0.00    -0.274 OA
ENDBRANCH   3  15
TORSDOF 4
