REMARK  1 active torsions:
REMARK  status: ('A' for Active; 'I' for Inactive)
REMARK    1  A    between atoms: C_2  and  C_7 
ROOT
HETATM    1  S   LIG     1       1.257  -0.923   0.139  1.00  0.00    -0.090 SA
HETATM    2  C   LIG     1      -0.420  -1.255  -0.030  1.00  0.00     0.067 A 
HETATM    3  C   LIG     1       1.025   0.764   0.010  1.00  0.00    -0.021 A 
HETATM    4  C   LIG     1      -1.138  -0.079  -0.173  1.00  0.00     0.025 A 
HETATM    5  C   LIG     1      -0.307   1.080  -0.149  1.00  0.00     0.015 A 
HETATM    6  C   LIG     1       2.188   1.693   0.089  1.00  0.00     0.056 C 
ENDROOT
BRANCH   2   7
HETATM    7  C   LIG     1      -0.873  -2.647  -0.003  1.00  0.00     0.259 C 
HETATM    8 CL   LIG     1      -2.611  -2.852  -0.175  1.00  0.00    -0.038 Cl
HETATM    9  O   LIG     1      -0.112  -3.603   0.128  1.00  0.00    -0.273 OA
ENDBRANCH   2   7
TORSDOF 1
