REMARK  2 active torsions:
REMARK  status: ('A' for Active; 'I' for Inactive)
REMARK    1  A    between atoms: C_1  and  C_2 
REMARK    2  A    between atoms: C_6  and  C_10 
ROOT
HETATM    1  C   LIG     1      -0.748  -2.519  -0.021  1.00  0.00     0.122 A 
HETATM    2  N   LIG     1      -2.060  -2.807   0.070  1.00  0.00    -0.350 N 
ATOM      3  HN  LIG     1      -2.767  -2.073   0.118  1.00  0.00     0.166 HD
HETATM    4  C   LIG     1      -2.394  -4.116   0.095  1.00  0.00     0.107 A 
HETATM    5  C   LIG     1      -1.473  -5.138   0.031  1.00  0.00     0.057 A 
HETATM    6  C   LIG     1      -0.156  -4.734  -0.057  1.00  0.00     0.107 A 
HETATM    7  N   LIG     1       0.235  -3.438  -0.085  1.00  0.00    -0.350 N 
ATOM      8  HN  LIG     1       1.218  -3.173  -0.151  1.00  0.00     0.166 HD
ENDROOT
BRANCH   1   9
HETATM    9  C   LIG     1      -0.344  -1.110  -0.060  1.00  0.00     0.049 A 
HETATM   10  C   LIG     1       0.932  -0.575  -0.153  1.00  0.00     0.023 A 
HETATM   11  C   LIG     1       0.941   0.851  -0.167  1.00  0.00     0.009 A 
HETATM   12  C   LIG     1      -0.329   1.371  -0.084  1.00  0.00     0.050 A 
HETATM   13  S   LIG     1      -1.517   0.148   0.011  1.00  0.00    -0.098 SA
ENDBRANCH   1   9
BRANCH   5  14
HETATM   14  C   LIG     1      -1.837  -6.571   0.051  1.00  0.00     0.255 C 
HETATM   15 CL   LIG     1      -3.515  -7.045   0.167  1.00  0.00    -0.038 Cl
HETATM   16  O   LIG     1      -0.909  -7.377  -0.018  1.00  0.00    -0.274 OA
ENDBRANCH   5  14
TORSDOF 2
