REMARK  1 active torsions:
REMARK  status: ('A' for Active; 'I' for Inactive)
REMARK    1  A    between atoms: C_2  and  C_7 
ROOT
HETATM    1  O   LIG     1       0.949   0.558   0.055  1.00  0.00    -0.316 OA
HETATM    2  C   LIG     1       0.892  -0.820  -0.031  1.00  0.00     0.154 A 
HETATM    3  C   LIG     1      -0.443  -1.178  -0.072  1.00  0.00     0.051 A 
HETATM    4  C   LIG     1      -1.218   0.003  -0.011  1.00  0.00     0.046 A 
HETATM    5  C   LIG     1      -0.319   1.036   0.065  1.00  0.00     0.144 A 
HETATM    6 BR   LIG     1      -1.266  -2.862  -0.182  1.00  0.00    -0.048 Br
ENDROOT
BRANCH   2   7
HETATM    7  C   LIG     1       2.173  -1.511  -0.055  1.00  0.00     0.277 C 
HETATM    8 CL   LIG     1       2.118  -3.252  -0.206  1.00  0.00    -0.036 Cl
HETATM    9  O   LIG     1       3.239  -0.903   0.024  1.00  0.00    -0.272 OA
ENDBRANCH   2   7
TORSDOF 1
