REMARK  4 active torsions:
REMARK  status: ('A' for Active; 'I' for Inactive)
REMARK    1  A    between atoms: N_1  and  C_14 
REMARK    2  A    between atoms: C_11  and  C_15 
REMARK    3  A    between atoms: C_15  and  O_17 
REMARK    4  A    between atoms: O_17  and  C_18 
ROOT
HETATM    1  C   LIG     1       1.628  -2.803   0.216  1.00  0.00     0.032 A 
HETATM    2  C   LIG     1       2.883  -3.421   0.161  1.00  0.00     0.020 A 
HETATM    3  C   LIG     1       4.042  -2.657  -0.017  1.00  0.00     0.040 A 
HETATM    4  C   LIG     1       3.944  -1.271  -0.163  1.00  0.00     0.020 A 
HETATM    5  C   LIG     1       2.686  -0.658  -0.135  1.00  0.00     0.032 A 
HETATM    6  C   LIG     1       1.519  -1.415   0.077  1.00  0.00     0.056 A 
ENDROOT
BRANCH   3   7
HETATM    7  C   LIG     1       5.344  -3.356  -0.062  1.00  0.00     0.298 C 
HETATM    8  O   LIG     1       5.501  -4.472  -0.545  1.00  0.00    -0.259 OA
BRANCH   7   9
HETATM    9  O   LIG     1       6.286  -2.600   0.613  1.00  0.00    -0.268 OA
BRANCH   9  10
HETATM   10  C   LIG     1       7.423  -3.299   1.050  1.00  0.00     0.163 A 
HETATM   11  C   LIG     1       8.676  -2.717   0.866  1.00  0.00     0.195 A 
HETATM   12  C   LIG     1       9.814  -3.337   1.377  1.00  0.00     0.199 A 
HETATM   13  F   LIG     1       8.788  -1.544   0.226  1.00  0.00    -0.200 F 
HETATM   14  C   LIG     1       9.703  -4.540   2.066  1.00  0.00     0.199 A 
HETATM   15  F   LIG     1      11.015  -2.762   1.228  1.00  0.00    -0.199 F 
HETATM   16  C   LIG     1       8.455  -5.113   2.268  1.00  0.00     0.199 A 
HETATM   17  F   LIG     1      10.798  -5.131   2.564  1.00  0.00    -0.199 F 
HETATM   18  C   LIG     1       7.315  -4.484   1.782  1.00  0.00     0.195 A 
HETATM   19  F   LIG     1       8.344  -6.254   2.961  1.00  0.00    -0.199 F 
HETATM   20  F   LIG     1       6.110  -4.996   2.071  1.00  0.00    -0.200 F 
ENDBRANCH   9  10
ENDBRANCH   7   9
ENDBRANCH   3   7
BRANCH   6  21
HETATM   21  N   LIG     1       0.258  -0.743   0.105  1.00  0.00    -0.261 N 
HETATM   22  C   LIG     1      -0.950  -1.108   0.693  1.00  0.00     0.032 A 
HETATM   23  C   LIG     1      -1.176  -2.268   1.591  1.00  0.00     0.070 C 
HETATM   24  C   LIG     1      -1.855  -0.123   0.353  1.00  0.00     0.052 A 
HETATM   25  C   LIG     1      -1.137   0.804  -0.418  1.00  0.00     0.024 A 
HETATM   26  N   LIG     1       0.149   0.464  -0.517  1.00  0.00    -0.298 N 
HETATM   27  C   LIG     1      -1.639   2.041  -1.061  1.00  0.00     0.070 C 
ATOM     28  HN  LIG     1       0.895   0.996  -0.965  1.00  0.00     0.187 HD
ENDBRANCH   6  21
TORSDOF 4
