REMARK  4 active torsions:
REMARK  status: ('A' for Active; 'I' for Inactive)
REMARK    1  A    between atoms: C_4  and  N_23 
REMARK    2  A    between atoms: C_8  and  C_9 
REMARK    3  A    between atoms: C_9  and  O_10 
REMARK    4  A    between atoms: O_10  and  C_12 
ROOT
HETATM    1  C   LIG     1      -0.821   1.100  -0.482  1.00  0.00     0.109 A 
HETATM    2  N   LIG     1      -1.501  -0.059  -0.638  1.00  0.00    -0.342 N 
ATOM      3  HN  LIG     1      -2.298  -0.119  -1.271  1.00  0.00     0.167 HD
HETATM    4  C   LIG     1      -1.094  -1.132   0.068  1.00  0.00     0.159 A 
HETATM    5  N   LIG     1      -0.032  -1.080   0.891  1.00  0.00    -0.342 N 
ATOM      6  HN  LIG     1       0.266  -1.904   1.414  1.00  0.00     0.167 HD
HETATM    7  C   LIG     1       0.631   0.092   1.008  1.00  0.00     0.109 A 
HETATM    8  C   LIG     1       0.261   1.239   0.352  1.00  0.00     0.070 A 
ENDROOT
BRANCH   8   9
HETATM    9  C   LIG     1       1.023   2.479   0.541  1.00  0.00     0.301 C 
HETATM   10  O   LIG     1       2.131   2.512   1.053  1.00  0.00    -0.259 OA
BRANCH   9  11
HETATM   11  O   LIG     1       0.286   3.560   0.093  1.00  0.00    -0.268 OA
BRANCH  11  12
HETATM   12  C   LIG     1       1.027   4.745  -0.018  1.00  0.00     0.163 A 
HETATM   13  C   LIG     1       2.129   4.814  -0.865  1.00  0.00     0.195 A 
HETATM   14  F   LIG     1       2.509   3.732  -1.559  1.00  0.00    -0.200 F 
HETATM   15  C   LIG     1       2.820   6.008  -1.023  1.00  0.00     0.199 A 
HETATM   16  C   LIG     1       2.388   7.148  -0.362  1.00  0.00     0.199 A 
HETATM   17  F   LIG     1       3.887   6.060  -1.832  1.00  0.00    -0.199 F 
HETATM   18  C   LIG     1       1.266   7.094   0.463  1.00  0.00     0.199 A 
HETATM   19  F   LIG     1       3.034   8.309  -0.536  1.00  0.00    -0.199 F 
HETATM   20  C   LIG     1       0.588   5.893   0.640  1.00  0.00     0.195 A 
HETATM   21  F   LIG     1       0.833   8.206   1.071  1.00  0.00    -0.199 F 
HETATM   22  F   LIG     1      -0.497   5.847   1.426  1.00  0.00    -0.200 F 
ENDBRANCH  11  12
ENDBRANCH   9  11
ENDBRANCH   8   9
BRANCH   4  23
HETATM   23  N   LIG     1      -1.752  -2.345  -0.089  1.00  0.00    -0.251 NA
HETATM   24  C   LIG     1      -1.745  -3.196   1.112  1.00  0.00     0.124 C 
HETATM   25  C   LIG     1      -2.319  -4.580   0.771  1.00  0.00     0.182 C 
HETATM   26  O   LIG     1      -3.625  -4.483   0.179  1.00  0.00    -0.389 OA
HETATM   27  C   LIG     1      -3.562  -3.708  -1.030  1.00  0.00     0.182 C 
HETATM   28  C   LIG     1      -3.058  -2.281  -0.757  1.00  0.00     0.124 C 
ENDBRANCH   4  23
TORSDOF 4
