REMARK  5 active torsions:
REMARK  status: ('A' for Active; 'I' for Inactive)
REMARK    1  A    between atoms: C_5  and  S_7 
REMARK    2  A    between atoms: C_6  and  C_16 
REMARK    3  A    between atoms: S_7  and  N_8 
REMARK    4  A    between atoms: C_16  and  O_17 
REMARK    5  A    between atoms: O_17  and  C_19 
ROOT
HETATM    1  C   LIG     1      -2.001  -1.698   0.625  1.00  0.00     0.019 A 
HETATM    2  C   LIG     1      -1.794  -2.725  -0.296  1.00  0.00     0.001 A 
HETATM    3  C   LIG     1      -0.588  -2.805  -0.979  1.00  0.00     0.002 A 
HETATM    4  C   LIG     1       0.434  -1.894  -0.701  1.00  0.00     0.026 A 
HETATM    5  C   LIG     1       0.246  -0.878   0.256  1.00  0.00     0.096 A 
HETATM    6  C   LIG     1      -1.001  -0.740   0.878  1.00  0.00     0.063 A 
ENDROOT
BRANCH   6   7
HETATM    7  C   LIG     1      -1.362   0.332   1.838  1.00  0.00     0.300 C 
HETATM    8  O   LIG     1      -0.755   0.585   2.856  1.00  0.00    -0.259 OA
BRANCH   7   9
HETATM    9  O   LIG     1      -2.589   0.865   1.414  1.00  0.00    -0.268 OA
BRANCH   9  10
HETATM   10  C   LIG     1      -3.182   1.958   2.085  1.00  0.00     0.163 A 
HETATM   11  C   LIG     1      -4.575   1.991   2.207  1.00  0.00     0.195 A 
HETATM   12  C   LIG     1      -5.203   3.099   2.778  1.00  0.00     0.199 A 
HETATM   13  F   LIG     1      -5.322   0.973   1.754  1.00  0.00    -0.200 F 
HETATM   14  C   LIG     1      -4.443   4.163   3.247  1.00  0.00     0.199 A 
HETATM   15  F   LIG     1      -6.541   3.153   2.854  1.00  0.00    -0.199 F 
HETATM   16  C   LIG     1      -3.062   4.137   3.115  1.00  0.00     0.199 A 
HETATM   17  F   LIG     1      -5.042   5.228   3.798  1.00  0.00    -0.199 F 
HETATM   18  C   LIG     1      -2.436   3.055   2.506  1.00  0.00     0.195 A 
HETATM   19  F   LIG     1      -2.329   5.173   3.545  1.00  0.00    -0.199 F 
HETATM   20  F   LIG     1      -1.122   3.120   2.268  1.00  0.00    -0.200 F 
ENDBRANCH   9  10
ENDBRANCH   7   9
ENDBRANCH   6   7
BRANCH   5  21
HETATM   21  S   LIG     1       1.644   0.179   0.583  1.00  0.00     0.262 S 
HETATM   22  O   LIG     1       2.534   0.083  -0.548  1.00  0.00    -0.200 OA
HETATM   23  O   LIG     1       1.129   1.475   1.008  1.00  0.00    -0.200 OA
BRANCH  21  24
HETATM   24  N   LIG     1       2.357  -0.636   1.879  1.00  0.00    -0.303 N 
HETATM   25  C   LIG     1       3.385  -1.674   1.561  1.00  0.00     0.161 C 
HETATM   26  C   LIG     1       3.555  -2.593   2.778  1.00  0.00     0.188 C 
HETATM   27  O   LIG     1       3.937  -1.843   3.941  1.00  0.00    -0.388 OA
HETATM   28  C   LIG     1       2.939  -0.857   4.259  1.00  0.00     0.188 C 
HETATM   29  C   LIG     1       2.714   0.128   3.102  1.00  0.00     0.161 C 
ENDBRANCH  21  24
ENDBRANCH   5  21
TORSDOF 5
