REMARK  1 active torsions:
REMARK  status: ('A' for Active; 'I' for Inactive)
REMARK    1  A    between atoms: C_3  and  C_8 
ROOT
HETATM    1  N   LIG     1      -0.350  -1.061  -0.000  1.00  0.00    -0.307 N 
HETATM    2  C   LIG     1      -1.177   0.021   0.037  1.00  0.00     0.127 A 
HETATM    3  C   LIG     1      -0.366   1.140  -0.045  1.00  0.00     0.060 A 
HETATM    4  C   LIG     1       0.938   0.603  -0.128  1.00  0.00     0.125 A 
HETATM    5  N   LIG     1       0.950  -0.733  -0.100  1.00  0.00    -0.309 N 
ATOM      6  HN  LIG     1       1.756  -1.357  -0.144  1.00  0.00     0.186 HD
HETATM    7  C   LIG     1      -0.731  -2.452   0.057  1.00  0.00     0.177 C 
ENDROOT
BRANCH   3   8
HETATM    8  C   LIG     1      -0.810   2.531  -0.043  1.00  0.00     0.255 C 
HETATM    9 CL   LIG     1       0.432   3.765  -0.162  1.00  0.00    -0.038 Cl
HETATM   10  O   LIG     1      -2.008   2.793   0.040  1.00  0.00    -0.274 OA
ENDBRANCH   3   8
TORSDOF 1
