REMARK  1 active torsions:
REMARK  status: ('A' for Active; 'I' for Inactive)
REMARK    1  A    between atoms: C_3  and  C_8 
ROOT
HETATM    1  S   LIG     1       1.223   0.962   0.146  1.00  0.00    -0.065 SA
HETATM    2  C   LIG     1       1.045  -0.729   0.090  1.00  0.00     0.091 A 
HETATM    3  C   LIG     1      -0.264  -1.157  -0.043  1.00  0.00     0.057 A 
HETATM    4  C   LIG     1      -1.136  -0.002  -0.099  1.00  0.00     0.050 A 
HETATM    5  C   LIG     1      -0.442   1.177  -0.006  1.00  0.00     0.077 A 
HETATM    6 CL   LIG     1      -1.104   2.760  -0.032  1.00  0.00    -0.076 Cl
HETATM    7 CL   LIG     1       2.491  -1.661   0.202  1.00  0.00    -0.075 Cl
ENDROOT
BRANCH   3   8
HETATM    8  C   LIG     1      -0.686  -2.568  -0.115  1.00  0.00     0.254 C 
HETATM    9 CL   LIG     1      -2.409  -2.874  -0.315  1.00  0.00    -0.038 Cl
HETATM   10  O   LIG     1       0.128  -3.482  -0.039  1.00  0.00    -0.274 OA
ENDBRANCH   3   8
TORSDOF 1
