REMARK  3 active torsions:
REMARK  status: ('A' for Active; 'I' for Inactive)
REMARK    1  A    between atoms: N_1  and  C_7 
REMARK    2  A    between atoms: C_2  and  C_16 
REMARK    3  A    between atoms: C_3  and  C_13 
ROOT
HETATM    1  N   LIG     1       1.953  -0.762   0.768  1.00  0.00    -0.251 N 
HETATM    2  C   LIG     1       0.959  -1.719   0.783  1.00  0.00     0.157 C 
HETATM    3  C   LIG     1      -0.210  -1.097   0.347  1.00  0.00     0.077 C 
HETATM    4  C   LIG     1       0.143   0.262   0.266  1.00  0.00     0.126 C 
HETATM    5  N   LIG     1       1.413   0.477   0.590  1.00  0.00    -0.303 N 
ATOM      6  HN  LIG     1       1.884   1.377   0.685  1.00  0.00     0.186 HD
ENDROOT
BRANCH   1   7
HETATM    7  C   LIG     1       3.373  -0.869   0.874  1.00  0.00     0.057 A 
HETATM    8  C   LIG     1       4.064  -2.041   0.543  1.00  0.00     0.031 A 
HETATM    9  C   LIG     1       5.461  -2.078   0.623  1.00  0.00     0.002 A 
HETATM   10  C   LIG     1       6.176  -0.954   1.033  1.00  0.00     0.000 A 
HETATM   11  C   LIG     1       5.498   0.218   1.352  1.00  0.00     0.002 A 
HETATM   12  C   LIG     1       4.106   0.266   1.262  1.00  0.00     0.031 A 
ENDBRANCH   1   7
BRANCH   2  13
HETATM   13  C   LIG     1       1.149  -3.083   1.303  1.00  0.00     0.435 C 
HETATM   14  F   LIG     1       2.045  -3.126   2.319  1.00  0.00    -0.165 F 
HETATM   15  F   LIG     1      -0.001  -3.592   1.815  1.00  0.00    -0.165 F 
HETATM   16  F   LIG     1       1.576  -3.944   0.350  1.00  0.00    -0.165 F 
ENDBRANCH   2  13
BRANCH   3  17
HETATM   17  C   LIG     1      -1.502  -1.717   0.100  1.00  0.00     0.256 C 
HETATM   18 CL   LIG     1      -2.916  -0.691   0.235  1.00  0.00    -0.038 Cl
HETATM   19  O   LIG     1      -1.549  -2.910  -0.196  1.00  0.00    -0.274 OA
ENDBRANCH   3  17
TORSDOF 3
