REMARK  1 active torsions:
REMARK  status: ('A' for Active; 'I' for Inactive)
REMARK    1  A    between atoms: C_3  and  C_9 
ROOT
HETATM    1  N   LIG     1       0.961   0.613  -0.045  1.00  0.00    -0.285 N 
HETATM    2  C   LIG     1       0.988  -0.743   0.111  1.00  0.00     0.136 A 
HETATM    3  C   LIG     1      -0.297  -1.210  -0.047  1.00  0.00     0.083 A 
HETATM    4  C   LIG     1      -1.036  -0.027  -0.295  1.00  0.00     0.127 A 
HETATM    5  N   LIG     1      -0.282   1.077  -0.293  1.00  0.00    -0.308 N 
ATOM      6  HN  LIG     1      -0.576   2.042  -0.443  1.00  0.00     0.186 HD
HETATM    7  C   LIG     1       2.060   1.546   0.033  1.00  0.00     0.179 C 
HETATM    8 CL   LIG     1       2.461  -1.533   0.444  1.00  0.00    -0.062 Cl
ENDROOT
BRANCH   3   9
HETATM    9  C   LIG     1      -0.765  -2.588   0.028  1.00  0.00     0.256 C 
HETATM   10 CL   LIG     1      -2.488  -2.851  -0.209  1.00  0.00    -0.038 Cl
HETATM   11  O   LIG     1       0.015  -3.511   0.246  1.00  0.00    -0.274 OA
ENDBRANCH   3   9
TORSDOF 1
