REMARK  2 active torsions:
REMARK  status: ('A' for Active; 'I' for Inactive)
REMARK    1  A    between atoms: C_3  and  C_7 
REMARK    2  A    between atoms: C_4  and  O_6 
ROOT
HETATM    1  S   LIG     1      -2.027  -1.409  -0.377  1.00  0.00    -0.090 SA
HETATM    2  C   LIG     1      -2.444   0.247  -0.344  1.00  0.00     0.070 A 
HETATM    3  C   LIG     1      -1.381   1.074  -0.003  1.00  0.00     0.068 A 
HETATM    4  C   LIG     1      -0.209   0.285   0.271  1.00  0.00     0.108 A 
HETATM    5  C   LIG     1      -0.434  -1.060   0.082  1.00  0.00     0.085 A 
HETATM    6 BR   LIG     1       0.850  -2.410   0.314  1.00  0.00    -0.040 Br
ENDROOT
BRANCH   3   7
HETATM    7  C   LIG     1      -1.552   2.533   0.040  1.00  0.00     0.255 C 
HETATM    8 CL   LIG     1      -0.158   3.548  -0.255  1.00  0.00    -0.038 Cl
HETATM    9  O   LIG     1      -2.674   2.999   0.247  1.00  0.00    -0.274 OA
ENDBRANCH   3   7
BRANCH   4  10
HETATM   10  O   LIG     1       1.019   0.755   0.604  1.00  0.00    -0.353 OA
HETATM   11  C   LIG     1       1.088   1.239   1.944  1.00  0.00     0.210 C 
ENDBRANCH   4  10
TORSDOF 2
