REMARK  3 active torsions:
REMARK  status: ('A' for Active; 'I' for Inactive)
REMARK    1  A    between atoms: C_2  and  C_6 
REMARK    2  A    between atoms: C_4  and  S_10 
REMARK    3  A    between atoms: S_10  and  C_11 
ROOT
HETATM    1  S   LIG     1      -0.694  -2.613  -0.404  1.00  0.00     0.207 S 
HETATM    2  O   LIG     1       0.161  -3.212   0.601  1.00  0.00    -0.217 OA
HETATM    3  O   LIG     1      -2.131  -2.526  -0.247  1.00  0.00    -0.217 OA
ENDROOT
BRANCH   1   4
HETATM    4  C   LIG     1      -0.139  -0.961  -0.502  1.00  0.00     0.078 A 
HETATM    5  C   LIG     1       1.224  -0.527  -0.736  1.00  0.00    -0.018 A 
HETATM    6  C   LIG     1       1.312   0.870  -0.701  1.00  0.00     0.074 A 
HETATM    7  C   LIG     1       2.400  -1.429  -0.976  1.00  0.00     0.051 C 
HETATM    8  S   LIG     1      -0.219   1.597  -0.436  1.00  0.00    -0.095 SA
HETATM    9  C   LIG     1      -1.007   0.097  -0.342  1.00  0.00     0.074 A 
BRANCH   6  10
HETATM   10  C   LIG     1       2.506   1.703  -0.914  1.00  0.00     0.259 C 
HETATM   11  O   LIG     1       3.453   1.303  -1.587  1.00  0.00    -0.273 OA
HETATM   12 CL   LIG     1       2.523   3.267  -0.113  1.00  0.00    -0.038 Cl
ENDBRANCH   6  10
ENDBRANCH   1   4
BRANCH   1  13
HETATM   13  C   LIG     1      -0.365  -3.353  -1.977  1.00  0.00     0.064 A 
HETATM   14  C   LIG     1       0.444  -4.491  -2.054  1.00  0.00     0.025 A 
HETATM   15  C   LIG     1       0.686  -5.079  -3.297  1.00  0.00     0.025 A 
HETATM   16  C   LIG     1       0.109  -4.537  -4.446  1.00  0.00     0.034 A 
HETATM   17  C   LIG     1      -0.704  -3.405  -4.366  1.00  0.00     0.025 A 
HETATM   18 CL   LIG     1       0.406  -5.267  -5.975  1.00  0.00    -0.084 Cl
HETATM   19  C   LIG     1      -0.945  -2.807  -3.128  1.00  0.00     0.025 A 
ENDBRANCH   1  13
TORSDOF 3
