REMARK  2 active torsions:
REMARK  status: ('A' for Active; 'I' for Inactive)
REMARK    1  A    between atoms: C_2  and  C_11 
REMARK    2  A    between atoms: C_4  and  S_7 
ROOT
HETATM    1  S   LIG     1      -0.562   1.290   0.224  1.00  0.00    -0.094 SA
HETATM    2  C   LIG     1       1.040   0.719  -0.012  1.00  0.00     0.090 A 
HETATM    3  C   LIG     1       1.073  -0.667  -0.085  1.00  0.00     0.078 A 
HETATM    4  C   LIG     1      -0.230  -1.244   0.048  1.00  0.00     0.088 A 
HETATM    5  C   LIG     1      -1.207  -0.285   0.211  1.00  0.00     0.075 A 
HETATM    6 CL   LIG     1       2.504  -1.585  -0.336  1.00  0.00    -0.081 Cl
ENDROOT
BRANCH   4   7
HETATM    7  S   LIG     1      -0.597  -2.939  -0.009  1.00  0.00     0.174 S 
HETATM    8  O   LIG     1      -2.031  -3.005   0.195  1.00  0.00    -0.223 OA
HETATM    9  O   LIG     1       0.023  -3.410  -1.228  1.00  0.00    -0.223 OA
HETATM   10  C   LIG     1       0.203  -3.646   1.406  1.00  0.00     0.167 C 
ENDBRANCH   4   7
BRANCH   2  11
HETATM   11  C   LIG     1       2.170   1.648  -0.059  1.00  0.00     0.260 C 
HETATM   12  O   LIG     1       3.289   1.325   0.332  1.00  0.00    -0.273 OA
HETATM   13 CL   LIG     1       1.840   3.238  -0.729  1.00  0.00    -0.038 Cl
ENDBRANCH   2  11
TORSDOF 2
