REMARK  3 active torsions:
REMARK  status: ('A' for Active; 'I' for Inactive)
REMARK    1  A    between atoms: C_2  and  C_11 
REMARK    2  A    between atoms: C_4  and  S_7 
REMARK    3  A    between atoms: S_7  and  C_8 
ROOT
HETATM    1  S   LIG     1       0.863   1.400   0.737  1.00  0.00    -0.094 SA
HETATM    2  C   LIG     1       2.201   0.319   0.711  1.00  0.00     0.090 A 
HETATM    3  C   LIG     1       1.761  -1.002   0.671  1.00  0.00     0.078 A 
HETATM    4  C   LIG     1       0.331  -1.102   0.680  1.00  0.00     0.089 A 
HETATM    5  C   LIG     1      -0.272   0.137   0.693  1.00  0.00     0.075 A 
HETATM    6 CL   LIG     1       2.799  -2.372   0.608  1.00  0.00    -0.081 Cl
ENDROOT
BRANCH   4   7
HETATM    7  S   LIG     1      -0.593  -2.573   0.608  1.00  0.00     0.181 S 
HETATM    8  O   LIG     1      -0.098  -3.229  -0.585  1.00  0.00    -0.222 OA
HETATM    9  O   LIG     1      -1.969  -2.133   0.714  1.00  0.00    -0.222 OA
BRANCH   7  10
HETATM   10  C   LIG     1      -0.176  -3.540   2.064  1.00  0.00     0.105 C 
HETATM   11  C   LIG     1      -0.465  -2.783   3.355  1.00  0.00     0.026 C 
HETATM   12  C   LIG     1      -0.947  -4.859   2.034  1.00  0.00     0.026 C 
ENDBRANCH   7  10
ENDBRANCH   4   7
BRANCH   2  13
HETATM   13  C   LIG     1       3.587   0.811   0.728  1.00  0.00     0.260 C 
HETATM   14  O   LIG     1       4.548   0.047   0.734  1.00  0.00    -0.273 OA
HETATM   15 CL   LIG     1       3.821   2.556   0.760  1.00  0.00    -0.038 Cl
ENDBRANCH   2  13
TORSDOF 3
