REMARK  2 active torsions:
REMARK  status: ('A' for Active; 'I' for Inactive)
REMARK    1  A    between atoms: C_2  and  C_14 
REMARK    2  A    between atoms: C_7  and  C_8 
ROOT
HETATM    1  O   LIG     1      -0.710   1.271   0.064  1.00  0.00    -0.269 OA
HETATM    2  C   LIG     1       0.634   1.014   0.176  1.00  0.00     0.228 A 
HETATM    3  N   LIG     1       0.898  -0.278   0.209  1.00  0.00    -0.274 N 
ATOM      4  HN  LIG     1       1.818  -0.711   0.283  1.00  0.00     0.189 HD
HETATM    5  N   LIG     1      -0.317  -0.928   0.124  1.00  0.00    -0.277 N 
ATOM      6  HN  LIG     1      -0.469  -1.937   0.121  1.00  0.00     0.189 HD
HETATM    7  C   LIG     1      -1.243   0.008   0.047  1.00  0.00     0.175 A 
ENDROOT
BRANCH   7   8
HETATM    8  C   LIG     1      -2.693  -0.100  -0.039  1.00  0.00     0.017 A 
HETATM    9  C   LIG     1      -3.305  -1.362  -0.066  1.00  0.00     0.016 A 
HETATM   10  C   LIG     1      -4.695  -1.480  -0.149  1.00  0.00     0.001 A 
HETATM   11  C   LIG     1      -5.490  -0.337  -0.203  1.00  0.00     0.000 A 
HETATM   12  C   LIG     1      -4.899   0.923  -0.171  1.00  0.00     0.001 A 
HETATM   13  C   LIG     1      -3.510   1.041  -0.089  1.00  0.00     0.016 A 
ENDBRANCH   7   8
BRANCH   2  14
HETATM   14  C   LIG     1       1.571   2.116   0.260  1.00  0.00     0.294 C 
HETATM   15  O   LIG     1       1.220   3.293   0.211  1.00  0.00    -0.270 OA
HETATM   16 CL   LIG     1       3.244   1.623   0.447  1.00  0.00    -0.035 Cl
ENDBRANCH   2  14
TORSDOF 2
