REMARK  3 active torsions:
REMARK  status: ('A' for Active; 'I' for Inactive)
REMARK    1  A    between atoms: N_1  and  C_3 
REMARK    2  A    between atoms: C_2  and  C_4 
REMARK    3  A    between atoms: C_13  and  C_16 
ROOT
HETATM    1  N   LIG     1       0.730   0.758   0.223  1.00  0.00    -0.267 N 
HETATM    2  N   LIG     1       0.814  -0.589   0.378  1.00  0.00    -0.290 N 
ATOM      3  HN  LIG     1       1.662  -1.156   0.394  1.00  0.00     0.187 HD
HETATM    4  C   LIG     1      -0.456  -1.019   0.506  1.00  0.00     0.134 A 
HETATM    5  C   LIG     1      -1.363   0.066   0.434  1.00  0.00     0.055 A 
HETATM    6  C   LIG     1      -0.580   1.180   0.255  1.00  0.00     0.119 A 
ENDROOT
BRANCH   1   7
HETATM    7  C   LIG     1       1.902   1.550   0.052  1.00  0.00     0.056 A 
HETATM    8  C   LIG     1       1.822   2.938  -0.110  1.00  0.00     0.032 A 
HETATM    9  C   LIG     1       2.988   3.694  -0.280  1.00  0.00     0.018 A 
HETATM   10  C   LIG     1       4.250   3.080  -0.291  1.00  0.00     0.026 A 
HETATM   11  C   LIG     1       4.328   1.691  -0.128  1.00  0.00     0.018 A 
HETATM   12  C   LIG     1       3.162   0.932   0.043  1.00  0.00     0.032 A 
BRANCH  10  13
HETATM   13  C   LIG     1       5.469   3.934  -0.478  1.00  0.00     0.252 C 
HETATM   14  O   LIG     1       5.290   5.145  -0.614  1.00  0.00    -0.274 OA
HETATM   15 CL   LIG     1       7.058   3.201  -0.494  1.00  0.00    -0.038 Cl
ENDBRANCH  10  13
ENDBRANCH   1   7
BRANCH   4  16
HETATM   16  C   LIG     1      -0.829  -2.465   0.698  1.00  0.00     0.434 C 
HETATM   17  F   LIG     1       0.235  -3.308   0.732  1.00  0.00    -0.165 F 
HETATM   18  F   LIG     1      -1.514  -2.652   1.860  1.00  0.00    -0.165 F 
HETATM   19  F   LIG     1      -1.645  -2.905  -0.299  1.00  0.00    -0.165 F 
ENDBRANCH   4  16
TORSDOF 3
