REMARK  3 active torsions:
REMARK  status: ('A' for Active; 'I' for Inactive)
REMARK    1  A    between atoms: C_2  and  C_18 
REMARK    2  A    between atoms: C_6  and  C_7 
REMARK    3  A    between atoms: C_10  and  C_13 
ROOT
HETATM    1  S   LIG     1      -0.392  -1.903   0.276  1.00  0.00    -0.065 SA
HETATM    2  C   LIG     1       1.105  -1.093   0.447  1.00  0.00     0.091 A 
HETATM    3  C   LIG     1       0.880   0.276   0.418  1.00  0.00     0.028 A 
HETATM    4  N   LIG     1      -0.450   0.650   0.258  1.00  0.00    -0.352 N 
ATOM      5  HN  LIG     1      -0.777   1.615   0.216  1.00  0.00     0.166 HD
HETATM    6  C   LIG     1      -1.233  -0.407   0.167  1.00  0.00     0.085 A 
HETATM    7  C   LIG     1       1.901   1.356   0.535  1.00  0.00     0.070 C 
ENDROOT
BRANCH   6   8
HETATM    8  C   LIG     1      -2.702  -0.353  -0.009  1.00  0.00    -0.002 A 
HETATM    9  C   LIG     1      -3.504  -1.503  -0.106  1.00  0.00     0.015 A 
HETATM   10  C   LIG     1      -4.891  -1.413  -0.267  1.00  0.00     0.017 A 
HETATM   11  C   LIG     1      -5.523  -0.166  -0.338  1.00  0.00     0.048 A 
HETATM   12  C   LIG     1      -4.735   0.989  -0.247  1.00  0.00     0.017 A 
HETATM   13  C   LIG     1      -3.345   0.895  -0.086  1.00  0.00     0.015 A 
BRANCH  11  14
HETATM   14  C   LIG     1      -7.020  -0.064  -0.505  1.00  0.00     0.417 C 
HETATM   15  F   LIG     1      -7.642  -1.275  -0.576  1.00  0.00    -0.166 F 
HETATM   16  F   LIG     1      -7.615   0.599   0.524  1.00  0.00    -0.166 F 
HETATM   17  F   LIG     1      -7.374   0.603  -1.638  1.00  0.00    -0.166 F 
ENDBRANCH  11  14
ENDBRANCH   6   8
BRANCH   2  18
HETATM   18  C   LIG     1       2.378  -1.791   0.598  1.00  0.00     0.261 C 
HETATM   19 CL   LIG     1       2.338  -3.548   0.556  1.00  0.00    -0.038 Cl
HETATM   20  O   LIG     1       3.433  -1.175   0.745  1.00  0.00    -0.273 OA
ENDBRANCH   2  18
TORSDOF 3
