REMARK  1 active torsions:
REMARK  status: ('A' for Active; 'I' for Inactive)
REMARK    1  A    between atoms: C_4  and  C_7 
ROOT
HETATM    1  N   LIG     1       1.204  -1.398   0.033  1.00  0.00    -0.345 N 
ATOM      2  HN  LIG     1       1.207  -2.417   0.068  1.00  0.00     0.167 HD
HETATM    3  C   LIG     1       2.365  -0.699   0.013  1.00  0.00     0.119 A 
HETATM    4  C   LIG     1       2.427   0.681  -0.019  1.00  0.00     0.066 A 
HETATM    5  C   LIG     1       1.226   1.394  -0.039  1.00  0.00     0.033 A 
HETATM    6 CL   LIG     1       3.744  -1.720   0.133  1.00  0.00    -0.063 Cl
HETATM    7  C   LIG     1       0.049  -0.713   0.006  1.00  0.00     0.043 A 
HETATM    8  C   LIG     1       0.010   0.699  -0.029  1.00  0.00    -0.008 A 
HETATM    9  C   LIG     1      -1.224   1.372  -0.054  1.00  0.00     0.014 A 
HETATM   10  C   LIG     1      -2.417   0.653  -0.044  1.00  0.00     0.001 A 
HETATM   11  C   LIG     1      -2.383  -0.737  -0.009  1.00  0.00     0.002 A 
HETATM   12  C   LIG     1      -1.154  -1.403   0.016  1.00  0.00     0.030 A 
ENDROOT
BRANCH   4  13
HETATM   13  C   LIG     1       3.712   1.401  -0.041  1.00  0.00     0.255 C 
HETATM   14 CL   LIG     1       3.971   2.645   1.158  1.00  0.00    -0.038 Cl
HETATM   15  O   LIG     1       4.507   1.110  -0.929  1.00  0.00    -0.274 OA
ENDBRANCH   4  13
TORSDOF 1
