REMARK  3 active torsions:
REMARK  status: ('A' for Active; 'I' for Inactive)
REMARK    1  A    between atoms: C_1  and  C_3 
REMARK    2  A    between atoms: C_2  and  C_4 
REMARK    3  A    between atoms: C_2  and  O_9 
ROOT
HETATM    1  C   LIG     1       0.263   0.894  -0.764  1.00  0.00     0.027 A 
HETATM    2  C   LIG     1       0.164   3.259  -1.331  1.00  0.00     0.040 A 
HETATM    3  C   LIG     1       0.649   2.221  -0.523  1.00  0.00     0.034 A 
HETATM    4  C   LIG     1      -0.615   0.619  -1.823  1.00  0.00     0.016 A 
HETATM    5  C   LIG     1      -0.717   2.972  -2.379  1.00  0.00     0.017 A 
HETATM    6  C   LIG     1      -1.101   1.654  -2.626  1.00  0.00     0.002 A 
ENDROOT
BRANCH   2   7
HETATM    7  C   LIG     1       0.553   4.670  -1.091  1.00  0.00     0.292 C 
HETATM    8  O   LIG     1      -0.136   5.629  -1.404  1.00  0.00    -0.259 OA
BRANCH   7   9
HETATM    9  O   LIG     1       1.788   4.706  -0.538  1.00  0.00    -0.323 OA
HETATM   10  C   LIG     1       2.298   6.020  -0.309  1.00  0.00     0.213 C 
ENDBRANCH   7   9
ENDBRANCH   2   7
BRANCH   1  11
HETATM   11  C   LIG     1       0.799  -0.188   0.126  1.00  0.00     0.252 C 
HETATM   12  O   LIG     1       1.564   0.153   1.027  1.00  0.00    -0.274 OA
HETATM   13 CL   LIG     1       0.328  -1.853  -0.142  1.00  0.00    -0.038 Cl
ENDBRANCH   1  11
TORSDOF 3
