REMARK  3 active torsions:
REMARK  status: ('A' for Active; 'I' for Inactive)
REMARK    1  A    between atoms: C_3  and  C_7 
REMARK    2  A    between atoms: C_6  and  C_10 
REMARK    3  A    between atoms: C_13  and  C_16 
ROOT
HETATM    1  C   LIG     1       2.120  -1.356  -0.041  1.00  0.00    -0.002 A 
HETATM    2  C   LIG     1       3.397  -0.805  -0.239  1.00  0.00     0.015 A 
HETATM    3  C   LIG     1       4.525  -1.619  -0.397  1.00  0.00     0.017 A 
HETATM    4  C   LIG     1       4.413  -3.014  -0.361  1.00  0.00     0.048 A 
HETATM    5  C   LIG     1       3.145  -3.576  -0.160  1.00  0.00     0.017 A 
HETATM    6  C   LIG     1       2.018  -2.758  -0.003  1.00  0.00     0.015 A 
ENDROOT
BRANCH   1   7
HETATM    7  C   LIG     1       0.900  -0.533   0.124  1.00  0.00     0.085 A 
HETATM    8  S   LIG     1       0.950   1.191   0.052  1.00  0.00    -0.081 SA
HETATM    9  C   LIG     1      -0.734   1.266   0.315  1.00  0.00     0.086 A 
HETATM   10  C   LIG     1      -1.260  -0.006   0.444  1.00  0.00     0.102 A 
HETATM   11  N   LIG     1      -0.309  -1.025   0.332  1.00  0.00    -0.346 N 
ATOM     12  HN  LIG     1      -0.521  -2.020   0.402  1.00  0.00     0.167 HD
BRANCH  10  13
HETATM   13  C   LIG     1      -2.694  -0.265   0.679  1.00  0.00     0.269 C 
HETATM   14 CL   LIG     1      -3.183  -1.944   0.817  1.00  0.00    -0.037 Cl
HETATM   15  O   LIG     1      -3.483   0.675   0.768  1.00  0.00    -0.272 OA
ENDBRANCH  10  13
ENDBRANCH   1   7
BRANCH   4  16
HETATM   16  C   LIG     1       5.625  -3.897  -0.535  1.00  0.00     0.417 C 
HETATM   17  F   LIG     1       6.782  -3.201  -0.719  1.00  0.00    -0.166 F 
HETATM   18  F   LIG     1       5.843  -4.703   0.541  1.00  0.00    -0.166 F 
HETATM   19  F   LIG     1       5.516  -4.727  -1.609  1.00  0.00    -0.166 F 
ENDBRANCH   4  16
TORSDOF 3
