REMARK  1 active torsions:
REMARK  status: ('A' for Active; 'I' for Inactive)
REMARK    1  A    between atoms: C_4  and  C_6 
ROOT
HETATM    1  C   LIG     1       1.967   1.053   0.036  1.00  0.00     0.038 A 
HETATM    2  C   LIG     1       2.249  -0.321   0.087  1.00  0.00     0.012 A 
HETATM    3  C   LIG     1       1.227  -1.272   0.050  1.00  0.00     0.029 A 
HETATM    4  C   LIG     1       0.638   1.494  -0.049  1.00  0.00     0.061 A 
HETATM    5 BR   LIG     1       4.047  -0.895   0.200  1.00  0.00    -0.051 Br
HETATM    6  C   LIG     1      -0.079  -0.818  -0.027  1.00  0.00    -0.020 A 
HETATM    7  C   LIG     1      -0.368   0.541  -0.076  1.00  0.00     0.090 A 
HETATM    8  O   LIG     1      -1.711   0.790  -0.213  1.00  0.00    -0.349 OA
HETATM    9  C   LIG     1      -2.337  -0.474   0.103  1.00  0.00     0.180 C 
HETATM   10  C   LIG     1      -1.334  -1.596  -0.155  1.00  0.00     0.068 C 
ENDROOT
BRANCH   4  11
HETATM   11  C   LIG     1       0.321   2.943  -0.090  1.00  0.00     0.255 C 
HETATM   12  O   LIG     1      -0.598   3.354   0.613  1.00  0.00    -0.274 OA
HETATM   13 CL   LIG     1       1.311   3.973  -1.104  1.00  0.00    -0.038 Cl
ENDBRANCH   4  11
TORSDOF 1
