REMARK  2 active torsions:
REMARK  status: ('A' for Active; 'I' for Inactive)
REMARK    1  A    between atoms: C_1  and  C_2 
REMARK    2  A    between atoms: C_8  and  O_11 
ROOT
HETATM    1  C   LIG     1      -1.541  -0.808  -0.205  1.00  0.00     0.046 A 
HETATM    2  C   LIG     1      -0.657  -1.893  -0.190  1.00  0.00     0.026 A 
HETATM    3  C   LIG     1      -1.036   0.506  -0.132  1.00  0.00     0.054 A 
HETATM    4  C   LIG     1       0.715  -1.661  -0.047  1.00  0.00     0.023 A 
HETATM    5  C   LIG     1       0.335   0.731  -0.018  1.00  0.00     0.069 A 
HETATM    6 BR   LIG     1      -1.188  -3.695  -0.455  1.00  0.00    -0.050 Br
HETATM    7  C   LIG     1       1.204  -0.357   0.053  1.00  0.00     0.038 A 
ENDROOT
BRANCH   1   8
HETATM    8  C   LIG     1      -3.018  -0.937  -0.300  1.00  0.00     0.253 C 
HETATM    9  O   LIG     1      -3.575  -0.195  -1.112  1.00  0.00    -0.274 OA
HETATM   10 CL   LIG     1      -3.869  -1.987   0.803  1.00  0.00    -0.038 Cl
ENDBRANCH   1   8
BRANCH   5  11
HETATM   11  O   LIG     1       0.926   1.959   0.074  1.00  0.00    -0.356 OA
HETATM   12  C   LIG     1       0.245   3.023  -0.585  1.00  0.00     0.210 C 
ENDBRANCH   5  11
TORSDOF 2
