REMARK  2 active torsions:
REMARK  status: ('A' for Active; 'I' for Inactive)
REMARK    1  A    between atoms: C_3  and  C_4 
REMARK    2  A    between atoms: C_6  and  O_11 
ROOT
HETATM    1  N   LIG     1      -0.594   1.163  -0.006  1.00  0.00    -0.328 N 
ATOM      2  HN  LIG     1      -1.079   2.060  -0.003  1.00  0.00     0.169 HD
HETATM    3  C   LIG     1       0.728  -1.300  -0.014  1.00  0.00     0.033 A 
HETATM    4  C   LIG     1      -1.263  -0.003  -0.007  1.00  0.00     0.106 A 
HETATM    5  C   LIG     1       0.749   1.084  -0.009  1.00  0.00     0.143 A 
HETATM    6  C   LIG     1      -0.668  -1.247  -0.011  1.00  0.00     0.059 A 
HETATM    7  C   LIG     1       1.454  -0.108  -0.012  1.00  0.00     0.072 A 
HETATM    8 CL   LIG     1      -2.970   0.157  -0.004  1.00  0.00    -0.064 Cl
ENDROOT
BRANCH   3   9
HETATM    9  C   LIG     1       1.399  -2.636  -0.020  1.00  0.00     0.252 C 
HETATM   10 CL   LIG     1       3.145  -2.742  -0.026  1.00  0.00    -0.038 Cl
HETATM   11  O   LIG     1       0.665  -3.623  -0.022  1.00  0.00    -0.274 OA
ENDBRANCH   3   9
BRANCH   5  12
HETATM   12  O   LIG     1       1.509   2.237  -0.010  1.00  0.00    -0.341 OA
HETATM   13  C   LIG     1       0.724   3.427  -0.013  1.00  0.00     0.211 C 
ENDBRANCH   5  12
TORSDOF 2
