REMARK  1 active torsions:
REMARK  status: ('A' for Active; 'I' for Inactive)
REMARK    1  A    between atoms: C_1  and  C_2 
ROOT
HETATM    1  C   LIG     1       0.634   1.238  -0.020  1.00  0.00     0.042 A 
HETATM    2  N   LIG     1      -1.383  -0.099   0.136  1.00  0.00    -0.356 N 
ATOM      3  HN  LIG     1      -2.397  -0.161   0.226  1.00  0.00     0.166 HD
HETATM    4  C   LIG     1      -0.612  -1.202   0.045  1.00  0.00     0.103 A 
HETATM    5  C   LIG     1      -0.743   1.097   0.102  1.00  0.00     0.105 A 
HETATM    6  C   LIG     1       1.397   0.066  -0.112  1.00  0.00     0.021 A 
HETATM    7  C   LIG     1       0.765  -1.177  -0.080  1.00  0.00     0.043 A 
HETATM    8 CL   LIG     1      -1.469  -2.684   0.093  1.00  0.00    -0.065 Cl
ENDROOT
BRANCH   1   9
HETATM    9  C   LIG     1       1.300   2.571  -0.054  1.00  0.00     0.253 C 
HETATM   10  O   LIG     1       2.525   2.575  -0.172  1.00  0.00    -0.274 OA
HETATM   11 CL   LIG     1       0.348   4.032   0.073  1.00  0.00    -0.038 Cl
ENDBRANCH   1   9
TORSDOF 1
