REMARK  2 active torsions:
REMARK  status: ('A' for Active; 'I' for Inactive)
REMARK    1  A    between atoms: C_1  and  C_4 
REMARK    2  A    between atoms: C_2  and  C_4 
ROOT
HETATM    1  C   LIG     1       0.991  -1.206  -0.056  1.00  0.00    -0.039 A 
HETATM    2  C   LIG     1      -0.218  -0.453  -0.082  1.00  0.00    -0.019 A 
HETATM    3  C   LIG     1      -0.139   0.965  -0.039  1.00  0.00    -0.025 A 
HETATM    4  C   LIG     1       2.227  -0.534  -0.029  1.00  0.00     0.008 A 
HETATM    5  C   LIG     1       2.286   0.855  -0.018  1.00  0.00     0.001 A 
HETATM    6  C   LIG     1      -1.509  -1.028  -0.156  1.00  0.00     0.013 A 
HETATM    7  C   LIG     1       1.110   1.598  -0.015  1.00  0.00     0.012 A 
HETATM    8  C   LIG     1      -1.310   1.741  -0.024  1.00  0.00     0.012 A 
HETATM    9  C   LIG     1      -2.665  -0.241  -0.130  1.00  0.00     0.001 A 
HETATM   10  C   LIG     1      -2.567   1.141  -0.053  1.00  0.00     0.001 A 
ENDROOT
BRANCH   1  11
HETATM   11  C   LIG     1       1.020  -2.724  -0.066  1.00  0.00     0.135 C 
BRANCH  11  12
HETATM   12  C   LIG     1       0.527  -3.396   1.198  1.00  0.00     0.223 C 
HETATM   13  O   LIG     1      -0.388  -4.225   1.162  1.00  0.00    -0.280 OA
HETATM   14 CL   LIG     1       1.461  -2.998   2.614  1.00  0.00    -0.043 Cl
ENDBRANCH  11  12
ENDBRANCH   1  11
TORSDOF 2
