REMARK  2 active torsions:
REMARK  status: ('A' for Active; 'I' for Inactive)
REMARK    1  A    between atoms: C_3  and  C_9 
REMARK    2  A    between atoms: C_4  and  C_8 
ROOT
HETATM    1  O   LIG     1       0.270   0.042  -0.954  1.00  0.00    -0.241 OA
HETATM    2  C   LIG     1       1.211  -0.299  -0.045  1.00  0.00     0.090 A 
HETATM    3  C   LIG     1       1.383   0.738   0.855  1.00  0.00     0.087 A 
HETATM    4  C   LIG     1       0.442   1.730   0.420  1.00  0.00     0.086 A 
HETATM    5  N   LIG     1      -0.190   1.304  -0.688  1.00  0.00    -0.259 N 
ATOM      6  HN  LIG     1      -0.882   1.823  -1.229  1.00  0.00     0.195 HD
HETATM    7  C   LIG     1       1.798  -1.644  -0.211  1.00  0.00     0.080 C 
ENDROOT
BRANCH   4   8
HETATM    8  C   LIG     1       0.122   3.071   0.930  1.00  0.00     0.037 A 
HETATM    9  C   LIG     1       1.108   4.064   1.089  1.00  0.00     0.048 A 
HETATM   10  C   LIG     1       0.770   5.357   1.520  1.00  0.00     0.025 A 
HETATM   11 CL   LIG     1       2.780   3.800   0.718  1.00  0.00    -0.083 Cl
HETATM   12  C   LIG     1      -0.558   5.702   1.747  1.00  0.00     0.003 A 
HETATM   13  C   LIG     1      -1.552   4.745   1.575  1.00  0.00     0.025 A 
HETATM   14  C   LIG     1      -1.218   3.438   1.193  1.00  0.00     0.048 A 
HETATM   15 CL   LIG     1      -2.544   2.321   1.097  1.00  0.00    -0.083 Cl
ENDBRANCH   4   8
BRANCH   3  16
HETATM   16  C   LIG     1       2.343   0.702   1.950  1.00  0.00     0.257 C 
HETATM   17 CL   LIG     1       1.946   1.583   3.413  1.00  0.00    -0.038 Cl
HETATM   18  O   LIG     1       3.363   0.033   1.839  1.00  0.00    -0.274 OA
ENDBRANCH   3  16
TORSDOF 2
