REMARK  2 active torsions:
REMARK  status: ('A' for Active; 'I' for Inactive)
REMARK    1  A    between atoms: C_3  and  C_9 
REMARK    2  A    between atoms: C_4  and  C_8 
ROOT
HETATM    1  O   LIG     1       0.016  -0.585  -0.823  1.00  0.00    -0.241 OA
HETATM    2  C   LIG     1       1.187  -0.389  -0.172  1.00  0.00     0.090 A 
HETATM    3  C   LIG     1       1.262   0.922   0.259  1.00  0.00     0.087 A 
HETATM    4  C   LIG     1       0.035   1.503  -0.196  1.00  0.00     0.087 A 
HETATM    5  N   LIG     1      -0.697   0.587  -0.852  1.00  0.00    -0.259 N 
ATOM      6  HN  LIG     1      -1.607   0.734  -1.288  1.00  0.00     0.195 HD
HETATM    7  C   LIG     1       2.071  -1.568  -0.066  1.00  0.00     0.080 C 
ENDROOT
BRANCH   4   8
HETATM    8  C   LIG     1      -0.446   2.881  -0.114  1.00  0.00     0.054 A 
HETATM    9  C   LIG     1      -1.723   3.220   0.361  1.00  0.00     0.049 A 
HETATM   10  C   LIG     1      -2.145   4.558   0.378  1.00  0.00     0.025 A 
HETATM   11 CL   LIG     1      -2.833   2.052   0.995  1.00  0.00    -0.083 Cl
HETATM   12  C   LIG     1      -1.297   5.574  -0.062  1.00  0.00     0.005 A 
HETATM   13  C   LIG     1      -0.026   5.253  -0.528  1.00  0.00     0.043 A 
HETATM   14  C   LIG     1       0.381   3.920  -0.562  1.00  0.00     0.130 A 
HETATM   15  F   LIG     1       1.611   3.651  -1.027  1.00  0.00    -0.205 F 
ENDBRANCH   4   8
BRANCH   3  16
HETATM   16  C   LIG     1       2.391   1.476   0.994  1.00  0.00     0.257 C 
HETATM   17 CL   LIG     1       2.077   2.794   2.109  1.00  0.00    -0.038 Cl
HETATM   18  O   LIG     1       3.506   0.979   0.862  1.00  0.00    -0.274 OA
ENDBRANCH   3  16
TORSDOF 2
