REMARK  1 active torsions:
REMARK  status: ('A' for Active; 'I' for Inactive)
REMARK    1  A    between atoms: C_1  and  C_3 
ROOT
HETATM    1  C   LIG     1       0.261  -1.202  -0.442  1.00  0.00     0.072 C 
HETATM    2  C   LIG     1      -0.761  -3.013   0.074  1.00  0.00     0.002 C 
HETATM    3  C   LIG     1      -1.046  -1.522   0.334  1.00  0.00     0.013 C 
HETATM    4  C   LIG     1       0.726  -2.634  -0.052  1.00  0.00     0.013 C 
ENDROOT
BRANCH   1   5
HETATM    5  C   LIG     1       1.109  -0.001   0.066  1.00  0.00     0.223 C 
HETATM    6  O   LIG     1       1.995  -0.075   0.917  1.00  0.00    -0.279 OA
HETATM    7 CL   LIG     1       0.629   1.470  -0.741  1.00  0.00    -0.043 Cl
ENDBRANCH   1   5
TORSDOF 1
