REMARK  1 active torsions:
REMARK  status: ('A' for Active; 'I' for Inactive)
REMARK    1  A    between atoms: C_1  and  C_7 
ROOT
HETATM    1  C   LIG     1      -0.774   1.200  -0.016  1.00  0.00     0.034 A 
HETATM    2  C   LIG     1      -1.457  -0.032  -0.069  1.00  0.00    -0.040 A 
HETATM    3  C   LIG     1      -0.704  -1.236   0.014  1.00  0.00    -0.048 A 
HETATM    4  C   LIG     1       0.622   1.244   0.020  1.00  0.00     0.036 A 
HETATM    5  C   LIG     1       0.719  -1.190  -0.003  1.00  0.00    -0.038 A 
HETATM    6  C   LIG     1       1.360   0.063   0.024  1.00  0.00     0.018 A 
HETATM    7 BR   LIG     1       3.253   0.249   0.105  1.00  0.00    -0.051 Br
HETATM    8  C   LIG     1      -2.959  -0.075  -0.212  1.00  0.00     0.050 C 
HETATM    9  C   LIG     1      -1.416  -2.571   0.073  1.00  0.00     0.049 C 
HETATM   10  C   LIG     1       1.531  -2.465   0.001  1.00  0.00     0.050 C 
ENDROOT
BRANCH   1  11
HETATM   11  C   LIG     1      -1.468   2.516   0.024  1.00  0.00     0.252 C 
HETATM   12  O   LIG     1      -1.146   3.339  -0.830  1.00  0.00    -0.274 OA
HETATM   13 CL   LIG     1      -2.602   2.819   1.319  1.00  0.00    -0.038 Cl
ENDBRANCH   1  11
TORSDOF 1
