REMARK  1 active torsions:
REMARK  status: ('A' for Active; 'I' for Inactive)
REMARK    1  A    between atoms: C_2  and  C_7 
ROOT
HETATM    1  O   LIG     1       0.946   0.667   0.107  1.00  0.00    -0.317 OA
HETATM    2  C   LIG     1       0.935  -0.704   0.070  1.00  0.00     0.143 A 
HETATM    3  C   LIG     1      -0.382  -1.149  -0.001  1.00  0.00    -0.021 A 
HETATM    4  C   LIG     1      -1.195   0.019  -0.008  1.00  0.00     0.034 A 
HETATM    5  C   LIG     1      -0.340   1.091   0.059  1.00  0.00     0.143 A 
HETATM    6  C   LIG     1      -0.851  -2.558  -0.060  1.00  0.00     0.051 C 
ENDROOT
BRANCH   2   7
HETATM    7  C   LIG     1       2.193  -1.438   0.108  1.00  0.00     0.276 C 
HETATM    8  O   LIG     1       2.232  -2.666   0.075  1.00  0.00    -0.272 OA
HETATM    9 CL   LIG     1       3.630  -0.439   0.202  1.00  0.00    -0.036 Cl
ENDBRANCH   2   7
TORSDOF 1
