REMARK  2 active torsions:
REMARK  status: ('A' for Active; 'I' for Inactive)
REMARK    1  A    between atoms: C_1  and  C_7 
REMARK    2  A    between atoms: C_2  and  C_7 
ROOT
HETATM    1  C   LIG     1      -0.519   1.018   0.067  1.00  0.00    -0.044 A 
HETATM    2  C   LIG     1       0.829  -1.456  -0.033  1.00  0.00     0.084 A 
HETATM    3  C   LIG     1      -0.556  -1.406   0.019  1.00  0.00     0.119 A 
HETATM    4  C   LIG     1       1.537  -0.263  -0.025  1.00  0.00     0.119 A 
HETATM    5  C   LIG     1      -1.234  -0.189   0.074  1.00  0.00     0.050 A 
HETATM    6  C   LIG     1       0.882   0.967   0.027  1.00  0.00     0.050 A 
HETATM    7  F   LIG     1      -1.256  -2.548   0.010  1.00  0.00    -0.206 F 
HETATM    8  F   LIG     1       2.875  -0.291  -0.075  1.00  0.00    -0.206 F 
ENDROOT
BRANCH   1   9
HETATM    9  C   LIG     1      -1.242   2.340   0.110  1.00  0.00     0.135 C 
BRANCH   9  10
HETATM   10  C   LIG     1      -1.599   2.780   1.516  1.00  0.00     0.223 C 
HETATM   11  O   LIG     1      -2.653   2.437   2.048  1.00  0.00    -0.280 OA
HETATM   12 CL   LIG     1      -0.369   3.772   2.245  1.00  0.00    -0.043 Cl
ENDBRANCH   9  10
ENDBRANCH   1   9
TORSDOF 2
