REMARK  1 active torsions:
REMARK  status: ('A' for Active; 'I' for Inactive)
REMARK    1  A    between atoms: C_2  and  C_6 
ROOT
HETATM    1  S   LIG     1       1.197   0.895  -0.135  1.00  0.00    -0.096 SA
HETATM    2  C   LIG     1       0.990  -0.811  -0.014  1.00  0.00     0.084 A 
HETATM    3  C   LIG     1      -0.350  -1.126   0.082  1.00  0.00     0.033 A 
HETATM    4  C   LIG     1      -1.204   0.009   0.017  1.00  0.00     0.028 A 
HETATM    5  C   LIG     1      -0.488   1.178  -0.109  1.00  0.00     0.052 A 
HETATM    6 BR   LIG     1      -1.110  -2.839   0.346  1.00  0.00    -0.050 Br
ENDROOT
BRANCH   2   7
HETATM    7  C   LIG     1       2.187  -1.638  -0.011  1.00  0.00     0.260 C 
HETATM    8 CL   LIG     1       2.088  -3.078  -1.006  1.00  0.00    -0.038 Cl
HETATM    9  O   LIG     1       3.207  -1.323   0.598  1.00  0.00    -0.273 OA
ENDBRANCH   2   7
TORSDOF 1
