REMARK  3 active torsions:
REMARK  status: ('A' for Active; 'I' for Inactive)
REMARK    1  A    between atoms: C_2  and  C_6 
REMARK    2  A    between atoms: C_3  and  C_8 
REMARK    3  A    between atoms: C_5  and  C_7 
ROOT
HETATM    1  O   LIG     1       0.787   0.641  -0.001  1.00  0.00    -0.304 OA
HETATM    2  C   LIG     1       0.845  -0.724   0.012  1.00  0.00     0.174 A 
HETATM    3  C   LIG     1      -0.438  -1.250   0.029  1.00  0.00     0.068 A 
HETATM    4  C   LIG     1      -1.314  -0.121   0.028  1.00  0.00     0.057 A 
HETATM    5  C   LIG     1      -0.526   1.012   0.007  1.00  0.00     0.087 A 
ENDROOT
BRANCH   5   6
HETATM    6  C   LIG     1      -0.790   2.449  -0.007  1.00  0.00    -0.002 A 
HETATM    7  C   LIG     1      -2.107   2.936  -0.016  1.00  0.00     0.016 A 
HETATM    8  C   LIG     1      -2.364   4.312  -0.030  1.00  0.00     0.024 A 
HETATM    9  C   LIG     1      -1.305   5.216  -0.034  1.00  0.00     0.034 A 
HETATM   10  C   LIG     1       0.008   4.756  -0.026  1.00  0.00     0.024 A 
HETATM   11 CL   LIG     1      -1.622   6.906  -0.051  1.00  0.00    -0.084 Cl
HETATM   12  C   LIG     1       0.262   3.380  -0.012  1.00  0.00     0.016 A 
ENDBRANCH   5   6
BRANCH   2  13
HETATM   13  C   LIG     1       2.198  -1.344   0.006  1.00  0.00     0.440 C 
HETATM   14  F   LIG     1       3.191  -0.416  -0.012  1.00  0.00    -0.164 F 
HETATM   15  F   LIG     1       2.408  -2.109   1.107  1.00  0.00    -0.164 F 
HETATM   16  F   LIG     1       2.389  -2.131  -1.083  1.00  0.00    -0.164 F 
ENDBRANCH   2  13
BRANCH   3  17
HETATM   17  C   LIG     1      -0.749  -2.680   0.044  1.00  0.00     0.255 C 
HETATM   18  O   LIG     1       0.161  -3.501   0.045  1.00  0.00    -0.274 OA
HETATM   19 CL   LIG     1      -2.445  -3.124   0.060  1.00  0.00    -0.038 Cl
ENDBRANCH   3  17
TORSDOF 3
