REMARK  2 active torsions:
REMARK  status: ('A' for Active; 'I' for Inactive)
REMARK    1  A    between atoms: C_3  and  C_11 
REMARK    2  A    between atoms: C_5  and  C_7 
ROOT
HETATM    1  O   LIG     1       0.929   0.674  -0.050  1.00  0.00    -0.318 OA
HETATM    2  C   LIG     1       1.018  -0.684  -0.021  1.00  0.00     0.064 A 
HETATM    3  C   LIG     1      -0.244  -1.253   0.048  1.00  0.00     0.058 A 
HETATM    4  C   LIG     1      -1.149  -0.147   0.052  1.00  0.00     0.052 A 
HETATM    5  C   LIG     1      -0.392   1.006  -0.004  1.00  0.00     0.062 A 
HETATM    6  C   LIG     1       2.392  -1.233  -0.054  1.00  0.00     0.077 C 
ENDROOT
BRANCH   5   7
HETATM    7  C   LIG     1      -0.716   2.479  -0.017  1.00  0.00    -0.002 C 
HETATM    8  C   LIG     1      -2.239   2.704   0.037  1.00  0.00     0.021 C 
HETATM    9  C   LIG     1      -0.074   3.163   1.204  1.00  0.00     0.021 C 
HETATM   10  C   LIG     1      -0.172   3.124  -1.304  1.00  0.00     0.021 C 
ENDBRANCH   5   7
BRANCH   3  11
HETATM   11  C   LIG     1      -0.535  -2.687   0.108  1.00  0.00     0.254 C 
HETATM   12 CL   LIG     1      -2.229  -3.149   0.179  1.00  0.00    -0.038 Cl
HETATM   13  O   LIG     1       0.377  -3.511   0.111  1.00  0.00    -0.274 OA
ENDBRANCH   3  11
TORSDOF 2
