REMARK  2 active torsions:
REMARK  status: ('A' for Active; 'I' for Inactive)
REMARK    1  A    between atoms: C_3  and  C_8 
REMARK    2  A    between atoms: C_5  and  C_7 
ROOT
HETATM    1  O   LIG     1       0.921   0.672  -0.023  1.00  0.00    -0.314 OA
HETATM    2  C   LIG     1       1.007  -0.685   0.003  1.00  0.00     0.065 A 
HETATM    3  C   LIG     1      -0.257  -1.250   0.014  1.00  0.00     0.058 A 
HETATM    4  C   LIG     1      -1.160  -0.141  -0.015  1.00  0.00     0.057 A 
HETATM    5  C   LIG     1      -0.400   1.011  -0.032  1.00  0.00     0.087 A 
HETATM    6  C   LIG     1       2.380  -1.238   0.023  1.00  0.00     0.077 C 
ENDROOT
BRANCH   5   7
HETATM    7  C   LIG     1      -0.700   2.441  -0.054  1.00  0.00    -0.002 A 
HETATM    8  C   LIG     1      -2.028   2.895  -0.059  1.00  0.00     0.016 A 
HETATM    9  C   LIG     1      -2.319   4.265  -0.081  1.00  0.00     0.024 A 
HETATM   10  C   LIG     1      -1.282   5.193  -0.098  1.00  0.00     0.034 A 
HETATM   11  C   LIG     1       0.042   4.766  -0.090  1.00  0.00     0.024 A 
HETATM   12 CL   LIG     1      -1.638   6.875  -0.127  1.00  0.00    -0.084 Cl
HETATM   13  C   LIG     1       0.329   3.397  -0.068  1.00  0.00     0.016 A 
ENDBRANCH   5   7
BRANCH   3  14
HETATM   14  C   LIG     1      -0.548  -2.685   0.051  1.00  0.00     0.254 C 
HETATM   15  O   LIG     1       0.365  -3.506   0.092  1.00  0.00    -0.274 OA
HETATM   16 CL   LIG     1      -2.243  -3.149   0.036  1.00  0.00    -0.038 Cl
ENDBRANCH   3  14
TORSDOF 2
