REMARK  2 active torsions:
REMARK  status: ('A' for Active; 'I' for Inactive)
REMARK    1  A    between atoms: C_2  and  C_11 
REMARK    2  A    between atoms: C_3  and  C_8 
ROOT
HETATM    1  O   LIG     1       0.294  -0.848  -0.318  1.00  0.00    -0.234 OA
HETATM    2  C   LIG     1       1.490  -0.224  -0.106  1.00  0.00     0.144 A 
HETATM    3  C   LIG     1       1.267   1.140  -0.054  1.00  0.00     0.088 A 
HETATM    4  C   LIG     1      -0.147   1.264  -0.147  1.00  0.00     0.046 A 
HETATM    5  N   LIG     1      -0.730   0.074  -0.327  1.00  0.00    -0.264 N 
ATOM      6  HN  LIG     1      -1.726  -0.112  -0.446  1.00  0.00     0.194 HD
HETATM    7  C   LIG     1      -0.976   2.493  -0.092  1.00  0.00     0.071 C 
ENDROOT
BRANCH   2   8
HETATM    8  C   LIG     1       2.761  -0.975   0.077  1.00  0.00     0.094 A 
HETATM    9  N   LIG     1       3.900  -0.403   0.481  1.00  0.00    -0.258 N 
HETATM   10  O   LIG     1       4.838  -1.419   0.524  1.00  0.00    -0.242 OA
ATOM     11  HN  LIG     1       4.047   0.580   0.710  1.00  0.00     0.195 HD
HETATM   12  C   LIG     1       4.251  -2.591   0.164  1.00  0.00     0.074 A 
HETATM   13  C   LIG     1       2.925  -2.366  -0.112  1.00  0.00     0.068 A 
HETATM   14  C   LIG     1       5.125  -3.777   0.139  1.00  0.00     0.079 C 
ENDBRANCH   2   8
BRANCH   3  15
HETATM   15  C   LIG     1       2.222   2.223   0.081  1.00  0.00     0.257 C 
HETATM   16 CL   LIG     1       3.541   2.284  -1.073  1.00  0.00    -0.038 Cl
HETATM   17  O   LIG     1       1.998   3.120   0.892  1.00  0.00    -0.274 OA
ENDBRANCH   3  15
TORSDOF 2
