REMARK  2 active torsions:
REMARK  status: ('A' for Active; 'I' for Inactive)
REMARK    1  A    between atoms: C_2  and  C_6 
REMARK    2  A    between atoms: C_10  and  C_12 
ROOT
HETATM    1  C   LIG     1      -0.938  -2.414  -0.026  1.00  0.00     0.118 A 
HETATM    2  O   LIG     1       0.003  -3.374  -0.293  1.00  0.00    -0.236 OA
HETATM    3  N   LIG     1      -0.573  -4.629  -0.302  1.00  0.00    -0.256 N 
ATOM      4  HN  LIG     1      -0.103  -5.518  -0.475  1.00  0.00     0.195 HD
HETATM    5  C   LIG     1      -1.875  -4.443  -0.038  1.00  0.00     0.119 A 
HETATM    6  C   LIG     1      -2.143  -3.062   0.150  1.00  0.00     0.077 A 
ENDROOT
BRANCH   1   7
HETATM    7  C   LIG     1      -0.617  -1.014   0.029  1.00  0.00     0.040 A 
HETATM    8  C   LIG     1       0.628  -0.447  -0.167  1.00  0.00     0.022 A 
HETATM    9  C   LIG     1       0.608   0.975  -0.052  1.00  0.00     0.008 A 
HETATM   10  C   LIG     1      -0.653   1.449   0.229  1.00  0.00     0.050 A 
HETATM   11  S   LIG     1      -1.797   0.187   0.355  1.00  0.00    -0.099 SA
ENDBRANCH   1   7
BRANCH   5  12
HETATM   12  C   LIG     1      -2.844  -5.545   0.033  1.00  0.00     0.270 C 
HETATM   13  O   LIG     1      -4.020  -5.300   0.301  1.00  0.00    -0.272 OA
HETATM   14 CL   LIG     1      -2.260  -7.172  -0.281  1.00  0.00    -0.037 Cl
ENDBRANCH   5  12
TORSDOF 2
