REMARK  2 active torsions:
REMARK  status: ('A' for Active; 'I' for Inactive)
REMARK    1  A    between atoms: N_1  and  C_8 
REMARK    2  A    between atoms: C_2  and  C_12 
ROOT
HETATM    1  N   LIG     1       0.600  -1.106   0.038  1.00  0.00    -0.279 N 
HETATM    2  C   LIG     1      -0.766  -1.336  -0.051  1.00  0.00     0.115 A 
HETATM    3  C   LIG     1      -1.340  -0.070  -0.067  1.00  0.00     0.062 A 
HETATM    4  C   LIG     1      -0.284   0.845   0.030  1.00  0.00     0.024 A 
HETATM    5  N   LIG     1       0.887   0.219   0.105  1.00  0.00    -0.302 N 
ATOM      6  HN  LIG     1       1.809   0.646   0.194  1.00  0.00     0.186 HD
HETATM    7  C   LIG     1      -0.345   2.326   0.055  1.00  0.00     0.070 C 
ENDROOT
BRANCH   1   8
HETATM    8  C   LIG     1       1.743  -2.050   0.015  1.00  0.00     0.043 C 
HETATM    9  C   LIG     1       1.837  -2.820   1.345  1.00  0.00     0.039 C 
HETATM   10  C   LIG     1       1.666  -3.004  -1.193  1.00  0.00     0.039 C 
HETATM   11  C   LIG     1       3.097  -1.293  -0.140  1.00  0.00     0.039 C 
ENDBRANCH   1   8
BRANCH   2  12
HETATM   12  C   LIG     1      -1.454  -2.615  -0.104  1.00  0.00     0.270 C 
HETATM   13  O   LIG     1      -0.985  -3.651   0.353  1.00  0.00    -0.272 OA
HETATM   14 CL   LIG     1      -3.031  -2.560  -0.876  1.00  0.00    -0.037 Cl
ENDBRANCH   2  12
TORSDOF 2
