REMARK  2 active torsions:
REMARK  status: ('A' for Active; 'I' for Inactive)
REMARK    1  A    between atoms: N_1  and  C_8 
REMARK    2  A    between atoms: C_2  and  C_10 
ROOT
HETATM    1  N   LIG     1       0.706  -0.982   0.141  1.00  0.00    -0.286 N 
HETATM    2  C   LIG     1       1.828  -0.197   0.306  1.00  0.00     0.132 A 
HETATM    3  C   LIG     1       1.346   1.095   0.209  1.00  0.00     0.067 A 
HETATM    4  C   LIG     1      -0.034   0.997  -0.066  1.00  0.00     0.042 A 
HETATM    5  N   LIG     1      -0.418  -0.282  -0.115  1.00  0.00    -0.301 N 
ATOM      6  HN  LIG     1      -1.352  -0.647  -0.304  1.00  0.00     0.187 HD
HETATM    7  C   LIG     1      -1.029   2.078  -0.274  1.00  0.00     0.071 C 
HETATM    8 BR   LIG     1       2.235   2.732   0.448  1.00  0.00    -0.046 Br
ENDROOT
BRANCH   2   9
HETATM    9  C   LIG     1       3.151  -0.728   0.557  1.00  0.00     0.271 C 
HETATM   10  O   LIG     1       3.315  -1.787   1.156  1.00  0.00    -0.272 OA
HETATM   11 CL   LIG     1       4.478   0.179  -0.128  1.00  0.00    -0.037 Cl
ENDBRANCH   2   9
BRANCH   1  12
HETATM   12  C   LIG     1       0.612  -2.434   0.149  1.00  0.00     0.145 C 
HETATM   13  C   LIG     1       0.291  -2.984   1.527  1.00  0.00     0.028 C 
ENDBRANCH   1  12
TORSDOF 2
