REMARK  1 active torsions:
REMARK  status: ('A' for Active; 'I' for Inactive)
REMARK    1  A    between atoms: C_3  and  C_13 
ROOT
HETATM    1  N   LIG     1      -1.587   1.022  -0.254  1.00  0.00    -0.351 N 
ATOM      2  HN  LIG     1      -1.897   1.991  -0.334  1.00  0.00     0.166 HD
HETATM    3  C   LIG     1      -2.430  -0.067  -0.228  1.00  0.00     0.096 A 
HETATM    4  C   LIG     1      -1.618  -1.184  -0.109  1.00  0.00     0.050 A 
HETATM    5  C   LIG     1      -0.272   0.630  -0.157  1.00  0.00     0.046 A 
HETATM    6  C   LIG     1      -0.258  -0.763  -0.064  1.00  0.00     0.015 A 
HETATM    7  C   LIG     1       0.996  -1.396   0.046  1.00  0.00     0.048 A 
HETATM    8  C   LIG     1       2.182  -0.666   0.062  1.00  0.00     0.048 A 
HETATM    9  C   LIG     1       2.123   0.720  -0.033  1.00  0.00     0.037 A 
HETATM   10  C   LIG     1       0.902   1.399  -0.144  1.00  0.00     0.054 A 
HETATM   11 CL   LIG     1       0.986  -3.101   0.158  1.00  0.00    -0.083 Cl
HETATM   12 CL   LIG     1       3.585   1.631  -0.014  1.00  0.00    -0.084 Cl
ENDROOT
BRANCH   3  13
HETATM   13  C   LIG     1      -3.883  -0.022  -0.310  1.00  0.00     0.268 C 
HETATM   14  O   LIG     1      -4.569  -1.038  -0.277  1.00  0.00    -0.272 OA
HETATM   15 CL   LIG     1      -4.543   1.595  -0.458  1.00  0.00    -0.037 Cl
ENDBRANCH   3  13
TORSDOF 1
