REMARK  1 active torsions:
REMARK  status: ('A' for Active; 'I' for Inactive)
REMARK    1  A    between atoms: C_1  and  C_3 
ROOT
HETATM    1  C   LIG     1      -1.395  -0.130  -0.080  1.00  0.00     0.065 A 
HETATM    2  C   LIG     1      -0.591  -1.273  -0.049  1.00  0.00     0.134 A 
HETATM    3  C   LIG     1      -0.775   1.133  -0.069  1.00  0.00     0.022 A 
HETATM    4  C   LIG     1       0.798  -1.172   0.009  1.00  0.00     0.085 A 
HETATM    5  C   LIG     1       1.389   0.083   0.031  1.00  0.00     0.119 A 
HETATM    6  F   LIG     1      -1.119  -2.502  -0.103  1.00  0.00    -0.205 F 
HETATM    7  C   LIG     1       0.617   1.238  -0.010  1.00  0.00     0.043 A 
HETATM    8  F   LIG     1       2.723   0.183   0.086  1.00  0.00    -0.206 F 
ENDROOT
BRANCH   1   9
HETATM    9  C   LIG     1      -2.883  -0.199  -0.136  1.00  0.00     0.255 C 
HETATM   10  O   LIG     1      -3.458   0.811  -0.544  1.00  0.00    -0.274 OA
HETATM   11 CL   LIG     1      -3.737  -1.622   0.405  1.00  0.00    -0.038 Cl
ENDBRANCH   1   9
TORSDOF 1
