REMARK  1 active torsions:
REMARK  status: ('A' for Active; 'I' for Inactive)
REMARK    1  A    between atoms: C_1  and  C_2 
ROOT
HETATM    1  C   LIG     1       0.368   0.812   1.024  1.00  0.00     0.027 A 
HETATM    2  C   LIG     1      -0.672   0.272   1.795  1.00  0.00     0.023 A 
HETATM    3  C   LIG     1      -1.391   1.072   2.703  1.00  0.00    -0.055 A 
HETATM    4  C   LIG     1      -1.065   2.436   2.835  1.00  0.00    -0.056 A 
HETATM    5  C   LIG     1       0.685   2.167   1.168  1.00  0.00     0.017 A 
HETATM    6  C   LIG     1      -0.024   2.970   2.063  1.00  0.00     0.008 A 
HETATM    7  C   LIG     1      -2.501   0.452   3.510  1.00  0.00     0.049 C 
HETATM    8  C   LIG     1      -1.806   3.332   3.791  1.00  0.00     0.049 C 
ENDROOT
BRANCH   1   9
HETATM    9  C   LIG     1       1.152  -0.017   0.049  1.00  0.00     0.252 C 
HETATM   10  O   LIG     1       2.053   0.545  -0.573  1.00  0.00    -0.274 OA
HETATM   11 CL   LIG     1       0.768  -1.713  -0.166  1.00  0.00    -0.038 Cl
ENDBRANCH   1   9
TORSDOF 1
