REMARK  1 active torsions:
REMARK  status: ('A' for Active; 'I' for Inactive)
REMARK    1  A    between atoms: C_1  and  C_3 
ROOT
HETATM    1  C   LIG     1       0.076  -1.429   0.191  1.00  0.00     0.033 A 
HETATM    2  C   LIG     1       1.288  -0.713   0.069  1.00  0.00    -0.041 A 
HETATM    3  C   LIG     1       1.226   0.690  -0.110  1.00  0.00    -0.055 A 
HETATM    4  C   LIG     1      -1.160  -0.779   0.051  1.00  0.00     0.017 A 
HETATM    5  C   LIG     1       2.623  -1.411   0.139  1.00  0.00     0.050 C 
HETATM    6  C   LIG     1      -1.208   0.593  -0.166  1.00  0.00     0.002 A 
HETATM    7  C   LIG     1      -0.023   1.321  -0.237  1.00  0.00     0.007 A 
HETATM    8  C   LIG     1       2.469   1.535  -0.209  1.00  0.00     0.049 C 
ENDROOT
BRANCH   1   9
HETATM    9  C   LIG     1       0.017  -2.889   0.479  1.00  0.00     0.252 C 
HETATM   10  O   LIG     1      -0.654  -3.580  -0.285  1.00  0.00    -0.274 OA
HETATM   11 CL   LIG     1       0.814  -3.490   1.914  1.00  0.00    -0.038 Cl
ENDBRANCH   1   9
TORSDOF 1
