REMARK  1 active torsions:
REMARK  status: ('A' for Active; 'I' for Inactive)
REMARK    1  A    between atoms: C_4  and  C_7 
ROOT
HETATM    1  N   UNL     1       0.026   1.100  -0.013  1.00  0.00    -0.348 N 
ATOM      2  HN  UNL     1       0.399   2.049  -0.019  1.00  0.00     0.167 HD
HETATM    3  N   UNL     1      -1.366  -0.619  -0.008  1.00  0.00    -0.354 N 
HETATM    4  C   UNL     1      -1.242   0.748  -0.007  1.00  0.00     0.080 A 
HETATM    5  C   UNL     1       0.745  -0.072  -0.010  1.00  0.00     0.022 A 
HETATM    6  C   UNL     1      -0.108  -1.153  -0.010  1.00  0.00     0.114 A 
HETATM    7  C   UNL     1       2.223  -0.045  -0.000  1.00  0.00     0.069 C 
HETATM    8  H   UNL     1      -2.211  -1.125  -0.007  1.00  0.00     0.166 HD
ENDROOT
BRANCH   4   9
HETATM    9  C   UNL     1      -2.415   1.664   0.011  1.00  0.00     0.072 C 
HETATM   10  C   UNL     1      -2.829   2.004   1.434  1.00  0.00     0.013 C 
ENDBRANCH   4   9
TORSDOF 1
