REMARK  0 active torsions:
REMARK  status: ('A' for Active; 'I' for Inactive)
ROOT
HETATM    1  N   UNL     1       0.023   1.606  -0.004  1.00  0.00    -0.354 N 
HETATM    2  C   UNL     1      -1.101   0.815  -0.006  1.00  0.00     0.059 A 
HETATM    3  C   UNL     1       1.164   0.838   0.004  1.00  0.00     0.043 A 
HETATM    4  C   UNL     1       0.760  -0.497  -0.007  1.00  0.00     0.003 A 
HETATM    5  C   UNL     1      -0.671  -0.511  -0.001  1.00  0.00     0.006 A 
HETATM    6  N   UNL     1      -3.375   0.175   0.004  1.00  0.00    -0.373 N 
ATOM      7  HN  UNL     1      -4.369   0.403   0.005  1.00  0.00     0.164 HD
HETATM    8  C   UNL     1      -2.446   1.157  -0.008  1.00  0.00     0.117 A 
HETATM    9  C   UNL     1      -1.642  -1.523   0.010  1.00  0.00     0.031 A 
HETATM   10  C   UNL     1       1.751  -1.500  -0.015  1.00  0.00     0.014 A 
HETATM   11  C   UNL     1       2.510   1.223   0.020  1.00  0.00     0.030 A 
HETATM   12  C   UNL     1      -2.966  -1.113   0.015  1.00  0.00     0.088 A 
HETATM   13  C   UNL     1       3.102  -1.133  -0.003  1.00  0.00     0.001 A 
HETATM   14  C   UNL     1       3.473   0.209   0.018  1.00  0.00     0.002 A 
HETATM   15  H   UNL     1       0.013   2.591  -0.009  1.00  0.00     0.166 HD
ENDROOT
TORSDOF 0
