REMARK  0 active torsions:
REMARK  status: ('A' for Active; 'I' for Inactive)
ROOT
HETATM    1  C   UNL     1      -0.200   0.452   0.002  1.00  0.00     0.048 A 
HETATM    2  N   UNL     1      -1.325   1.251  -0.005  1.00  0.00    -0.365 N 
HETATM    3  C   UNL     1      -2.458   0.483   0.009  1.00  0.00     0.089 A 
HETATM    4  C   UNL     1      -0.646  -0.869   0.006  1.00  0.00    -0.008 A 
HETATM    5  C   UNL     1      -2.069  -0.836   0.018  1.00  0.00     0.030 A 
HETATM    6  C   UNL     1       1.163   0.806   0.006  1.00  0.00    -0.035 A 
HETATM    7  C   UNL     1       1.662  -1.590  -0.002  1.00  0.00     0.002 A 
HETATM    8  C   UNL     1       0.302  -1.909   0.005  1.00  0.00     0.014 A 
HETATM    9  C   UNL     1       2.081  -0.260   0.001  1.00  0.00     0.009 A 
HETATM   10  C   UNL     1       1.638   2.227   0.025  1.00  0.00     0.050 C 
HETATM   11  H   UNL     1      -1.314   2.235  -0.018  1.00  0.00     0.165 HD
ENDROOT
TORSDOF 0
