REMARK  2 active torsions:
REMARK  status: ('A' for Active; 'I' for Inactive)
REMARK    1  A    between atoms: C_2  and  C_6 
REMARK    2  A    between atoms: C_6  and  O_7 
ROOT
HETATM    1  O   UNL     1      -0.045   0.999   0.011  1.00  0.00    -0.318 OA
HETATM    2  C   UNL     1       0.686  -0.157  -0.004  1.00  0.00     0.076 A 
HETATM    3  C   UNL     1      -1.360   0.637   0.003  1.00  0.00     0.049 A 
HETATM    4  C   UNL     1      -1.475  -0.735  -0.016  1.00  0.00     0.035 A 
HETATM    5  C   UNL     1      -0.157  -1.248  -0.019  1.00  0.00     0.037 A 
HETATM    6  C   UNL     1      -2.350   1.733   0.018  1.00  0.00     0.076 C 
ENDROOT
BRANCH   2   7
HETATM    7  C   UNL     1       2.159  -0.014  -0.000  1.00  0.00     0.229 C 
BRANCH   7   8
HETATM    8  O   UNL     1       2.534   0.660   1.194  1.00  0.00    -0.394 OA
HETATM    9  H   UNL     1       2.105   1.529   1.223  1.00  0.00     0.209 HD
ENDBRANCH   7   8
ENDBRANCH   2   7
TORSDOF 2
