REMARK  0 active torsions:
REMARK  status: ('A' for Active; 'I' for Inactive)
ROOT
HETATM    1  N   UNL     1      -1.371  -0.403   0.008  1.00  0.00    -0.307 N 
ATOM      2  HN  UNL     1      -2.359  -0.657   0.016  1.00  0.00     0.186 HD
HETATM    3  N   UNL     1      -0.992   0.897   0.012  1.00  0.00    -0.270 N 
HETATM    4  C   UNL     1       0.278   1.393   0.005  1.00  0.00     0.236 A 
HETATM    5  C   UNL     1      -0.454  -1.317  -0.006  1.00  0.00     0.000 A 
HETATM    6  O   UNL     1       0.483   2.606   0.019  1.00  0.00    -0.272 OA
HETATM    7  C   UNL     1       1.412   0.412  -0.027  1.00  0.00     0.110 A 
HETATM    8  C   UNL     1       1.023  -1.047  -0.024  1.00  0.00     0.062 A 
HETATM    9  C   UNL     1      -0.893  -2.760  -0.008  1.00  0.00     0.065 C 
HETATM   10  H   UNL     1      -1.719   1.561   0.020  1.00  0.00     0.190 HD
ENDROOT
TORSDOF 0
