REMARK  1 active torsions:
REMARK  status: ('A' for Active; 'I' for Inactive)
REMARK    1  A    between atoms: C_4  and  N_6 
ROOT
HETATM    1  C   UNL     1       1.287  -0.735   0.064  1.00  0.00     0.092 A 
HETATM    2  C   UNL     1       2.531  -1.444   0.122  1.00  0.00     0.103 C 
HETATM    3  N   UNL     1       3.520  -2.051   0.207  1.00  0.00    -0.191 NA
HETATM    4  C   UNL     1       0.069  -1.448   0.105  1.00  0.00     0.048 A 
HETATM    5  C   UNL     1       1.273   0.668   0.006  1.00  0.00     0.057 A 
HETATM    6 CL   UNL     1       2.728   1.602  -0.067  1.00  0.00    -0.083 Cl
HETATM    7  C   UNL     1      -1.140   0.666  -0.006  1.00  0.00     0.004 A 
HETATM    8  C   UNL     1      -1.132  -0.729   0.020  1.00  0.00     0.030 A 
HETATM    9  C   UNL     1       0.063   1.365  -0.013  1.00  0.00     0.025 A 
ENDROOT
BRANCH   4  10
HETATM   10  N   UNL     1       0.009  -2.849  -0.006  1.00  0.00    -0.398 N 
HETATM   11  H   UNL     1       0.834  -3.383   0.049  1.00  0.00     0.156 HD
HETATM   12  H   UNL     1      -0.858  -3.295  -0.140  1.00  0.00     0.156 HD
ENDBRANCH   4  10
TORSDOF 1
