REMARK  2 active torsions:
REMARK  status: ('A' for Active; 'I' for Inactive)
REMARK    1  A    between atoms: C_1  and  C_3 
REMARK    2  A    between atoms: C_2  and  N_4 
REMARK       I    between atoms: C_3  and  N_6 
ROOT
HETATM    1  C   UNL     1      -0.438  -0.954  -0.888  1.00  0.00     0.058 A 
HETATM    2  C   UNL     1       0.640  -1.409  -0.084  1.00  0.00     0.046 A 
HETATM    3  C   UNL     1      -0.648   0.424  -1.115  1.00  0.00     0.019 A 
HETATM    4  C   UNL     1       1.472  -0.408   0.464  1.00  0.00     0.030 A 
HETATM    5  C   UNL     1       0.188   1.374  -0.536  1.00  0.00     0.001 A 
HETATM    6  C   UNL     1       1.252   0.958   0.251  1.00  0.00     0.002 A 
ENDROOT
BRANCH   2   7
HETATM    7  N   UNL     1       0.853  -2.777   0.203  1.00  0.00    -0.380 N 
HETATM    8  C   UNL     1       1.633  -3.107   1.410  1.00  0.00     0.123 C 
HETATM    9  C   UNL     1       1.331  -4.549   1.812  1.00  0.00     0.020 C 
HETATM   10  C   UNL     1       1.628  -5.515   0.667  1.00  0.00     0.003 C 
HETATM   11  C   UNL     1       0.919  -5.081  -0.616  1.00  0.00     0.020 C 
HETATM   12  C   UNL     1       1.225  -3.617  -0.959  1.00  0.00     0.123 C 
ENDBRANCH   2   7
BRANCH   1  13
HETATM   13  C   UNL     1      -1.466  -1.841  -1.511  1.00  0.00     0.251 C 
HETATM   14  O   UNL     1      -1.990  -1.572  -2.584  1.00  0.00    -0.268 OA
HETATM   15  N   UNL     1      -1.808  -2.969  -0.823  1.00  0.00    -0.366 N 
HETATM   16  H   UNL     1      -1.376  -3.170   0.039  1.00  0.00     0.159 HD
HETATM   17  H   UNL     1      -2.486  -3.582  -1.188  1.00  0.00     0.159 HD
ENDBRANCH   1  13
TORSDOF 2
