REMARK  1 active torsions:
REMARK  status: ('A' for Active; 'I' for Inactive)
REMARK    1  A    between atoms: C_5  and  N_9 
ROOT
HETATM    1  N   UNL     1      -0.714   1.196   0.012  1.00  0.00    -0.359 N 
ATOM      2  HN  UNL     1      -1.209   2.088   0.042  1.00  0.00     0.165 HD
HETATM    3  N   UNL     1       0.644  -1.283  -0.034  1.00  0.00    -0.349 N 
ATOM      4  HN  UNL     1       1.144  -2.172  -0.040  1.00  0.00     0.167 HD
HETATM    5  C   UNL     1      -0.700  -1.221  -0.068  1.00  0.00     0.121 A 
HETATM    6  C   UNL     1      -1.375   0.006  -0.040  1.00  0.00     0.049 A 
HETATM    7  C   UNL     1       0.638   1.126   0.022  1.00  0.00     0.021 A 
HETATM    8  C   UNL     1       1.292  -0.095   0.009  1.00  0.00     0.114 A 
HETATM    9  C   UNL     1      -2.871   0.069  -0.049  1.00  0.00     0.072 C 
HETATM   10  C   UNL     1       1.406   2.411   0.024  1.00  0.00     0.069 C 
ENDROOT
BRANCH   5  11
HETATM   11  N   UNL     1      -1.356  -2.442  -0.212  1.00  0.00    -0.384 N 
HETATM   12  H   UNL     1      -2.339  -2.472  -0.245  1.00  0.00     0.157 HD
HETATM   13  H   UNL     1      -0.836  -3.276  -0.280  1.00  0.00     0.157 HD
ENDBRANCH   5  11
TORSDOF 1
