REMARK  2 active torsions:
REMARK  status: ('A' for Active; 'I' for Inactive)
REMARK    1  A    between atoms: C_1  and  S_2 
REMARK    2  A    between atoms: S_2  and  N_9 
ROOT
HETATM    1  C   UNL     1       0.719  -1.612   0.004  1.00  0.00     0.105 A 
HETATM    2  C   UNL     1       1.234  -0.339  -0.024  1.00  0.00     0.099 A 
HETATM    3  C   UNL     1      -0.713  -1.597  -0.009  1.00  0.00     0.058 A 
HETATM    4  S   UNL     1       0.029   0.862  -0.048  1.00  0.00    -0.064 SA
HETATM    5  C   UNL     1      -1.190  -0.311  -0.030  1.00  0.00     0.077 A 
HETATM    6 CL   UNL     1       2.880   0.162  -0.041  1.00  0.00    -0.075 Cl
HETATM    7 CL   UNL     1      -2.838   0.171  -0.036  1.00  0.00    -0.076 Cl
ENDROOT
BRANCH   1   8
HETATM    8  S   UNL     1       1.663  -3.047   0.057  1.00  0.00     0.241 S 
HETATM    9  O   UNL     1       2.509  -2.893   1.216  1.00  0.00    -0.206 OA
HETATM   10  O   UNL     1       0.728  -4.135  -0.085  1.00  0.00    -0.206 OA
BRANCH   8  11
HETATM   11  N   UNL     1       2.671  -3.082  -1.282  1.00  0.00    -0.225 NA
HETATM   12  H   UNL     1       3.349  -2.323  -1.216  1.00  0.00     0.136 HD
HETATM   13  H   UNL     1       2.114  -2.969  -2.129  1.00  0.00     0.136 HD
ENDBRANCH   8  11
ENDBRANCH   1   8
TORSDOF 2
