REMARK  2 active torsions:
REMARK  status: ('A' for Active; 'I' for Inactive)
REMARK    1  A    between atoms: C_1  and  N_5 
REMARK    2  A    between atoms: C_4  and  N_6 
ROOT
HETATM    1  C   UNL     1       1.234  -0.665  -0.041  1.00  0.00     0.125 A 
HETATM    2  N   UNL     1       0.103  -1.392  -0.015  1.00  0.00    -0.351 N 
ATOM      3  HN  UNL     1       0.121  -2.412  -0.008  1.00  0.00     0.166 HD
HETATM    4  C   UNL     1       1.262   0.741  -0.120  1.00  0.00     0.070 A 
HETATM    5  C   UNL     1      -1.058  -0.702   0.001  1.00  0.00     0.090 A 
HETATM    6  C   UNL     1       0.046   1.412  -0.026  1.00  0.00     0.034 A 
HETATM    7  C   UNL     1      -1.138   0.681   0.013  1.00  0.00     0.019 A 
ENDROOT
BRANCH   1   8
HETATM    8  N   UNL     1       2.444  -1.378  -0.009  1.00  0.00    -0.384 N 
HETATM    9  H   UNL     1       2.435  -2.361   0.045  1.00  0.00     0.157 HD
HETATM   10  H   UNL     1       3.301  -0.895  -0.041  1.00  0.00     0.157 HD
ENDBRANCH   1   8
BRANCH   4  11
HETATM   11  N   UNL     1       2.483   1.450  -0.058  1.00  0.00    -0.396 N 
HETATM   12  H   UNL     1       3.337   0.965  -0.125  1.00  0.00     0.156 HD
HETATM   13  H   UNL     1       2.479   2.428   0.053  1.00  0.00     0.156 HD
ENDBRANCH   4  11
TORSDOF 2
