REMARK  4 active torsions:
REMARK  status: ('A' for Active; 'I' for Inactive)
REMARK    1  A    between atoms: C_1  and  C_4 
REMARK    2  A    between atoms: C_1  and  O_7 
REMARK    3  A    between atoms: C_3  and  C_4 
REMARK    4  A    between atoms: C_6  and  O_8 
ROOT
HETATM    1  C   UNL     1       0.690  -2.310   0.632  1.00  0.00    -0.046 A 
HETATM    2  C   UNL     1       2.019  -2.676   0.360  1.00  0.00     0.044 A 
HETATM    3  C   UNL     1       2.382  -4.017   0.221  1.00  0.00     0.068 A 
HETATM    4  C   UNL     1       0.085  -4.659   0.651  1.00  0.00     0.003 A 
HETATM    5  C   UNL     1      -0.273  -3.317   0.784  1.00  0.00     0.008 A 
HETATM    6  C   UNL     1       1.406  -5.005   0.369  1.00  0.00     0.037 A 
ENDROOT
BRANCH   1   7
HETATM    7  C   UNL     1       0.318  -0.855   0.810  1.00  0.00     0.149 C 
BRANCH   7   8
HETATM    8  C   UNL     1       0.637   0.039  -0.372  1.00  0.00     0.262 C 
HETATM    9  O   UNL     1       1.090  -0.314  -1.452  1.00  0.00    -0.265 OA
BRANCH   8  10
HETATM   10  O   UNL     1       0.342   1.334  -0.045  1.00  0.00    -0.326 OA
HETATM   11  C   UNL     1       0.612   2.275  -1.086  1.00  0.00     0.213 C 
ENDBRANCH   8  10
ENDBRANCH   7   8
ENDBRANCH   1   7
BRANCH   3  12
HETATM   12  O   UNL     1       3.640  -4.481  -0.050  1.00  0.00    -0.356 OA
HETATM   13  C   UNL     1       4.652  -3.499  -0.238  1.00  0.00     0.210 C 
ENDBRANCH   3  12
TORSDOF 4
