REMARK  0 active torsions:
REMARK  status: ('A' for Active; 'I' for Inactive)
ROOT
HETATM    1  N   UNL     1       2.425  -0.726   0.062  1.00  0.00    -0.286 N 
ATOM      2  HN  UNL     1       3.317  -1.220   0.068  1.00  0.00     0.188 HD
HETATM    3  N   UNL     1       2.381   0.637   0.062  1.00  0.00    -0.265 N 
HETATM    4  C   UNL     1       1.301  -1.381   0.054  1.00  0.00     0.129 A 
HETATM    5  C   UNL     1       1.244   1.409   0.056  1.00  0.00     0.271 A 
HETATM    6  C   UNL     1      -0.017  -0.716   0.039  1.00  0.00     0.019 A 
HETATM    7  C   UNL     1      -0.034   0.676   0.031  1.00  0.00     0.047 A 
HETATM    8  O   UNL     1       1.277   2.634   0.069  1.00  0.00    -0.266 OA
HETATM    9 CL   UNL     1       1.480  -3.102   0.050  1.00  0.00    -0.062 Cl
HETATM   10  C   UNL     1      -1.248   1.370  -0.012  1.00  0.00     0.018 A 
HETATM   11  C   UNL     1      -1.223  -1.427   0.017  1.00  0.00     0.016 A 
HETATM   12  C   UNL     1      -2.449   0.661  -0.050  1.00  0.00     0.001 A 
HETATM   13  C   UNL     1      -2.436  -0.734  -0.031  1.00  0.00     0.001 A 
HETATM   14  H   UNL     1       3.243   1.112   0.066  1.00  0.00     0.190 HD
ENDROOT
TORSDOF 0
