REMARK  2 active torsions:
REMARK  status: ('A' for Active; 'I' for Inactive)
REMARK    1  A    between atoms: C_3  and  C_4 
REMARK    2  A    between atoms: C_4  and  O_10 
ROOT
HETATM    1  N   UNL     1       2.456  -0.608   0.007  1.00  0.00    -0.360 N 
ATOM      2  HN  UNL     1       3.352  -1.095   0.008  1.00  0.00     0.165 HD
HETATM    3  C   UNL     1       2.379   0.747   0.012  1.00  0.00     0.108 A 
HETATM    4  C   UNL     1       1.171   1.441   0.008  1.00  0.00     0.048 A 
HETATM    5  C   UNL     1      -0.032   0.726   0.001  1.00  0.00    -0.022 A 
HETATM    6  C   UNL     1       1.277  -1.280   0.001  1.00  0.00     0.100 A 
HETATM    7  C   UNL     1       0.011  -0.681   0.001  1.00  0.00    -0.011 A 
HETATM    8  C   UNL     1      -1.278   1.378  -0.006  1.00  0.00     0.012 A 
HETATM    9  C   UNL     1      -1.194  -1.410   0.000  1.00  0.00     0.013 A 
HETATM   10  C   UNL     1      -2.466   0.643  -0.011  1.00  0.00     0.001 A 
HETATM   11  C   UNL     1      -2.423  -0.749  -0.006  1.00  0.00     0.001 A 
ENDROOT
BRANCH   3  12
HETATM   12  C   UNL     1       3.643   1.550   0.025  1.00  0.00     0.309 C 
HETATM   13  O   UNL     1       3.647   2.775   0.032  1.00  0.00    -0.258 OA
BRANCH  12  14
HETATM   14  O   UNL     1       4.754   0.768   0.030  1.00  0.00    -0.321 OA
HETATM   15  C   UNL     1       5.976   1.512   0.045  1.00  0.00     0.213 C 
ENDBRANCH  12  14
ENDBRANCH   3  12
TORSDOF 2
