REMARK  2 active torsions:
REMARK  status: ('A' for Active; 'I' for Inactive)
REMARK    1  A    between atoms: N_1  and  C_2 
REMARK    2  A    between atoms: C_3  and  N_5 
ROOT
HETATM    1  C   UNL     1      -2.598   0.118  -1.037  1.00  0.00     0.056 C 
HETATM    2  C   UNL     1      -2.886   1.095  -2.032  1.00  0.00     0.052 C 
HETATM    3  C   UNL     1      -3.591  -0.851  -0.800  1.00  0.00     0.031 C 
HETATM    4  C   UNL     1      -4.151   1.158  -2.627  1.00  0.00     0.031 C 
HETATM    5  C   UNL     1      -4.818  -0.838  -1.474  1.00  0.00     0.002 C 
HETATM    6  C   UNL     1      -5.102   0.173  -2.383  1.00  0.00     0.002 C 
ENDROOT
BRANCH   1   7
HETATM    7  N   UNL     1      -1.366   0.054  -0.402  1.00  0.00    -0.375 N 
HETATM    8  C   UNL     1      -0.806  -1.208   0.101  1.00  0.00     0.149 C 
HETATM    9  C   UNL     1       0.708  -1.193  -0.186  1.00  0.00     0.187 C 
HETATM   10  O   UNL     1       1.357  -0.048   0.400  1.00  0.00    -0.388 OA
HETATM   11  C   UNL     1       0.758   1.181  -0.072  1.00  0.00     0.187 C 
HETATM   12  C   UNL     1      -0.745   1.225   0.239  1.00  0.00     0.149 C 
ENDBRANCH   1   7
BRANCH   2  13
HETATM   13  N   UNL     1      -1.951   2.108  -2.358  1.00  0.00    -0.397 N 
HETATM   14  H   UNL     1      -1.052   2.095  -1.958  1.00  0.00     0.156 HD
HETATM   15  H   UNL     1      -2.200   2.825  -2.986  1.00  0.00     0.156 HD
ENDBRANCH   2  13
TORSDOF 2
