REMARK  3 active torsions:
REMARK  status: ('A' for Active; 'I' for Inactive)
REMARK    1  A    between atoms: C_1  and  C_2 
REMARK    2  A    between atoms: C_1  and  C_5 
REMARK    3  A    between atoms: C_6  and  N_7 
ROOT
HETATM    1  C   UNL     1       0.220  -1.272   0.027  1.00  0.00     0.017 A 
HETATM    2  C   UNL     1       0.372  -2.192   1.073  1.00  0.00     0.044 A 
HETATM    3  C   UNL     1      -0.347  -3.390   1.079  1.00  0.00     0.026 A 
HETATM    4  C   UNL     1      -0.690  -1.534  -1.002  1.00  0.00     0.015 A 
HETATM    5  C   UNL     1      -1.385  -2.741  -1.020  1.00  0.00     0.003 A 
HETATM    6  C   UNL     1      -1.185  -3.676  -0.002  1.00  0.00     0.029 A 
ENDROOT
BRANCH   1   7
HETATM    7  C   UNL     1       1.001  -0.008  -0.025  1.00  0.00     0.192 C 
HETATM    8  O   UNL     1       0.484   0.990  -0.523  1.00  0.00    -0.287 OA
BRANCH   7   9
HETATM    9  C   UNL     1       2.392   0.080   0.500  1.00  0.00     0.015 A 
HETATM   10  C   UNL     1       2.848   1.320   0.964  1.00  0.00     0.015 A 
HETATM   11  C   UNL     1       4.142   1.447   1.474  1.00  0.00     0.001 A 
HETATM   12  C   UNL     1       4.986   0.338   1.517  1.00  0.00     0.000 A 
HETATM   13  C   UNL     1       4.548  -0.893   1.032  1.00  0.00     0.001 A 
HETATM   14  C   UNL     1       3.259  -1.020   0.509  1.00  0.00     0.015 A 
ENDBRANCH   7   9
ENDBRANCH   1   7
BRANCH   3  15
HETATM   15  N   UNL     1      -0.044  -4.382   2.018  1.00  0.00    -0.399 N 
HETATM   16  H   UNL     1       0.547  -4.177   2.778  1.00  0.00     0.156 HD
HETATM   17  H   UNL     1      -0.421  -5.286   1.918  1.00  0.00     0.156 HD
ENDBRANCH   3  15
TORSDOF 3
