REMARK  4 active torsions:
REMARK  status: ('A' for Active; 'I' for Inactive)
REMARK    1  A    between atoms: C_1  and  C_2 
REMARK    2  A    between atoms: C_1  and  N_3 
REMARK    3  A    between atoms: C_1  and  C_7 
REMARK    4  A    between atoms: N_4  and  C_7 
ROOT
HETATM    1  C   UNL     1       1.012  -0.071   0.069  1.00  0.00     0.315 C 
ENDROOT
BRANCH   1   2
HETATM    2  C   UNL     1       1.239   1.428   0.169  1.00  0.00     0.026 A 
HETATM    3  S   UNL     1       2.796   2.033   0.579  1.00  0.00    -0.103 SA
HETATM    4  C   UNL     1       2.269   3.655   0.479  1.00  0.00     0.050 A 
HETATM    5  C   UNL     1       0.937   3.746   0.151  1.00  0.00     0.008 A 
HETATM    6  C   UNL     1       0.342   2.464  -0.037  1.00  0.00     0.018 A 
ENDBRANCH   1   2
BRANCH   1   7
HETATM    7  N   UNL     1       0.605  -0.477  -1.312  1.00  0.00    -0.047 N 
HETATM    8  C   UNL     1       1.635  -0.151  -2.328  1.00  0.00     0.263 C 
HETATM    9  C   UNL     1       2.907  -1.010  -2.217  1.00  0.00     0.195 C 
HETATM   10  O   UNL     1       2.607  -2.411  -2.268  1.00  0.00    -0.388 OA
HETATM   11  C   UNL     1       1.636  -2.786  -1.283  1.00  0.00     0.195 C 
HETATM   12  C   UNL     1       0.359  -1.941  -1.423  1.00  0.00     0.263 C 
HETATM   13  H   UNL     1      -0.251   0.049  -1.486  1.00  0.00     0.282 HD
ENDBRANCH   1   7
BRANCH   1  14
HETATM   14  C   UNL     1      -0.050  -0.434   1.095  1.00  0.00    -0.038 C 
BRANCH  14  15
HETATM   15  N   UNL     1      -0.930  -0.734   1.946  1.00  0.00    -0.368 N 
ATOM     16  HN2 UNL     1      -0.208  -0.455   1.282  1.00  0.00     0.165 HD
ATOM     17  HN1 UNL     1      -1.642  -0.977   2.634  1.00  0.00     0.165 HD
ENDBRANCH  14  15
ENDBRANCH   1  14
TORSDOF 4
