REMARK  3 active torsions:
REMARK  status: ('A' for Active; 'I' for Inactive)
REMARK    1  A    between atoms: O_1  and  C_2 
REMARK    2  A    between atoms: O_1  and  C_4 
REMARK    3  A    between atoms: C_3  and  O_9 
ROOT
HETATM    1  C   UNL     1       0.803   0.116  -0.070  1.00  0.00     0.076 A 
HETATM    2  C   UNL     1      -1.978   0.004  -0.041  1.00  0.00     0.065 A 
HETATM    3  C   UNL     1       0.053   1.285  -0.229  1.00  0.00     0.040 A 
HETATM    4  C   UNL     1       0.152  -1.116   0.034  1.00  0.00     0.040 A 
HETATM    5  C   UNL     1      -1.242  -1.172   0.050  1.00  0.00     0.039 A 
HETATM    6  C   UNL     1      -1.342   1.234  -0.187  1.00  0.00     0.039 A 
ENDROOT
BRANCH   1   7
HETATM    7  O   UNL     1       2.180   0.067  -0.071  1.00  0.00    -0.311 OA
BRANCH   7   8
HETATM    8  C   UNL     1       2.909   1.102   0.469  1.00  0.00     0.076 A 
HETATM    9  C   UNL     1       2.501   1.874   1.562  1.00  0.00     0.037 A 
HETATM   10  C   UNL     1       3.303   2.924   2.016  1.00  0.00     0.003 A 
HETATM   11  C   UNL     1       4.539   3.168   1.417  1.00  0.00     0.000 A 
HETATM   12  C   UNL     1       4.977   2.360   0.370  1.00  0.00     0.003 A 
HETATM   13  C   UNL     1       4.163   1.328  -0.101  1.00  0.00     0.037 A 
ENDBRANCH   7   8
ENDBRANCH   1   7
BRANCH   2  14
HETATM   14  O   UNL     1      -3.336  -0.090   0.011  1.00  0.00    -0.361 OA
HETATM   15  H   UNL     1      -3.744  -0.928   0.109  1.00  0.00     0.217 HD
ENDBRANCH   2  14
TORSDOF 3
