REMARK  0 active torsions:
REMARK  status: ('A' for Active; 'I' for Inactive)
ROOT
HETATM    1  C   UNL     1      -0.017  -1.220   0.655  1.00  0.00     0.056 C 
HETATM    2  C   UNL     1       0.017   1.245   0.632  1.00  0.00     0.056 C 
HETATM    3  C   UNL     1       1.234  -1.290  -0.189  1.00  0.00     0.131 C 
HETATM    4  C   UNL     1      -1.242   1.304  -0.207  1.00  0.00     0.131 C 
HETATM    5  C   UNL     1       0.005   0.019   1.523  1.00  0.00     0.024 C 
HETATM    6  C   UNL     1      -1.857   0.020  -0.719  1.00  0.00     0.079 C 
HETATM    7  C   UNL     1       1.780  -0.019  -0.809  1.00  0.00     0.079 C 
HETATM    8  O   UNL     1       1.748  -2.379  -0.463  1.00  0.00    -0.298 OA
HETATM    9  O   UNL     1      -1.719   2.392  -0.536  1.00  0.00    -0.298 OA
HETATM   10  C   UNL     1       1.263   1.306  -0.250  1.00  0.00     0.019 C 
HETATM   11  C   UNL     1      -1.271  -1.300  -0.218  1.00  0.00     0.019 C 
ENDROOT
TORSDOF 0
