REMARK  4 active torsions:
REMARK  status: ('A' for Active; 'I' for Inactive)
REMARK    1  A    between atoms: C_3  and  C_4 
REMARK    2  A    between atoms: C_4  and  C_7 
REMARK    3  A    between atoms: O_5  and  C_7 
REMARK    4  A    between atoms: O_5  and  C_9 
ROOT
HETATM    1  N   UNL     1      -0.859   0.117   1.111  1.00  0.00    -0.369 N 
ATOM      2  HN  UNL     1      -1.651   0.207   1.747  1.00  0.00     0.165 HD
HETATM    3  C   UNL     1      -0.581   1.077   0.192  1.00  0.00     0.011 A 
HETATM    4  C   UNL     1      -0.048  -0.961   1.151  1.00  0.00     0.088 A 
HETATM    5  C   UNL     1       0.514   0.989  -0.665  1.00  0.00     0.025 A 
HETATM    6  C   UNL     1       1.047  -1.134   0.321  1.00  0.00     0.017 A 
HETATM    7  C   UNL     1       1.334  -0.133  -0.600  1.00  0.00     0.003 A 
ENDROOT
BRANCH   3   8
HETATM    8  C   UNL     1      -1.509   2.264   0.158  1.00  0.00     0.083 C 
BRANCH   8   9
HETATM    9  C   UNL     1      -2.243   2.453  -1.175  1.00  0.00     0.173 C 
BRANCH   9  10
HETATM   10  O   UNL     1      -2.985   1.320  -1.627  1.00  0.00    -0.391 OA
BRANCH  10  11
HETATM   11  C   UNL     1      -4.089   0.981  -0.793  1.00  0.00     0.163 C 
HETATM   12  C   UNL     1      -4.852  -0.159  -1.442  1.00  0.00     0.033 C 
ENDBRANCH  10  11
ENDBRANCH   9  10
ENDBRANCH   8   9
ENDBRANCH   3   8
TORSDOF 4
