REMARK  2 active torsions:
REMARK  status: ('A' for Active; 'I' for Inactive)
REMARK    1  A    between atoms: N_1  and  O_8 
REMARK    2  A    between atoms: C_5  and  C_7 
ROOT
HETATM    1  N   UNL     1      -0.706  -1.014  -0.196  1.00  0.00    -0.156 NA
HETATM    2  N   UNL     1      -0.035   1.139  -0.022  1.00  0.00    -0.360 N 
HETATM    3  C   UNL     1       0.763  -1.074   0.068  1.00  0.00     0.086 C 
HETATM    4  C   UNL     1       1.136   0.409  -0.010  1.00  0.00     0.099 C 
HETATM    5  C   UNL     1      -1.160   0.308   0.268  1.00  0.00     0.218 C 
HETATM    6  S   UNL     1       2.642   1.101  -0.013  1.00  0.00    -0.063 SA
HETATM    7  C   UNL     1       1.125  -1.646   1.451  1.00  0.00     0.042 C 
HETATM    8  C   UNL     1       1.406  -1.907  -1.043  1.00  0.00     0.042 C 
HETATM    9  H   UNL     1      -0.088   2.105  -0.206  1.00  0.00     0.162 HD
ENDROOT
BRANCH   5  10
HETATM   10  C   UNL     1      -2.434   0.773  -0.399  1.00  0.00    -0.019 A 
HETATM   11  C   UNL     1      -2.531   0.910  -1.793  1.00  0.00     0.010 A 
HETATM   12  C   UNL     1      -3.734   1.282  -2.396  1.00  0.00     0.001 A 
HETATM   13  C   UNL     1      -4.863   1.529  -1.615  1.00  0.00     0.000 A 
HETATM   14  C   UNL     1      -4.779   1.416  -0.228  1.00  0.00     0.001 A 
HETATM   15  C   UNL     1      -3.577   1.046   0.374  1.00  0.00     0.010 A 
ENDBRANCH   5  10
BRANCH   1  16
HETATM   16  O   UNL     1      -1.382  -2.037   0.581  1.00  0.00    -0.310 OA
HETATM   17  H   UNL     1      -1.091  -2.913   0.284  1.00  0.00     0.237 HD
ENDBRANCH   1  16
TORSDOF 2
