REMARK  1 active torsions:
REMARK  status: ('A' for Active; 'I' for Inactive)
REMARK    1  A    between atoms: C_1  and  C_7 
ROOT
HETATM    1  C   UNL     1      -0.145  -1.328  -0.004  1.00  0.00     0.140 A 
HETATM    2  C   UNL     1       1.168  -0.719  -0.000  1.00  0.00     0.098 A 
HETATM    3  N   UNL     1      -1.168  -0.453  -0.009  1.00  0.00    -0.318 N 
ATOM      4  HN  UNL     1      -2.157  -0.704  -0.012  1.00  0.00     0.174 HD
HETATM    5  C   UNL     1       1.053   0.650  -0.003  1.00  0.00     0.115 A 
HETATM    6  S   UNL     1      -0.577   1.091  -0.010  1.00  0.00     0.000 SA
HETATM    7 CL   UNL     1       2.652  -1.574   0.007  1.00  0.00    -0.079 Cl
HETATM    8 CL   UNL     1       2.276   1.849  -0.001  1.00  0.00    -0.073 Cl
ENDROOT
BRANCH   1   9
HETATM    9  C   UNL     1      -0.426  -2.769  -0.003  1.00  0.00     0.229 C 
HETATM   10  O   UNL     1       0.407  -3.666   0.000  1.00  0.00    -0.643 OA
HETATM   11  O   UNL     1      -1.742  -3.101  -0.006  1.00  0.00    -0.643 OA
ENDBRANCH   1   9
TORSDOF 1
