REMARK  3 active torsions:
REMARK  status: ('A' for Active; 'I' for Inactive)
REMARK    1  A    between atoms: C_3  and  C_6 
REMARK    2  A    between atoms: C_6  and  C_10 
REMARK    3  A    between atoms: O_7  and  C_10 
ROOT
HETATM    1  N   UNL     1      -1.526   1.077  -0.120  1.00  0.00    -0.365 N 
HETATM    2  C   UNL     1      -2.360  -0.009  -0.137  1.00  0.00     0.096 A 
HETATM    3  C   UNL     1      -1.587  -1.152  -0.078  1.00  0.00    -0.028 A 
HETATM    4  C   UNL     1      -0.219  -0.725  -0.037  1.00  0.00    -0.002 A 
HETATM    5  C   UNL     1      -0.213   0.668  -0.068  1.00  0.00     0.042 A 
HETATM    6  C   UNL     1       1.017  -1.403   0.013  1.00  0.00     0.014 A 
HETATM    7  C   UNL     1       0.967   1.422  -0.042  1.00  0.00     0.030 A 
HETATM    8  C   UNL     1       2.206  -0.667   0.029  1.00  0.00     0.001 A 
HETATM    9  C   UNL     1       2.180   0.725   0.005  1.00  0.00     0.002 A 
HETATM   10  H   UNL     1      -1.823   2.016  -0.143  1.00  0.00     0.165 HD
ENDROOT
BRANCH   3  11
HETATM   11  C   UNL     1      -2.081  -2.569  -0.054  1.00  0.00     0.067 C 
BRANCH  11  12
HETATM   12  C   UNL     1      -2.223  -3.180  -1.447  1.00  0.00     0.168 C 
BRANCH  12  13
HETATM   13  O   UNL     1      -0.966  -3.285  -2.114  1.00  0.00    -0.401 OA
HETATM   14  H   UNL     1      -1.098  -3.676  -2.992  1.00  0.00     0.209 HD
ENDBRANCH  12  13
ENDBRANCH  11  12
ENDBRANCH   3  11
TORSDOF 3
