REMARK  2 active torsions:
REMARK  status: ('A' for Active; 'I' for Inactive)
REMARK    1  A    between atoms: C_1  and  C_4 
REMARK    2  A    between atoms: C_3  and  O_5 
ROOT
HETATM    1  C   UNL     1       1.189  -0.424  -0.033  1.00  0.00    -0.021 A 
HETATM    2  C   UNL     1       0.587   0.456  -0.967  1.00  0.00     0.074 A 
HETATM    3  C   UNL     1       0.313  -1.102   0.848  1.00  0.00     0.010 A 
HETATM    4  C   UNL     1      -0.813   0.626  -0.978  1.00  0.00     0.037 A 
HETATM    5  C   UNL     1      -1.074  -0.924   0.824  1.00  0.00     0.001 A 
HETATM    6  C   UNL     1      -1.640  -0.045  -0.078  1.00  0.00     0.003 A 
ENDROOT
BRANCH   1   7
HETATM    7  C   UNL     1       2.699  -0.634   0.105  1.00  0.00     0.024 C 
HETATM    8  C   UNL     1       3.369  -1.357  -1.079  1.00  0.00     0.037 C 
HETATM    9  C   UNL     1       3.508  -2.872  -0.932  1.00  0.00     0.233 C 
HETATM   10  N   UNL     1       4.060  -3.275   0.357  1.00  0.00    -0.075 N 
HETATM   11  C   UNL     1       3.285  -2.745   1.471  1.00  0.00     0.233 C 
HETATM   12  H   UNL     1       4.061  -4.293   0.411  1.00  0.00     0.277 HD
HETATM   13  H   UNL     1       5.007  -2.901   0.425  1.00  0.00     0.277 HD
HETATM   14  C   UNL     1       3.219  -1.220   1.438  1.00  0.00     0.037 C 
ENDBRANCH   1   7
BRANCH   2  15
HETATM   15  O   UNL     1       1.161   1.157  -1.993  1.00  0.00    -0.355 OA
HETATM   16  C   UNL     1       2.436   1.750  -1.837  1.00  0.00     0.210 C 
ENDBRANCH   2  15
TORSDOF 2
