REMARK  1 active torsions:
REMARK  status: ('A' for Active; 'I' for Inactive)
REMARK    1  A    between atoms: C_4  and  O_7 
ROOT
HETATM    1  C   UNL     1       0.722   1.267  -0.276  1.00  0.00    -0.048 C 
HETATM    2  C   UNL     1       1.447  -0.009   0.209  1.00  0.00     0.011 C 
HETATM    3  C   UNL     1      -0.744   1.235   0.218  1.00  0.00     0.011 C 
HETATM    4  C   UNL     1      -0.737  -1.288   0.254  1.00  0.00     0.118 C 
HETATM    5  C   UNL     1      -1.479  -0.035  -0.206  1.00  0.00     0.032 C 
HETATM    6  C   UNL     1       0.723  -1.294  -0.196  1.00  0.00     0.032 C 
HETATM    7  C   UNL     1       1.419   2.507   0.299  1.00  0.00     0.015 C 
HETATM    8  C   UNL     1       0.772   1.366  -1.816  1.00  0.00     0.015 C 
ENDROOT
BRANCH   4   9
HETATM    9  O   UNL     1      -1.397  -2.443  -0.252  1.00  0.00    -0.396 OA
HETATM   10  H   UNL     1      -1.383  -2.424  -1.222  1.00  0.00     0.210 HD
ENDBRANCH   4   9
TORSDOF 1
