REMARK  3 active torsions:
REMARK  status: ('A' for Active; 'I' for Inactive)
REMARK    1  A    between atoms: C_1  and  C_8 
REMARK    2  A    between atoms: C_4  and  C_7 
REMARK    3  A    between atoms: C_8  and  O_9 
ROOT
HETATM    1  C   UNL     1      -0.007  -1.309  -0.015  1.00  0.00     0.026 A 
HETATM    2  N   UNL     1      -1.336   0.542  -0.018  1.00  0.00    -0.260 N 
ATOM      3  HN  UNL     1      -2.148   1.160  -0.014  1.00  0.00     0.195 HD
HETATM    4  C   UNL     1      -1.353  -0.803  -0.013  1.00  0.00     0.076 A 
HETATM    5  O   UNL     1      -0.018   0.925  -0.030  1.00  0.00    -0.242 OA
HETATM    6  C   UNL     1       0.776  -0.171  -0.025  1.00  0.00     0.083 A 
HETATM    7  C   UNL     1       2.228   0.095  -0.019  1.00  0.00     0.079 C 
ENDROOT
BRANCH   4   8
HETATM    8  C   UNL     1      -2.636  -1.521   0.026  1.00  0.00    -0.007 A 
HETATM    9  C   UNL     1      -2.790  -2.793  -0.540  1.00  0.00     0.014 A 
HETATM   10  C   UNL     1      -4.011  -3.471  -0.463  1.00  0.00     0.001 A 
HETATM   11  C   UNL     1      -5.102  -2.878   0.165  1.00  0.00     0.000 A 
HETATM   12  C   UNL     1      -4.976  -1.604   0.711  1.00  0.00     0.001 A 
HETATM   13  C   UNL     1      -3.752  -0.931   0.642  1.00  0.00     0.014 A 
ENDBRANCH   4   8
BRANCH   1  14
HETATM   14  C   UNL     1       0.477  -2.710   0.008  1.00  0.00     0.207 C 
BRANCH  14  15
HETATM   15  O   UNL     1      -0.043  -3.447   1.105  1.00  0.00    -0.396 OA
HETATM   16  H   UNL     1       0.246  -3.038   1.936  1.00  0.00     0.209 HD
ENDBRANCH  14  15
ENDBRANCH   1  14
TORSDOF 3
