REMARK  3 active torsions:
REMARK  status: ('A' for Active; 'I' for Inactive)
REMARK    1  A    between atoms: C_1  and  C_8 
REMARK    2  A    between atoms: C_4  and  C_7 
REMARK    3  A    between atoms: C_8  and  N_9 
ROOT
HETATM    1  C   UNL     1      -0.020  -1.299   0.003  1.00  0.00     0.028 A 
HETATM    2  N   UNL     1      -1.329   0.572   0.003  1.00  0.00    -0.260 N 
ATOM      3  HN  UNL     1      -2.133   1.199   0.007  1.00  0.00     0.195 HD
HETATM    4  C   UNL     1      -1.361  -0.775   0.000  1.00  0.00     0.075 A 
HETATM    5  O   UNL     1      -0.008   0.938  -0.001  1.00  0.00    -0.242 OA
HETATM    6  C   UNL     1       0.774  -0.167  -0.000  1.00  0.00     0.083 A 
HETATM    7  C   UNL     1       2.228   0.086  -0.003  1.00  0.00     0.079 C 
ENDROOT
BRANCH   4   8
HETATM    8  C   UNL     1      -2.653  -1.476   0.016  1.00  0.00    -0.007 A 
HETATM    9  C   UNL     1      -2.815  -2.741  -0.562  1.00  0.00     0.014 A 
HETATM   10  C   UNL     1      -4.039  -3.413  -0.503  1.00  0.00     0.001 A 
HETATM   11  C   UNL     1      -5.133  -2.815   0.112  1.00  0.00     0.000 A 
HETATM   12  C   UNL     1      -5.004  -1.545   0.669  1.00  0.00     0.001 A 
HETATM   13  C   UNL     1      -3.773  -0.881   0.623  1.00  0.00     0.014 A 
ENDBRANCH   4   8
BRANCH   1  14
HETATM   14  C   UNL     1       0.458  -2.705  -0.005  1.00  0.00     0.273 C 
BRANCH  14  15
HETATM   15  N   UNL     1      -0.089  -3.418   1.137  1.00  0.00    -0.075 N 
HETATM   16  H   UNL     1       0.217  -2.965   1.999  1.00  0.00     0.274 HD
HETATM   17  H   UNL     1       0.240  -4.383   1.126  1.00  0.00     0.274 HD
HETATM   18  H   UNL     1      -1.108  -3.405   1.090  1.00  0.00     0.274 HD
ENDBRANCH  14  15
ENDBRANCH   1  14
TORSDOF 3
