REMARK  1 active torsions:
REMARK  status: ('A' for Active; 'I' for Inactive)
REMARK    1  A    between atoms: C_1  and  C_3 
ROOT
HETATM    1  C   UNL     1      -0.869  -1.457   0.020  1.00  0.00     0.074 A 
HETATM    2  C   UNL     1       0.263  -0.655   0.038  1.00  0.00     0.092 A 
HETATM    3  O   UNL     1       1.564  -1.091   0.098  1.00  0.00    -0.349 OA
HETATM    4  C   UNL     1       0.172   0.735   0.016  1.00  0.00    -0.022 A 
HETATM    5  C   UNL     1      -2.117  -0.812  -0.046  1.00  0.00     0.021 A 
HETATM    6  C   UNL     1       2.345   0.078  -0.231  1.00  0.00     0.180 C 
HETATM    7  C   UNL     1      -2.206   0.592  -0.066  1.00  0.00     0.002 A 
HETATM    8  C   UNL     1       1.530   1.321   0.110  1.00  0.00     0.068 C 
HETATM    9  C   UNL     1      -1.053   1.377  -0.022  1.00  0.00     0.010 A 
ENDROOT
BRANCH   1  10
HETATM   10  C   UNL     1      -0.756  -2.936   0.061  1.00  0.00     0.212 C 
HETATM   11  O   UNL     1       0.255  -3.609   0.112  1.00  0.00    -0.644 OA
HETATM   12  O   UNL     1      -1.963  -3.537   0.038  1.00  0.00    -0.644 OA
ENDBRANCH   1  10
TORSDOF 1
