REMARK  1 active torsions:
REMARK  status: ('A' for Active; 'I' for Inactive)
REMARK    1  A    between atoms: C_1  and  C_5 
ROOT
HETATM    1  C   UNL     1       0.730   1.344   0.004  1.00  0.00     0.072 A 
HETATM    2  C   UNL     1       1.119   0.014   0.018  1.00  0.00     0.066 A 
HETATM    3  O   UNL     1       0.024  -0.800   0.022  1.00  0.00    -0.319 OA
HETATM    4  C   UNL     1      -0.698   1.320   0.004  1.00  0.00     0.053 A 
HETATM    5  C   UNL     1      -1.076  -0.002   0.014  1.00  0.00     0.050 A 
HETATM    6  C   UNL     1       2.419  -0.693   0.030  1.00  0.00     0.078 C 
HETATM    7  C   UNL     1      -2.381  -0.689   0.017  1.00  0.00     0.076 C 
ENDROOT
BRANCH   1   8
HETATM    8  C   UNL     1       1.601   2.497  -0.006  1.00  0.00     0.211 C 
HETATM    9  O   UNL     1       2.823   2.484  -0.008  1.00  0.00    -0.644 OA
HETATM   10  O   UNL     1       0.942   3.679  -0.016  1.00  0.00    -0.644 OA
ENDBRANCH   1   8
TORSDOF 1
