REMARK  2 active torsions:
REMARK  status: ('A' for Active; 'I' for Inactive)
REMARK    1  A    between atoms: C_1  and  C_3 
REMARK    2  A    between atoms: C_3  and  N_8 
ROOT
HETATM    1  C   UNL     1      -1.217   1.438   0.072  1.00  0.00     0.038 A 
HETATM    2  C   UNL     1      -0.002   0.724   0.040  1.00  0.00     0.115 A 
HETATM    3  C   UNL     1      -0.020  -0.681  -0.018  1.00  0.00     0.103 A 
HETATM    4  O   UNL     1       1.185   1.422   0.075  1.00  0.00    -0.345 OA
HETATM    5  O   UNL     1       1.110  -1.460  -0.039  1.00  0.00    -0.346 OA
HETATM    6  C   UNL     1      -2.424   0.715   0.031  1.00  0.00     0.017 A 
HETATM    7  C   UNL     1      -2.429  -0.680  -0.044  1.00  0.00     0.004 A 
HETATM    8  C   UNL     1      -1.227  -1.377  -0.072  1.00  0.00     0.040 A 
HETATM    9  C   UNL     1       2.297   0.626  -0.347  1.00  0.00     0.202 C 
HETATM   10  C   UNL     1       2.272  -0.723   0.345  1.00  0.00     0.202 C 
ENDROOT
BRANCH   1  11
HETATM   11  C   UNL     1      -1.267   2.935   0.141  1.00  0.00     0.107 C 
HETATM   12  S   UNL     1      -2.463   3.904  -0.521  1.00  0.00    -0.060 SA
BRANCH  11  13
HETATM   13  N   UNL     1      -0.252   3.565   0.813  1.00  0.00    -0.389 N 
HETATM   14  H   UNL     1       0.473   3.035   1.219  1.00  0.00     0.157 HD
HETATM   15  H   UNL     1      -0.248   4.546   0.891  1.00  0.00     0.157 HD
ENDBRANCH  11  13
ENDBRANCH   1  11
TORSDOF 2
