REMARK  3 active torsions:
REMARK  status: ('A' for Active; 'I' for Inactive)
REMARK    1  A    between atoms: C_1  and  C_6 
REMARK    2  A    between atoms: C_4  and  C_10 
REMARK    3  A    between atoms: N_9  and  C_10 
ROOT
HETATM    1  C   UNL     1      -0.093   1.385  -0.187  1.00  0.00     0.032 A 
HETATM    2  S   UNL     1      -1.174   0.202   0.350  1.00  0.00    -0.091 SA
HETATM    3  C   UNL     1       1.085   0.760  -0.581  1.00  0.00     0.022 A 
HETATM    4  C   UNL     1      -0.145  -1.103   0.052  1.00  0.00     0.009 A 
HETATM    5  C   UNL     1       1.055  -0.626  -0.431  1.00  0.00     0.017 A 
ENDROOT
BRANCH   1   6
HETATM    6  C   UNL     1      -0.334   2.841  -0.207  1.00  0.00     0.049 A 
HETATM    7  N   UNL     1      -1.285   3.386   0.603  1.00  0.00    -0.365 N 
HETATM    8  C   UNL     1      -1.501   4.729   0.656  1.00  0.00     0.088 A 
ATOM      9  HN  UNL     1      -1.851   2.770   1.186  1.00  0.00     0.165 HD
HETATM   10  C   UNL     1      -0.762   5.592  -0.156  1.00  0.00     0.017 A 
HETATM   11  C   UNL     1       0.199   5.061  -1.015  1.00  0.00     0.004 A 
HETATM   12  C   UNL     1       0.427   3.686  -1.036  1.00  0.00     0.031 A 
ENDBRANCH   1   6
BRANCH   4  13
HETATM   13  C   UNL     1      -0.449  -2.554   0.259  1.00  0.00     0.275 C 
BRANCH  13  14
HETATM   14  N   UNL     1      -0.238  -3.284  -0.989  1.00  0.00    -0.075 N 
HETATM   15  H   UNL     1      -0.446  -4.272  -0.845  1.00  0.00     0.274 HD
HETATM   16  H   UNL     1       0.733  -3.180  -1.283  1.00  0.00     0.274 HD
HETATM   17  H   UNL     1      -0.853  -2.909  -1.711  1.00  0.00     0.274 HD
ENDBRANCH  13  14
ENDBRANCH   4  13
TORSDOF 3
