REMARK  2 active torsions:
REMARK  status: ('A' for Active; 'I' for Inactive)
REMARK    1  A    between atoms: C_2  and  C_7 
REMARK    2  A    between atoms: N_6  and  C_7 
ROOT
HETATM    1  N   UNL     1       0.700   0.038  -0.023  1.00  0.00    -0.363 N 
HETATM    2  C   UNL     1      -0.122   1.144   0.005  1.00  0.00     0.036 A 
HETATM    3  C   UNL     1      -0.065  -1.104  -0.015  1.00  0.00     0.090 A 
HETATM    4  C   UNL     1      -1.389  -0.735   0.006  1.00  0.00     0.019 A 
HETATM    5  C   UNL     1      -1.427   0.677   0.017  1.00  0.00     0.028 A 
HETATM    6  C   UNL     1       2.146   0.014  -0.053  1.00  0.00     0.155 C 
ENDROOT
BRANCH   2   7
HETATM    7  C   UNL     1       0.362   2.553  -0.004  1.00  0.00     0.286 C 
BRANCH   7   8
HETATM    8  N   UNL     1       1.090   2.841   1.224  1.00  0.00    -0.074 N 
HETATM    9  H   UNL     1       1.416   3.808   1.206  1.00  0.00     0.274 HD
HETATM   10  H   UNL     1       1.890   2.214   1.300  1.00  0.00     0.274 HD
HETATM   11  H   UNL     1       0.473   2.705   2.025  1.00  0.00     0.274 HD
ENDBRANCH   7   8
ENDBRANCH   2   7
TORSDOF 2
