REMARK  1 active torsions:
REMARK  status: ('A' for Active; 'I' for Inactive)
REMARK    1  A    between atoms: C_1  and  C_5 
ROOT
HETATM    1  C   UNL     1      -2.121   0.941   0.028  1.00  0.00     0.084 A 
HETATM    2  S   UNL     1      -1.709  -0.721   0.017  1.00  0.00    -0.065 SA
HETATM    3  C   UNL     1      -0.041  -0.381   0.012  1.00  0.00     0.085 A 
HETATM    4  C   UNL     1      -0.990   1.739   0.007  1.00  0.00     0.040 A 
HETATM    5  C   UNL     1       0.226   0.984   0.006  1.00  0.00    -0.001 A 
HETATM    6  N   UNL     1       0.868  -1.378   0.017  1.00  0.00    -0.360 N 
ATOM      7  HN  UNL     1       0.611  -2.365   0.016  1.00  0.00     0.166 HD
HETATM    8  C   UNL     1       1.582   1.369   0.007  1.00  0.00     0.015 A 
HETATM    9  C   UNL     1       2.148  -0.952   0.023  1.00  0.00     0.089 A 
HETATM   10  C   UNL     1       2.554   0.372   0.018  1.00  0.00     0.018 A 
ENDROOT
BRANCH   1  11
HETATM   11  C   UNL     1      -3.509   1.328   0.060  1.00  0.00     0.216 C 
HETATM   12  O   UNL     1      -4.506   0.622   0.080  1.00  0.00    -0.643 OA
HETATM   13  O   UNL     1      -3.645   2.675   0.077  1.00  0.00    -0.643 OA
ENDBRANCH   1  11
TORSDOF 1
