REMARK  2 active torsions:
REMARK  status: ('A' for Active; 'I' for Inactive)
REMARK    1  A    between atoms: C_4  and  C_7 
REMARK    2  A    between atoms: C_7  and  N_9 
ROOT
HETATM    1  N   UNL     1      -1.967   0.884   0.059  1.00  0.00    -0.300 N 
ATOM      2  HN  UNL     1      -2.946   1.171   0.074  1.00  0.00     0.187 HD
HETATM    3  N   UNL     1      -1.468  -0.366   0.043  1.00  0.00    -0.296 N 
HETATM    4  C   UNL     1      -0.875   1.665   0.050  1.00  0.00     0.064 A 
HETATM    5  C   UNL     1       0.323   0.899   0.054  1.00  0.00     0.018 A 
HETATM    6  C   UNL     1      -0.097  -0.429   0.050  1.00  0.00     0.062 A 
HETATM    7  C   UNL     1      -2.374  -1.488  -0.024  1.00  0.00     0.178 C 
HETATM    8  C   UNL     1       1.701   1.184   0.028  1.00  0.00     0.016 A 
HETATM    9  C   UNL     1       0.803  -1.502   0.033  1.00  0.00     0.032 A 
HETATM   10  C   UNL     1       2.614   0.123   0.008  1.00  0.00     0.001 A 
HETATM   11  C   UNL     1       2.169  -1.198   0.014  1.00  0.00     0.002 A 
ENDROOT
BRANCH   4  12
HETATM   12  C   UNL     1      -1.011   3.157  -0.003  1.00  0.00     0.291 C 
BRANCH  12  13
HETATM   13  N   UNL     1      -0.371   3.726  -1.203  1.00  0.00    -0.074 N 
HETATM   14  C   UNL     1      -1.004   3.254  -2.431  1.00  0.00     0.267 C 
HETATM   15  H   UNL     1       0.612   3.454  -1.212  1.00  0.00     0.277 HD
HETATM   16  H   UNL     1      -0.471   4.741  -1.165  1.00  0.00     0.277 HD
ENDBRANCH  12  13
ENDBRANCH   4  12
TORSDOF 2
