REMARK  2 active torsions:
REMARK  status: ('A' for Active; 'I' for Inactive)
REMARK    1  A    between atoms: C_4  and  C_7 
REMARK    2  A    between atoms: C_7  and  O_11 
ROOT
HETATM    1  N   UNL     1      -1.970   0.917   0.042  1.00  0.00    -0.300 N 
ATOM      2  HN  UNL     1      -2.947   1.209   0.078  1.00  0.00     0.187 HD
HETATM    3  N   UNL     1      -1.476  -0.337   0.014  1.00  0.00    -0.296 N 
HETATM    4  C   UNL     1      -0.872   1.692   0.012  1.00  0.00     0.061 A 
HETATM    5  C   UNL     1       0.323   0.923   0.002  1.00  0.00     0.018 A 
HETATM    6  C   UNL     1      -0.105  -0.402   0.006  1.00  0.00     0.062 A 
HETATM    7  C   UNL     1      -2.383  -1.461  -0.022  1.00  0.00     0.178 C 
HETATM    8  C   UNL     1       1.703   1.198  -0.008  1.00  0.00     0.016 A 
HETATM    9  C   UNL     1       0.790  -1.482  -0.001  1.00  0.00     0.032 A 
HETATM   10  C   UNL     1       2.609   0.131  -0.012  1.00  0.00     0.001 A 
HETATM   11  C   UNL     1       2.157  -1.187  -0.009  1.00  0.00     0.002 A 
ENDROOT
BRANCH   4  12
HETATM   12  C   UNL     1      -1.014   3.177   0.016  1.00  0.00     0.223 C 
BRANCH  12  13
HETATM   13  O   UNL     1      -1.761   3.634   1.144  1.00  0.00    -0.395 OA
HETATM   14  H   UNL     1      -2.654   3.256   1.115  1.00  0.00     0.209 HD
ENDBRANCH  12  13
ENDBRANCH   4  12
TORSDOF 2
