REMARK  1 active torsions:
REMARK  status: ('A' for Active; 'I' for Inactive)
REMARK    1  A    between atoms: C_8  and  N_9 
ROOT
HETATM    1  C   UNL     1      -0.264   0.770   0.013  1.00  0.00     0.002 A 
HETATM    2  C   UNL     1      -0.244  -0.618   0.029  1.00  0.00     0.085 A 
HETATM    3  C   UNL     1      -2.352  -0.040   0.018  1.00  0.00     0.143 A 
HETATM    4  O   UNL     1      -1.514  -1.110   0.036  1.00  0.00    -0.322 OA
HETATM    5  C   UNL     1      -1.636   1.136   0.007  1.00  0.00     0.039 A 
HETATM    6  C   UNL     1       0.963   1.460  -0.013  1.00  0.00     0.043 A 
HETATM    7  C   UNL     1       0.920  -1.379   0.020  1.00  0.00     0.040 A 
HETATM    8  C   UNL     1       2.165   0.732   0.013  1.00  0.00     0.026 A 
HETATM    9  C   UNL     1       2.128  -0.668  -0.013  1.00  0.00     0.032 A 
ENDROOT
BRANCH   8  10
HETATM   10  N   UNL     1       3.383   1.401  -0.178  1.00  0.00    -0.399 N 
HETATM   11  H   UNL     1       3.412   2.385  -0.160  1.00  0.00     0.156 HD
HETATM   12  H   UNL     1       4.208   0.886  -0.329  1.00  0.00     0.156 HD
ENDBRANCH   8  10
TORSDOF 1
