REMARK  0 active torsions:
REMARK  status: ('A' for Active; 'I' for Inactive)
ROOT
HETATM    1  C   UNL     1      -0.816   0.240   0.084  1.00  0.00     0.158 A 
HETATM    2  S   UNL     1       0.161  -1.175   0.042  1.00  0.00    -0.046 SA
HETATM    3  N   UNL     1      -0.128   1.360   0.030  1.00  0.00    -0.280 N 
ATOM      4  HN  UNL     1      -0.554   2.287   0.040  1.00  0.00     0.189 HD
HETATM    5  N   UNL     1       1.235   1.145  -0.041  1.00  0.00    -0.303 N 
ATOM      6  HN  UNL     1       1.931   1.889  -0.091  1.00  0.00     0.186 HD
HETATM    7  C   UNL     1       1.522  -0.138  -0.036  1.00  0.00     0.160 A 
HETATM    8  N   UNL     1      -2.158   0.169   0.151  1.00  0.00    -0.379 N 
HETATM    9  H   UNL     1      -2.603  -0.708   0.189  1.00  0.00     0.158 HD
HETATM   10  H   UNL     1      -2.694   0.995   0.162  1.00  0.00     0.158 HD
ENDROOT
TORSDOF 0
