REMARK  2 active torsions:
REMARK  status: ('A' for Active; 'I' for Inactive)
REMARK    1  A    between atoms: C_10  and  C_12 
REMARK    2  A    between atoms: C_12  and  O_13 
ROOT
HETATM    1  C   UNL     1      -0.155  -0.749  -0.008  1.00  0.00     0.067 A 
HETATM    2  S   UNL     1       2.139  -0.008   0.044  1.00  0.00     0.068 SA
HETATM    3  C   UNL     1      -0.149   0.756   0.014  1.00  0.00     0.067 A 
HETATM    4  N   UNL     1       1.075  -1.285   0.007  1.00  0.00    -0.310 N 
ATOM      5  HN  UNL     1       1.310  -2.277  -0.002  1.00  0.00     0.176 HD
HETATM    6  N   UNL     1       1.086   1.279   0.046  1.00  0.00    -0.310 N 
ATOM      7  HN  UNL     1       1.330   2.269   0.067  1.00  0.00     0.176 HD
HETATM    8  C   UNL     1      -1.372  -1.471  -0.043  1.00  0.00     0.041 A 
HETATM    9  C   UNL     1      -1.361   1.484   0.003  1.00  0.00     0.033 A 
HETATM   10  C   UNL     1      -2.562  -0.708  -0.055  1.00  0.00    -0.033 A 
HETATM   11  C   UNL     1      -2.542   0.717  -0.034  1.00  0.00     0.012 A 
ENDROOT
BRANCH  10  12
HETATM   12  C   UNL     1      -3.893  -1.423  -0.105  1.00  0.00     0.203 C 
BRANCH  12  13
HETATM   13  O   UNL     1      -4.671  -1.094   1.036  1.00  0.00    -0.396 OA
HETATM   14  H   UNL     1      -4.201  -1.368   1.838  1.00  0.00     0.209 HD
ENDBRANCH  12  13
ENDBRANCH  10  12
TORSDOF 2
