REMARK  2 active torsions:
REMARK  status: ('A' for Active; 'I' for Inactive)
REMARK    1  A    between atoms: C_2  and  C_6 
REMARK    2  A    between atoms: C_3  and  C_7 
ROOT
HETATM    1  S   UNL     1       0.374  -0.355  -1.527  1.00  0.00    -0.083 SA
HETATM    2  C   UNL     1       0.751   1.115  -0.741  1.00  0.00     0.082 A 
HETATM    3  C   UNL     1       0.164  -1.205  -0.047  1.00  0.00     0.016 A 
HETATM    4  C   UNL     1       0.747   0.961   0.630  1.00  0.00     0.027 A 
HETATM    5  C   UNL     1       0.412  -0.367   1.027  1.00  0.00     0.021 A 
ENDROOT
BRANCH   3   6
HETATM    6  C   UNL     1      -0.206  -2.634  -0.035  1.00  0.00    -0.019 A 
HETATM    7  C   UNL     1       0.238  -3.468   1.005  1.00  0.00     0.013 A 
HETATM    8  C   UNL     1      -0.113  -4.821   1.046  1.00  0.00     0.001 A 
HETATM    9  C   UNL     1      -0.913  -5.365   0.046  1.00  0.00     0.000 A 
HETATM   10  C   UNL     1      -1.364  -4.557  -0.994  1.00  0.00     0.001 A 
HETATM   11  C   UNL     1      -1.016  -3.203  -1.032  1.00  0.00     0.013 A 
ENDBRANCH   3   6
BRANCH   2  12
HETATM   12  C   UNL     1       1.018   2.293  -1.532  1.00  0.00     0.216 C 
HETATM   13  O   UNL     1       1.012   2.423  -2.748  1.00  0.00    -0.643 OA
HETATM   14  O   UNL     1       1.301   3.362  -0.750  1.00  0.00    -0.643 OA
ENDBRANCH   2  12
TORSDOF 2
