REMARK  1 active torsions:
REMARK  status: ('A' for Active; 'I' for Inactive)
REMARK    1  A    between atoms: C_8  and  N_10 
ROOT
HETATM    1  C   UNL     1       0.050  -0.719   0.030  1.00  0.00     0.061 A 
HETATM    2  C   UNL     1      -1.158  -1.409   0.017  1.00  0.00     0.060 A 
HETATM    3  N   UNL     1       1.212  -1.405   0.050  1.00  0.00    -0.363 N 
ATOM      4  HN  UNL     1       1.234  -2.425   0.069  1.00  0.00     0.165 HD
HETATM    5  N   UNL     1       1.175   1.415   0.011  1.00  0.00    -0.363 N 
ATOM      6  HN  UNL     1       1.169   2.435   0.002  1.00  0.00     0.165 HD
HETATM    7  C   UNL     1       0.034   0.697   0.008  1.00  0.00     0.059 A 
HETATM    8  C   UNL     1      -2.389  -0.747   0.016  1.00  0.00     0.028 A 
HETATM    9  C   UNL     1      -1.188   1.352  -0.040  1.00  0.00     0.034 A 
HETATM   10  C   UNL     1      -2.391   0.643  -0.061  1.00  0.00     0.031 A 
HETATM   11  C   UNL     1       2.344  -0.669   0.044  1.00  0.00     0.105 A 
HETATM   12  C   UNL     1       2.326   0.710   0.026  1.00  0.00     0.105 A 
ENDROOT
BRANCH   8  13
HETATM   13  N   UNL     1      -3.578  -1.464  -0.147  1.00  0.00    -0.399 N 
HETATM   14  H   UNL     1      -3.572  -2.447  -0.092  1.00  0.00     0.156 HD
HETATM   15  H   UNL     1      -4.421  -0.985  -0.318  1.00  0.00     0.156 HD
ENDBRANCH   8  13
TORSDOF 1
