REMARK  1 active torsions:
REMARK  status: ('A' for Active; 'I' for Inactive)
REMARK    1  A    between atoms: C_1  and  C_5 
ROOT
HETATM    1  C   UNL     1      -1.578  -1.250  -0.016  1.00  0.00     0.068 A 
HETATM    2  C   UNL     1      -2.375  -0.116  -0.027  1.00  0.00     0.107 A 
HETATM    3  C   UNL     1      -0.218  -0.791  -0.011  1.00  0.00     0.009 A 
HETATM    4  N   UNL     1      -1.566   0.986  -0.025  1.00  0.00    -0.364 N 
HETATM    5  C   UNL     1      -0.246   0.606  -0.020  1.00  0.00     0.043 A 
HETATM    6  C   UNL     1       1.041  -1.431  -0.003  1.00  0.00     0.015 A 
HETATM    7  C   UNL     1       0.914   1.391  -0.023  1.00  0.00     0.030 A 
HETATM    8  C   UNL     1       2.211  -0.660  -0.009  1.00  0.00     0.001 A 
HETATM    9  C   UNL     1       2.145   0.731  -0.020  1.00  0.00     0.002 A 
HETATM   10  H   UNL     1      -1.884   1.918  -0.026  1.00  0.00     0.165 HD
ENDROOT
BRANCH   1  11
HETATM   11  C   UNL     1      -2.058  -2.618  -0.015  1.00  0.00     0.211 C 
HETATM   12  O   UNL     1      -1.365  -3.626  -0.002  1.00  0.00    -0.644 OA
HETATM   13  O   UNL     1      -3.407  -2.736  -0.033  1.00  0.00    -0.644 OA
ENDBRANCH   1  11
TORSDOF 1
