REMARK  1 active torsions:
REMARK  status: ('A' for Active; 'I' for Inactive)
REMARK    1  A    between atoms: CA_1  and  C_4 
ROOT
HETATM    1  CA  UNL     1      -2.455  -0.131  -0.067  1.00  0.00     0.111 A 
HETATM    2  N   UNL     1      -1.641   0.980  -0.048  1.00  0.00    -0.350 N 
HETATM    3  C   UNL     1      -1.617  -1.232  -0.035  1.00  0.00     0.050 A 
HETATM    4  C   UNL     1      -0.315   0.619  -0.029  1.00  0.00     0.043 A 
HETATM    5  C   UNL     1      -0.273  -0.774  -0.019  1.00  0.00    -0.007 A 
HETATM    6  C   UNL     1       0.841   1.409  -0.024  1.00  0.00     0.030 A 
HETATM    7  C   UNL     1       0.980  -1.416  -0.002  1.00  0.00     0.014 A 
HETATM    8  C   UNL     1       2.074   0.750  -0.013  1.00  0.00     0.002 A 
HETATM    9  C   UNL     1       2.146  -0.642  -0.003  1.00  0.00     0.001 A 
HETATM   10  H   UNL     1      -1.967   1.909  -0.048  1.00  0.00     0.166 HD
ENDROOT
BRANCH   1  11
HETATM   11  C   UNL     1      -3.886  -0.096  -0.118  1.00  0.00     0.226 C 
HETATM   12  O   UNL     1      -4.664  -1.036  -0.133  1.00  0.00    -0.643 OA
HETATM   13  OXT UNL     1      -4.339   1.175  -0.157  1.00  0.00    -0.643 OA
ENDBRANCH   1  11
TORSDOF 1
