REMARK  2 active torsions:
REMARK  status: ('A' for Active; 'I' for Inactive)
REMARK    1  A    between atoms: C_4  and  C_7 
REMARK    2  A    between atoms: C_7  and  N_9 
ROOT
HETATM    1  N   UNL     1       1.046   0.065  -0.004  1.00  0.00    -0.299 N 
HETATM    2  N   UNL     1      -0.013   0.900   0.012  1.00  0.00    -0.303 N 
ATOM      3  HN  UNL     1      -0.005   1.920   0.040  1.00  0.00     0.186 HD
HETATM    4  C   UNL     1       0.691  -1.263  -0.037  1.00  0.00     0.055 A 
HETATM    5  C   UNL     1      -0.690  -1.269  -0.044  1.00  0.00     0.054 A 
HETATM    6  C   UNL     1      -1.076   0.088  -0.017  1.00  0.00     0.024 A 
HETATM    7  C   UNL     1       2.368   0.644  -0.001  1.00  0.00     0.177 C 
HETATM    8  C   UNL     1      -2.446   0.653  -0.018  1.00  0.00     0.070 C 
ENDROOT
BRANCH   4   9
HETATM    9  C   UNL     1       1.651  -2.391  -0.034  1.00  0.00     0.288 C 
BRANCH   9  10
HETATM   10  N   UNL     1       2.521  -2.320  -1.198  1.00  0.00    -0.074 N 
HETATM   11  H   UNL     1       1.957  -2.374  -2.047  1.00  0.00     0.274 HD
HETATM   12  H   UNL     1       3.180  -3.099  -1.178  1.00  0.00     0.274 HD
HETATM   13  H   UNL     1       3.035  -1.439  -1.186  1.00  0.00     0.274 HD
ENDBRANCH   9  10
ENDBRANCH   4   9
TORSDOF 2
