REMARK  3 active torsions:
REMARK  status: ('A' for Active; 'I' for Inactive)
REMARK    1  A    between atoms: C_1  and  C_3 
REMARK    2  A    between atoms: C_11  and  C_13 
REMARK    3  A    between atoms: O_12  and  C_13 
ROOT
HETATM    1  C   UNL     1      -0.222   2.677  -0.038  1.00  0.00    -0.019 A 
HETATM    2  C   UNL     1       0.247   3.464  -1.101  1.00  0.00     0.013 A 
HETATM    3  C   UNL     1      -1.026   3.296   0.932  1.00  0.00     0.013 A 
HETATM    4  C   UNL     1      -1.333   4.657   0.857  1.00  0.00     0.010 A 
HETATM    5  C   UNL     1      -0.062   4.827  -1.180  1.00  0.00     0.010 A 
HETATM    6  C   UNL     1      -0.847   5.438  -0.197  1.00  0.00    -0.035 A 
ENDROOT
BRANCH   1   7
HETATM    7  C   UNL     1       0.114   1.242   0.030  1.00  0.00     0.015 A 
HETATM    8  S   UNL     1       0.281   0.445   1.547  1.00  0.00    -0.101 SA
HETATM    9  C   UNL     1       0.620  -1.057   0.813  1.00  0.00     0.050 A 
HETATM   10  C   UNL     1       0.645  -0.965  -0.559  1.00  0.00     0.008 A 
HETATM   11  C   UNL     1       0.362   0.358  -1.008  1.00  0.00     0.020 A 
ENDBRANCH   1   7
BRANCH   6  12
HETATM   12  C   UNL     1      -1.162   6.906  -0.276  1.00  0.00     0.202 C 
BRANCH  12  13
HETATM   13  O   UNL     1       0.037   7.671  -0.239  1.00  0.00    -0.396 OA
HETATM   14  H   UNL     1      -0.180   8.615  -0.291  1.00  0.00     0.209 HD
ENDBRANCH  12  13
ENDBRANCH   6  12
TORSDOF 3
