REMARK  3 active torsions:
REMARK  status: ('A' for Active; 'I' for Inactive)
REMARK    1  A    between atoms: C_3  and  C_9 
REMARK    2  A    between atoms: C_6  and  C_10 
REMARK    3  A    between atoms: C_10  and  O_11 
ROOT
HETATM    1  N   UNL     1      -0.409   1.089  -0.001  1.00  0.00    -0.345 N 
ATOM      2  HN  UNL     1      -0.964   1.944   0.018  1.00  0.00     0.167 HD
HETATM    3  C   UNL     1       0.937   1.139  -0.032  1.00  0.00     0.115 A 
HETATM    4  N   UNL     1       1.726   0.051  -0.053  1.00  0.00    -0.351 N 
ATOM      5  HN  UNL     1       2.743   0.124  -0.072  1.00  0.00     0.166 HD
HETATM    6  C   UNL     1      -0.275  -1.304  -0.016  1.00  0.00     0.003 A 
HETATM    7  C   UNL     1      -1.005  -0.126   0.004  1.00  0.00     0.016 A 
HETATM    8  C   UNL     1       1.098  -1.141  -0.047  1.00  0.00     0.101 A 
HETATM    9  C   UNL     1      -2.504  -0.078   0.024  1.00  0.00     0.069 C 
ENDROOT
BRANCH   3  10
HETATM   10  C   UNL     1       1.575   2.471  -0.048  1.00  0.00     0.008 A 
HETATM   11  C   UNL     1       0.804   3.651  -0.045  1.00  0.00     0.015 A 
HETATM   12  C   UNL     1       1.398   4.917  -0.060  1.00  0.00     0.001 A 
HETATM   13  C   UNL     1       2.784   5.034  -0.078  1.00  0.00     0.000 A 
HETATM   14  C   UNL     1       3.573   3.888  -0.083  1.00  0.00     0.001 A 
HETATM   15  C   UNL     1       2.974   2.623  -0.069  1.00  0.00     0.015 A 
ENDBRANCH   3  10
BRANCH   6  16
HETATM   16  C   UNL     1      -0.878  -2.672  -0.027  1.00  0.00     0.206 C 
BRANCH  16  17
HETATM   17  O   UNL     1      -1.574  -2.938   1.183  1.00  0.00    -0.396 OA
HETATM   18  H   UNL     1      -0.956  -2.891   1.929  1.00  0.00     0.209 HD
ENDBRANCH  16  17
ENDBRANCH   6  16
TORSDOF 3
