REMARK  3 active torsions:
REMARK  status: ('A' for Active; 'I' for Inactive)
REMARK    1  A    between atoms: C_1  and  C_8 
REMARK    2  A    between atoms: C_2  and  C_7 
REMARK    3  A    between atoms: C_8  and  O_9 
ROOT
HETATM    1  C   UNL     1       0.039  -1.335  -0.014  1.00  0.00     0.026 A 
HETATM    2  C   UNL     1      -1.281  -0.916  -0.012  1.00  0.00     0.119 A 
HETATM    3  O   UNL     1      -1.305   0.448  -0.058  1.00  0.00    -0.236 OA
HETATM    4  N   UNL     1      -0.019   0.945  -0.079  1.00  0.00    -0.265 N 
ATOM      5  HN  UNL     1       0.261   1.925  -0.112  1.00  0.00     0.194 HD
HETATM    6  C   UNL     1       0.785  -0.123  -0.047  1.00  0.00     0.040 A 
HETATM    7  C   UNL     1       2.254   0.073  -0.032  1.00  0.00     0.071 C 
ENDROOT
BRANCH   2   8
HETATM    8  C   UNL     1      -2.587  -1.567   0.045  1.00  0.00     0.000 A 
HETATM    9  C   UNL     1      -3.691  -0.902   0.603  1.00  0.00     0.014 A 
HETATM   10  C   UNL     1      -4.932  -1.535   0.713  1.00  0.00     0.001 A 
HETATM   11  C   UNL     1      -5.091  -2.842   0.262  1.00  0.00     0.000 A 
HETATM   12  C   UNL     1      -4.015  -3.510  -0.313  1.00  0.00     0.001 A 
HETATM   13  C   UNL     1      -2.775  -2.875  -0.426  1.00  0.00     0.014 A 
ENDBRANCH   2   8
BRANCH   1  14
HETATM   14  C   UNL     1       0.572  -2.715   0.040  1.00  0.00     0.207 C 
BRANCH  14  15
HETATM   15  O   UNL     1       0.819  -3.233  -1.263  1.00  0.00    -0.396 OA
HETATM   16  H   UNL     1      -0.012  -3.260  -1.763  1.00  0.00     0.209 HD
ENDBRANCH  14  15
ENDBRANCH   1  14
TORSDOF 3
