REMARK  2 active torsions:
REMARK  status: ('A' for Active; 'I' for Inactive)
REMARK    1  A    between atoms: C_1  and  C_4 
REMARK    2  A    between atoms: C_5  and  C_10 
ROOT
HETATM    1  C   UNL     1       0.743   1.265  -0.019  1.00  0.00     0.056 A 
HETATM    2  N   UNL     1      -1.296  -0.040  -0.048  1.00  0.00    -0.364 N 
ATOM      3  HN  UNL     1      -2.315  -0.077  -0.072  1.00  0.00     0.165 HD
HETATM    4  C   UNL     1      -0.553  -1.179  -0.021  1.00  0.00     0.042 A 
HETATM    5  C   UNL     1      -0.638   1.147  -0.042  1.00  0.00     0.106 A 
HETATM    6  C   UNL     1       1.497   0.095  -0.016  1.00  0.00     0.022 A 
HETATM    7  C   UNL     1       0.843  -1.136  -0.021  1.00  0.00     0.031 A 
ENDROOT
BRANCH   4   8
HETATM    8  C   UNL     1      -1.306  -2.450   0.019  1.00  0.00    -0.009 A 
HETATM    9  C   UNL     1      -2.588  -2.554  -0.550  1.00  0.00     0.013 A 
HETATM   10  C   UNL     1      -3.299  -3.758  -0.525  1.00  0.00     0.001 A 
HETATM   11  C   UNL     1      -2.742  -4.885   0.073  1.00  0.00     0.000 A 
HETATM   12  C   UNL     1      -1.481  -4.807   0.654  1.00  0.00     0.001 A 
HETATM   13  C   UNL     1      -0.776  -3.602   0.631  1.00  0.00     0.013 A 
ENDBRANCH   4   8
BRANCH   1  14
HETATM   14  C   UNL     1       1.346   2.607   0.007  1.00  0.00     0.210 C 
HETATM   15  O   UNL     1       0.737   3.660   0.009  1.00  0.00    -0.644 OA
HETATM   16  O   UNL     1       2.690   2.571   0.033  1.00  0.00    -0.644 OA
ENDBRANCH   1  14
TORSDOF 2
