REMARK  2 active torsions:
REMARK  status: ('A' for Active; 'I' for Inactive)
REMARK    1  A    between atoms: C_4  and  C_7 
REMARK    2  A    between atoms: N_6  and  C_7 
ROOT
HETATM    1  O   UNL     1       1.555  -1.031  -0.542  1.00  0.00    -0.343 OA
HETATM    2  C   UNL     1       0.298  -0.605  -0.372  1.00  0.00     0.075 A 
HETATM    3  C   UNL     1       0.219   0.755  -0.311  1.00  0.00    -0.022 A 
HETATM    4  C   UNL     1       2.411   0.045  -0.732  1.00  0.00     0.158 C 
HETATM    5  C   UNL     1       1.582   1.320  -0.413  1.00  0.00     0.075 C 
HETATM    6  C   UNL     1      -0.839  -1.407  -0.271  1.00  0.00     0.037 A 
HETATM    7  C   UNL     1      -1.001   1.408  -0.129  1.00  0.00     0.010 A 
HETATM    8  C   UNL     1      -2.085  -0.778  -0.103  1.00  0.00     0.003 A 
HETATM    9  C   UNL     1      -2.166   0.627  -0.032  1.00  0.00     0.001 A 
ENDROOT
BRANCH   4  10
HETATM   10  C   UNL     1       3.688  -0.052   0.115  1.00  0.00     0.262 C 
BRANCH  10  11
HETATM   11  N   UNL     1       4.437  -1.258  -0.222  1.00  0.00    -0.077 N 
HETATM   12  H   UNL     1       5.281  -1.304   0.350  1.00  0.00     0.274 HD
HETATM   13  H   UNL     1       4.696  -1.233  -1.208  1.00  0.00     0.274 HD
HETATM   14  H   UNL     1       3.859  -2.079  -0.043  1.00  0.00     0.274 HD
ENDBRANCH  10  11
ENDBRANCH   4  10
TORSDOF 2
