REMARK  2 active torsions:
REMARK  status: ('A' for Active; 'I' for Inactive)
REMARK    1  A    between atoms: C_1  and  C_3 
REMARK    2  A    between atoms: C_2  and  N_4 
ROOT
HETATM    1  C   UNL     1       1.392  -0.181   0.260  1.00  0.00     0.067 A 
HETATM    2  C   UNL     1       0.624  -1.347   0.020  1.00  0.00     0.047 A 
HETATM    3  C   UNL     1       0.792   1.097   0.245  1.00  0.00     0.021 A 
HETATM    4  C   UNL     1      -0.753  -1.153  -0.221  1.00  0.00     0.030 A 
HETATM    5  C   UNL     1      -0.568   1.243  -0.004  1.00  0.00     0.001 A 
HETATM    6  C   UNL     1      -1.342   0.116  -0.236  1.00  0.00     0.002 A 
ENDROOT
BRANCH   2   7
HETATM    7  N   UNL     1       1.168  -2.624  -0.024  1.00  0.00    -0.376 N 
HETATM    8  C   UNL     1       0.562  -3.694  -0.835  1.00  0.00     0.149 C 
HETATM    9  C   UNL     1       1.662  -4.696  -1.227  1.00  0.00     0.187 C 
HETATM   10  O   UNL     1       2.321  -5.237  -0.068  1.00  0.00    -0.388 OA
HETATM   11  C   UNL     1       2.920  -4.176   0.700  1.00  0.00     0.187 C 
HETATM   12  C   UNL     1       1.864  -3.158   1.165  1.00  0.00     0.149 C 
ENDBRANCH   2   7
BRANCH   1  13
HETATM   13  C   UNL     1       2.874  -0.221   0.433  1.00  0.00     0.211 C 
HETATM   14  O   UNL     1       3.675  -1.011  -0.030  1.00  0.00    -0.644 OA
HETATM   15  O   UNL     1       3.299   0.763   1.254  1.00  0.00    -0.644 OA
ENDBRANCH   1  13
TORSDOF 2
