REMARK  1 active torsions:
REMARK  status: ('A' for Active; 'I' for Inactive)
REMARK    1  A    between atoms: N_1  and  C_4 
ROOT
HETATM    1  N   UNL     1      -2.491  -7.627   0.119  1.00  0.00    -0.191 NA
HETATM    2  C   UNL     1      -2.114  -6.529   0.090  1.00  0.00     0.099 C 
HETATM    3  C   UNL     1      -0.764  -2.503   0.003  1.00  0.00     0.038 A 
HETATM    4  C   UNL     1      -0.339  -3.377   1.015  1.00  0.00     0.031 A 
HETATM    5  C   UNL     1      -1.633  -2.986  -0.988  1.00  0.00     0.031 A 
HETATM    6  C   UNL     1      -1.652  -5.174   0.055  1.00  0.00     0.044 A 
HETATM    7  C   UNL     1      -2.072  -4.315  -0.961  1.00  0.00     0.025 A 
HETATM    8  C   UNL     1      -0.784  -4.704   1.042  1.00  0.00     0.025 A 
ENDROOT
BRANCH   3   9
HETATM    9  N   UNL     1      -0.324  -1.142  -0.015  1.00  0.00    -0.333 N 
HETATM   10  C   UNL     1       0.549  -0.545   0.877  1.00  0.00     0.096 A 
HETATM   11  C   UNL     1       0.728   0.777   0.530  1.00  0.00     0.019 A 
HETATM   12  C   UNL     1      -0.062   1.018  -0.608  1.00  0.00     0.019 A 
HETATM   13  C   UNL     1      -0.692  -0.166  -0.924  1.00  0.00     0.096 A 
ENDBRANCH   3   9
TORSDOF 1
