REMARK  3 active torsions:
REMARK  status: ('A' for Active; 'I' for Inactive)
REMARK    1  A    between atoms: C_3  and  C_7 
REMARK    2  A    between atoms: C_4  and  C_8 
REMARK    3  A    between atoms: C_8  and  O_10 
ROOT
HETATM    1  N   UNK     1      -1.463   0.661  -0.019  1.00  0.00    -0.336 N 
ATOM      2  HN  UNK     1      -2.347   1.168  -0.058  1.00  0.00     0.168 HD
HETATM    3  C   UNK     1      -1.276  -0.649   0.010  1.00  0.00     0.158 A 
HETATM    4  C   UNK     1      -0.184   1.184   0.015  1.00  0.00     0.064 A 
HETATM    5  O   UNK     1       0.041  -1.022   0.052  1.00  0.00    -0.296 OA
HETATM    6  C   UNK     1       0.732   0.154   0.036  1.00  0.00     0.076 A 
HETATM    7  C   UNK     1       2.200   0.057   0.029  1.00  0.00     0.079 C 
ENDROOT
BRANCH   3   8
HETATM    8  C   UNK     1      -2.256  -1.727  -0.031  1.00  0.00     0.015 A 
HETATM    9  C   UNK     1      -3.617  -1.425  -0.191  1.00  0.00     0.016 A 
HETATM   10  C   UNK     1      -4.572  -2.442  -0.259  1.00  0.00     0.001 A 
HETATM   11  C   UNK     1      -4.177  -3.775  -0.158  1.00  0.00     0.000 A 
HETATM   12  C   UNK     1      -2.830  -4.092   0.011  1.00  0.00     0.001 A 
HETATM   13  C   UNK     1      -1.877  -3.075   0.074  1.00  0.00     0.016 A 
ENDBRANCH   3   8
BRANCH   4  14
HETATM   14  C   UNK     1       0.051   2.652   0.015  1.00  0.00     0.223 C 
BRANCH  14  15
HETATM   15  O   UNK     1      -1.016   3.373   0.627  1.00  0.00    -0.395 OA
HETATM   16  H   UNK     1      -1.836   3.219   0.133  1.00  0.00     0.209 HD
ENDBRANCH  14  15
ENDBRANCH   4  14
TORSDOF 3
