REMARK  2 active torsions:
REMARK  status: ('A' for Active; 'I' for Inactive)
REMARK    1  A    between atoms: C_3  and  C_7 
REMARK    2  A    between atoms: C_7  and  N_8 
ROOT
HETATM    1  N   UNL     1       0.712  -1.227   0.022  1.00  0.00    -0.340 N 
ATOM      2  HN  UNL     1       1.349  -2.023   0.042  1.00  0.00     0.167 HD
HETATM    3  C   UNL     1      -0.670  -1.242   0.007  1.00  0.00     0.066 A 
HETATM    4  C   UNL     1      -1.141   0.054  -0.014  1.00  0.00     0.075 A 
HETATM    5  C   UNL     1       1.015   0.056   0.005  1.00  0.00     0.120 A 
HETATM    6  O   UNL     1      -0.064   0.896  -0.022  1.00  0.00    -0.301 OA
HETATM    7  C   UNL     1      -2.477   0.671  -0.025  1.00  0.00     0.079 C 
HETATM    8  C   UNL     1       2.343   0.698   0.003  1.00  0.00     0.098 C 
ENDROOT
BRANCH   3   9
HETATM    9  C   UNL     1      -1.434  -2.517   0.008  1.00  0.00     0.288 C 
BRANCH   9  10
HETATM   10  N   UNL     1      -1.704  -2.915   1.388  1.00  0.00    -0.074 N 
HETATM   11  H   UNL     1      -0.822  -3.043   1.884  1.00  0.00     0.274 HD
HETATM   12  H   UNL     1      -2.227  -3.791   1.393  1.00  0.00     0.274 HD
HETATM   13  H   UNL     1      -2.252  -2.189   1.850  1.00  0.00     0.274 HD
ENDBRANCH   9  10
ENDBRANCH   3   9
TORSDOF 2
