REMARK  2 active torsions:
REMARK  status: ('A' for Active; 'I' for Inactive)
REMARK    1  A    between atoms: C_9  and  C_13 
REMARK    2  A    between atoms: O_12  and  C_13 
ROOT
HETATM    1  N   UNL     1      -1.063  -1.050  -0.006  1.00  0.00    -0.359 N 
ATOM      2  HN  UNL     1      -1.246  -2.053  -0.008  1.00  0.00     0.166 HD
HETATM    3  C   UNL     1       0.197  -0.583  -0.010  1.00  0.00     0.042 A 
HETATM    4  C   UNL     1       0.496   0.793  -0.010  1.00  0.00    -0.009 A 
HETATM    5  C   UNL     1       1.835   1.230  -0.008  1.00  0.00     0.023 A 
HETATM    6  C   UNL     1       1.257  -1.480  -0.013  1.00  0.00     0.031 A 
HETATM    7  C   UNL     1      -2.086  -0.161   0.001  1.00  0.00     0.005 A 
HETATM    8  C   UNL     1      -0.577   1.692  -0.012  1.00  0.00     0.015 A 
HETATM    9  C   UNL     1       2.892   0.309  -0.004  1.00  0.00    -0.034 A 
HETATM   10  C   UNL     1      -1.883   1.213  -0.006  1.00  0.00     0.025 A 
HETATM   11  C   UNL     1       2.589  -1.054  -0.009  1.00  0.00     0.011 A 
HETATM   12  C   UNL     1      -3.469  -0.736   0.021  1.00  0.00     0.068 C 
ENDROOT
BRANCH   9  13
HETATM   13  C   UNL     1       4.319   0.785   0.029  1.00  0.00     0.202 C 
BRANCH  13  14
HETATM   14  O   UNL     1       4.598   1.591  -1.107  1.00  0.00    -0.396 OA
HETATM   15  H   UNL     1       5.520   1.890  -1.072  1.00  0.00     0.209 HD
ENDBRANCH  13  14
ENDBRANCH   9  13
TORSDOF 2
