REMARK  1 active torsions:
REMARK  status: ('A' for Active; 'I' for Inactive)
REMARK    1  A    between atoms: C_1  and  C_4 
REMARK       I    between atoms: C_4  and  N_8 
ROOT
HETATM    1  C   UNL     1      -0.805   1.295  -0.004  1.00  0.00     0.072 A 
HETATM    2  S   UNL     1      -1.433  -0.298  -0.008  1.00  0.00    -0.096 SA
HETATM    3  C   UNL     1       0.578   1.279   0.000  1.00  0.00     0.031 A 
HETATM    4  C   UNL     1       0.131  -0.990  -0.004  1.00  0.00     0.057 A 
HETATM    5  C   UNL     1       1.134  -0.041  -0.000  1.00  0.00    -0.054 A 
HETATM    6  C   UNL     1       2.597  -0.330   0.004  1.00  0.00     0.048 C 
ENDROOT
BRANCH   1   7
HETATM    7  C   UNL     1      -1.652   2.474  -0.006  1.00  0.00     0.256 C 
HETATM    8  O   UNL     1      -1.226   3.627  -0.003  1.00  0.00    -0.267 OA
HETATM    9  N   UNL     1      -3.004   2.272  -0.013  1.00  0.00    -0.366 N 
HETATM   10  H   UNL     1      -3.365   1.357  -0.015  1.00  0.00     0.159 HD
HETATM   11  H   UNL     1      -3.617   3.043  -0.015  1.00  0.00     0.159 HD
ENDBRANCH   1   7
TORSDOF 1
