REMARK  2 active torsions:
REMARK  status: ('A' for Active; 'I' for Inactive)
REMARK    1  A    between atoms: C_1  and  C_3 
REMARK    2  A    between atoms: C_9  and  N_10 
ROOT
HETATM    1  C   UNL     1      -0.553   2.540  -0.030  1.00  0.00    -0.002 A 
HETATM    2  C   UNL     1      -0.157   3.400  -1.062  1.00  0.00     0.016 A 
HETATM    3  C   UNL     1      -1.353   3.068   0.992  1.00  0.00     0.016 A 
HETATM    4  C   UNL     1      -1.359   5.260  -0.060  1.00  0.00     0.025 A 
HETATM    5  C   UNL     1      -0.536   4.749  -1.064  1.00  0.00     0.030 A 
HETATM    6  C   UNL     1      -1.731   4.416   0.987  1.00  0.00     0.030 A 
ENDROOT
BRANCH   1   7
HETATM    7  C   UNL     1      -0.107   1.149   0.014  1.00  0.00     0.085 A 
HETATM    8  O   UNL     1       0.750   0.753  -0.977  1.00  0.00    -0.322 OA
HETATM    9  C   UNL     1       1.081  -0.541  -0.738  1.00  0.00     0.142 A 
HETATM   10  C   UNL     1       0.447  -0.998   0.391  1.00  0.00     0.027 A 
HETATM   11  C   UNL     1      -0.325   0.088   0.873  1.00  0.00     0.040 A 
ENDBRANCH   1   7
BRANCH   4  12
HETATM   12  N   UNL     1      -1.599   6.635   0.022  1.00  0.00    -0.399 N 
HETATM   13  H   UNL     1      -1.335   7.227  -0.719  1.00  0.00     0.156 HD
HETATM   14  H   UNL     1      -2.032   7.012   0.822  1.00  0.00     0.156 HD
ENDBRANCH   4  12
TORSDOF 2
