REMARK  3 active torsions:
REMARK  status: ('A' for Active; 'I' for Inactive)
REMARK    1  A    between atoms: C_1  and  C_5 
REMARK    2  A    between atoms: C_6  and  C_12 
REMARK    3  A    between atoms: O_7  and  C_12 
ROOT
HETATM    1  C   UNL     1       1.387  -0.235   0.090  1.00  0.00    -0.025 A 
HETATM    2  C   UNL     1       0.466  -1.301   0.053  1.00  0.00     0.021 A 
HETATM    3  C   UNL     1      -0.925  -1.092   0.016  1.00  0.00    -0.034 A 
HETATM    4  C   UNL     1       0.854   1.066   0.062  1.00  0.00     0.012 A 
HETATM    5  C   UNL     1      -0.526   1.290   0.006  1.00  0.00     0.002 A 
HETATM    6  C   UNL     1      -1.412   0.216  -0.010  1.00  0.00     0.009 A 
ENDROOT
BRANCH   1   7
HETATM    7  C   UNL     1       2.848  -0.480   0.173  1.00  0.00    -0.023 A 
HETATM    8  C   UNL     1       3.783   0.391  -0.404  1.00  0.00     0.029 A 
HETATM    9  C   UNL     1       5.139   0.115  -0.290  1.00  0.00     0.088 A 
HETATM   10  N   UNL     1       5.639  -0.964   0.346  1.00  0.00    -0.375 N 
HETATM   11  C   UNL     1       4.737  -1.800   0.896  1.00  0.00     0.088 A 
ATOM     12  HN  UNL     1       6.642  -1.137   0.407  1.00  0.00     0.164 HD
HETATM   13  C   UNL     1       3.365  -1.601   0.843  1.00  0.00     0.029 A 
ENDBRANCH   1   7
BRANCH   3  14
HETATM   14  C   UNL     1      -1.862  -2.270   0.028  1.00  0.00     0.202 C 
BRANCH  14  15
HETATM   15  O   UNL     1      -1.647  -3.095  -1.109  1.00  0.00    -0.396 OA
HETATM   16  H   UNL     1      -2.259  -3.847  -1.083  1.00  0.00     0.209 HD
ENDBRANCH  14  15
ENDBRANCH   3  14
TORSDOF 3
