REMARK  3 active torsions:
REMARK  status: ('A' for Active; 'I' for Inactive)
REMARK    1  A    between atoms: N_1  and  C_2 
REMARK    2  A    between atoms: C_4  and  C_9 
REMARK    3  A    between atoms: C_9  and  O_11 
ROOT
HETATM    1  C   UNL     1      -3.034   0.046   0.777  1.00  0.00     0.038 A 
HETATM    2  C   UNL     1      -3.590   1.113   1.534  1.00  0.00    -0.008 A 
HETATM    3  C   UNL     1      -3.873  -1.076   0.575  1.00  0.00     0.030 A 
HETATM    4  C   UNL     1      -4.944   1.054   1.947  1.00  0.00     0.011 A 
HETATM    5  C   UNL     1      -5.190  -1.142   1.045  1.00  0.00     0.002 A 
HETATM    6  C   UNL     1      -5.737  -0.064   1.709  1.00  0.00     0.001 A 
ENDROOT
BRANCH   1   7
HETATM    7  N   UNL     1      -1.716   0.018   0.307  1.00  0.00    -0.377 N 
HETATM    8  C   UNL     1      -1.084   1.187  -0.337  1.00  0.00     0.150 C 
HETATM    9  C   UNL     1       0.411   1.212   0.062  1.00  0.00     0.254 C 
HETATM   10  N   UNL     1       1.125   0.009  -0.426  1.00  0.00    -0.072 N 
HETATM   11  C   UNL     1       0.438  -1.205   0.071  1.00  0.00     0.254 C 
HETATM   12  C   UNL     1       2.517   0.022   0.020  1.00  0.00     0.269 C 
HETATM   13  H   UNL     1       1.117   0.008  -1.446  1.00  0.00     0.279 HD
HETATM   14  C   UNL     1      -1.092  -1.229  -0.198  1.00  0.00     0.150 C 
ENDBRANCH   1   7
BRANCH   2  15
HETATM   15  C   UNL     1      -2.797   2.338   1.945  1.00  0.00     0.205 C 
BRANCH  15  16
HETATM   16  O   UNL     1      -3.198   2.895   3.198  1.00  0.00    -0.396 OA
HETATM   17  H   UNL     1      -4.120   3.192   3.139  1.00  0.00     0.209 HD
ENDBRANCH  15  16
ENDBRANCH   2  15
TORSDOF 3
