REMARK  3 active torsions:
REMARK  status: ('A' for Active; 'I' for Inactive)
REMARK    1  A    between atoms: C_1  and  N_4 
REMARK    2  A    between atoms: C_5  and  C_11 
REMARK    3  A    between atoms: N_6  and  C_11 
ROOT
HETATM    1  C   UNL     1      -0.779   1.171   0.047  1.00  0.00     0.103 A 
HETATM    2  N   UNL     1      -0.339   0.958   1.306  1.00  0.00    -0.344 N 
ATOM      3  HN  UNL     1      -0.533   1.635   2.044  1.00  0.00     0.167 HD
HETATM    4  C   UNL     1       0.366  -0.171   1.574  1.00  0.00     0.036 A 
HETATM    5  C   UNL     1      -0.520   0.244  -0.965  1.00  0.00     0.048 A 
HETATM    6  C   UNL     1       0.177  -0.926  -0.683  1.00  0.00     0.006 A 
HETATM    7  C   UNL     1       0.629  -1.141   0.609  1.00  0.00     0.027 A 
ENDROOT
BRANCH   1   8
HETATM    8  N   UNL     1      -1.597   2.257  -0.225  1.00  0.00    -0.367 N 
HETATM    9  C   UNL     1      -2.255   2.912   0.901  1.00  0.00     0.124 C 
HETATM   10  C   UNL     1      -3.593   3.456   0.386  1.00  0.00     0.020 C 
HETATM   11  C   UNL     1      -3.412   4.352  -0.844  1.00  0.00     0.003 C 
HETATM   12  C   UNL     1      -2.545   3.687  -1.917  1.00  0.00     0.020 C 
HETATM   13  C   UNL     1      -1.241   3.151  -1.324  1.00  0.00     0.124 C 
ENDBRANCH   1   8
BRANCH   4  14
HETATM   14  C   UNL     1       0.834  -0.379   2.998  1.00  0.00     0.286 C 
BRANCH  14  15
HETATM   15  N   UNL     1       0.196  -1.531   3.643  1.00  0.00    -0.074 N 
HETATM   16  H   UNL     1       0.547  -1.624   4.597  1.00  0.00     0.274 HD
HETATM   17  H   UNL     1       0.412  -2.378   3.118  1.00  0.00     0.274 HD
HETATM   18  H   UNL     1      -0.814  -1.393   3.665  1.00  0.00     0.274 HD
ENDBRANCH  14  15
ENDBRANCH   4  14
TORSDOF 3
