REMARK  1 active torsions:
REMARK  status: ('A' for Active; 'I' for Inactive)
REMARK    1  A    between atoms: CA_1  and  C_6 
ROOT
HETATM    1  CA  UNL     1       2.435   0.426   0.007  1.00  0.00     0.111 A 
HETATM    2  N   UNL     1       1.901  -0.845   0.003  1.00  0.00    -0.350 N 
HETATM    3  C   UNL     1       1.386   1.334   0.004  1.00  0.00     0.057 A 
HETATM    4  C   UNL     1       0.533  -0.755   0.005  1.00  0.00     0.050 A 
HETATM    5  C   UNL     1       0.190   0.563   0.002  1.00  0.00     0.034 A 
HETATM    6  S   UNL     1      -1.527   0.793  -0.001  1.00  0.00    -0.100 SA
HETATM    7  C   UNL     1      -0.579  -1.640   0.009  1.00  0.00     0.038 A 
HETATM    8  C   UNL     1      -1.752  -0.914   0.009  1.00  0.00     0.053 A 
HETATM    9  H   UNL     1       2.419  -1.682   0.000  1.00  0.00     0.166 HD
ENDROOT
BRANCH   1  10
HETATM   10  C   UNL     1       3.855   0.656   0.015  1.00  0.00     0.226 C 
HETATM   11  O   UNL     1       4.735  -0.190   0.019  1.00  0.00    -0.643 OA
HETATM   12  OXT UNL     1       4.149   1.971   0.020  1.00  0.00    -0.643 OA
ENDBRANCH   1  10
TORSDOF 1
