REMARK  3 active torsions:
REMARK  status: ('A' for Active; 'I' for Inactive)
REMARK    1  A    between atoms: C_1  and  C_4 
REMARK    2  A    between atoms: C_9  and  C_13 
REMARK    3  A    between atoms: O_11  and  C_13 
ROOT
HETATM    1  C   UNL     1       1.366  -0.235   0.103  1.00  0.00    -0.025 A 
HETATM    2  C   UNL     1       0.456  -1.304   0.008  1.00  0.00     0.013 A 
HETATM    3  C   UNL     1       0.825   1.063   0.094  1.00  0.00     0.013 A 
HETATM    4  C   UNL     1      -0.925  -1.091  -0.084  1.00  0.00     0.010 A 
HETATM    5  C   UNL     1      -0.554   1.282  -0.010  1.00  0.00     0.010 A 
HETATM    6  C   UNL     1      -1.444   0.206  -0.097  1.00  0.00    -0.035 A 
ENDROOT
BRANCH   1   7
HETATM    7  C   UNL     1       2.825  -0.466   0.210  1.00  0.00    -0.011 A 
HETATM    8  C   UNL     1       3.765   0.405  -0.350  1.00  0.00     0.099 A 
HETATM    9  N   UNL     1       5.114   0.262  -0.275  1.00  0.00    -0.374 N 
HETATM   10  C   UNL     1       5.570  -0.818   0.388  1.00  0.00     0.087 A 
ATOM     11  HN  UNL     1       5.749   0.938  -0.699  1.00  0.00     0.164 HD
HETATM   12  C   UNL     1       4.743  -1.757   0.975  1.00  0.00     0.018 A 
HETATM   13  C   UNL     1       3.362  -1.573   0.886  1.00  0.00     0.015 A 
ENDBRANCH   1   7
BRANCH   6  14
HETATM   14  C   UNL     1      -2.924   0.451  -0.210  1.00  0.00     0.202 C 
BRANCH  14  15
HETATM   15  O   UNL     1      -3.410   1.129   0.941  1.00  0.00    -0.396 OA
HETATM   16  H   UNL     1      -4.364   1.278   0.850  1.00  0.00     0.209 HD
ENDBRANCH  14  15
ENDBRANCH   6  14
TORSDOF 3
