REMARK  4 active torsions:
REMARK  status: ('A' for Active; 'I' for Inactive)
REMARK    1  A    between atoms: N_1  and  C_2 
REMARK    2  A    between atoms: C_2  and  C_4 
REMARK    3  A    between atoms: N_6  and  C_13 
REMARK    4  A    between atoms: C_7  and  C_13 
ROOT
HETATM    1  C   UNL     1      -0.333  -0.181  -2.559  1.00  0.00    -0.032 A 
HETATM    2  C   UNL     1       0.470  -1.323  -2.427  1.00  0.00     0.017 A 
HETATM    3  C   UNL     1       1.774  -1.372  -2.949  1.00  0.00    -0.032 A 
HETATM    4  C   UNL     1       1.441   0.858  -3.858  1.00  0.00     0.001 A 
HETATM    5  C   UNL     1       0.163   0.906  -3.296  1.00  0.00     0.009 A 
HETATM    6  C   UNL     1       2.247  -0.271  -3.672  1.00  0.00     0.009 A 
ENDROOT
BRANCH   1   7
HETATM    7  C   UNL     1      -1.611  -0.078  -1.746  1.00  0.00     0.273 C 
BRANCH   7   8
HETATM    8  N   UNL     1      -2.810   0.337  -2.484  1.00  0.00    -0.063 N 
HETATM    9  C   UNL     1      -3.302  -0.693  -3.426  1.00  0.00     0.261 C 
HETATM   10  C   UNL     1      -4.070  -1.864  -2.784  1.00  0.00     0.195 C 
HETATM   11  O   UNL     1      -5.131  -1.406  -1.937  1.00  0.00    -0.388 OA
HETATM   12  C   UNL     1      -4.617  -0.540  -0.921  1.00  0.00     0.195 C 
HETATM   13  C   UNL     1      -3.906   0.675  -1.542  1.00  0.00     0.261 C 
HETATM   14  H   UNL     1      -2.534   1.154  -3.028  1.00  0.00     0.280 HD
ENDBRANCH   7   8
ENDBRANCH   1   7
BRANCH   3  15
HETATM   15  C   UNL     1       2.689  -2.528  -2.614  1.00  0.00     0.270 C 
BRANCH  15  16
HETATM   16  N   UNL     1       2.202  -3.808  -3.128  1.00  0.00    -0.075 N 
HETATM   17  C   UNL     1       3.061  -4.897  -2.680  1.00  0.00     0.267 C 
HETATM   18  H   UNL     1       2.198  -3.781  -4.148  1.00  0.00     0.277 HD
HETATM   19  H   UNL     1       1.257  -3.967  -2.778  1.00  0.00     0.277 HD
ENDBRANCH  15  16
ENDBRANCH   3  15
TORSDOF 4
