REMARK  2 active torsions:
REMARK  status: ('A' for Active; 'I' for Inactive)
REMARK    1  A    between atoms: C_5  and  C_11 
REMARK    2  A    between atoms: C_11  and  O_13 
ROOT
HETATM    1  C   UNL     1       0.182  -0.737  -0.011  1.00  0.00     0.018 A 
HETATM    2  N   UNL     1      -1.193   1.068  -0.025  1.00  0.00    -0.298 N 
ATOM      3  HN  UNL     1      -1.569   2.016  -0.039  1.00  0.00     0.187 HD
HETATM    4  N   UNL     1      -1.888  -0.091  -0.011  1.00  0.00    -0.297 N 
HETATM    5  C   UNL     1      -1.104  -1.223  -0.002  1.00  0.00     0.064 A 
HETATM    6  C   UNL     1       0.097   0.703  -0.017  1.00  0.00     0.060 A 
HETATM    7  C   UNL     1       1.351  -1.496  -0.004  1.00  0.00     0.016 A 
HETATM    8  C   UNL     1       1.254   1.496  -0.013  1.00  0.00     0.032 A 
HETATM    9  C   UNL     1       2.498  -0.674   0.004  1.00  0.00     0.001 A 
HETATM   10  C   UNL     1       2.455   0.754   0.001  1.00  0.00     0.002 A 
HETATM   11  C   UNL     1      -3.331   0.003   0.028  1.00  0.00     0.177 C 
ENDROOT
BRANCH   5  12
HETATM   12  C   UNL     1      -1.643  -2.599   0.014  1.00  0.00     0.223 C 
BRANCH  12  13
HETATM   13  O   UNL     1      -2.370  -2.750   1.224  1.00  0.00    -0.395 OA
HETATM   14  H   UNL     1      -1.781  -2.591   1.977  1.00  0.00     0.209 HD
ENDBRANCH  12  13
ENDBRANCH   5  12
TORSDOF 2
