REMARK  4 active torsions:
REMARK  status: ('A' for Active; 'I' for Inactive)
REMARK    1  A    between atoms: C_1  and  C_3 
REMARK    2  A    between atoms: C_1  and  O_9 
REMARK    3  A    between atoms: N_2  and  C_5 
REMARK    4  A    between atoms: C_5  and  C_8 
ROOT
HETATM    1  C   UNL     1       0.374  -1.085  -0.439  1.00  0.00     0.039 A 
HETATM    2  C   UNL     1      -0.068  -1.952   0.570  1.00  0.00     0.018 A 
HETATM    3  C   UNL     1       0.115  -1.417  -1.775  1.00  0.00     0.018 A 
HETATM    4  C   UNL     1      -1.055  -3.442  -1.087  1.00  0.00    -0.033 A 
HETATM    5  C   UNL     1      -0.773  -3.122   0.249  1.00  0.00     0.010 A 
HETATM    6  C   UNL     1      -0.586  -2.587  -2.094  1.00  0.00     0.010 A 
ENDROOT
BRANCH   4   7
HETATM    7  C   UNL     1      -1.875  -4.674  -1.440  1.00  0.00     0.273 C 
BRANCH   7   8
HETATM    8  N   UNL     1      -3.234  -4.670  -0.861  1.00  0.00    -0.067 N 
HETATM    9  C   UNL     1      -4.042  -3.549  -1.372  1.00  0.00     0.235 C 
HETATM   10  C   UNL     1      -5.438  -3.531  -0.742  1.00  0.00     0.028 C 
HETATM   11  C   UNL     1      -6.161  -4.855  -0.951  1.00  0.00     0.003 C 
HETATM   12  C   UNL     1      -5.288  -6.006  -0.468  1.00  0.00     0.028 C 
HETATM   13  C   UNL     1      -3.905  -5.956  -1.124  1.00  0.00     0.235 C 
HETATM   14  H   UNL     1      -3.140  -4.544   0.147  1.00  0.00     0.280 HD
ENDBRANCH   7   8
ENDBRANCH   4   7
BRANCH   1  15
HETATM   15  C   UNL     1       1.094   0.169  -0.052  1.00  0.00     0.292 C 
HETATM   16  O   UNL     1       1.298   0.498   1.103  1.00  0.00    -0.259 OA
BRANCH  15  17
HETATM   17  O   UNL     1       1.465   0.870  -1.156  1.00  0.00    -0.323 OA
HETATM   18  C   UNL     1       2.171   2.093  -0.917  1.00  0.00     0.213 C 
ENDBRANCH  15  17
ENDBRANCH   1  15
TORSDOF 4
