REMARK  4 active torsions:
REMARK  status: ('A' for Active; 'I' for Inactive)
REMARK    1  A    between atoms: N_1  and  C_3 
REMARK    2  A    between atoms: C_3  and  C_8 
REMARK    3  A    between atoms: C_9  and  C_16 
REMARK    4  A    between atoms: O_15  and  C_16 
ROOT
HETATM    1  C   UNL     1       2.428   0.077   0.089  1.00  0.00     0.273 C 
ENDROOT
BRANCH   1   2
HETATM    2  N   UNL     1       1.029   0.028  -0.377  1.00  0.00    -0.064 N 
HETATM    3  C   UNL     1       0.940   0.009  -1.852  1.00  0.00     0.263 C 
HETATM    4  C   UNL     1      -0.512  -0.148  -2.360  1.00  0.00     0.262 C 
HETATM    5  N   UNL     1      -1.234  -1.317  -1.824  1.00  0.00    -0.072 N 
HETATM    6  C   UNL     1      -1.108  -1.318  -0.353  1.00  0.00     0.262 C 
HETATM    7  C   UNL     1      -0.751  -2.563  -2.413  1.00  0.00     0.269 C 
HETATM    8  H   UNL     1      -2.221  -1.250  -2.074  1.00  0.00     0.279 HD
HETATM    9  C   UNL     1       0.336  -1.148   0.185  1.00  0.00     0.263 C 
HETATM   10  H   UNL     1       0.571   0.877  -0.046  1.00  0.00     0.280 HD
ENDBRANCH   1   2
BRANCH   1  11
HETATM   11  C   UNL     1       3.165   1.320  -0.374  1.00  0.00    -0.033 A 
HETATM   12  C   UNL     1       2.694   2.594  -0.030  1.00  0.00     0.009 A 
HETATM   13  C   UNL     1       3.293   3.741  -0.557  1.00  0.00     0.010 A 
HETATM   14  C   UNL     1       4.382   3.636  -1.430  1.00  0.00    -0.035 A 
HETATM   15  C   UNL     1       4.891   2.364  -1.727  1.00  0.00     0.010 A 
HETATM   16  C   UNL     1       4.290   1.217  -1.203  1.00  0.00     0.009 A 
BRANCH  14  17
HETATM   17  C   UNL     1       4.969   4.859  -2.082  1.00  0.00     0.202 C 
BRANCH  17  18
HETATM   18  O   UNL     1       6.338   5.018  -1.740  1.00  0.00    -0.396 OA
HETATM   19  H   UNL     1       6.690   5.811  -2.173  1.00  0.00     0.209 HD
ENDBRANCH  17  18
ENDBRANCH  14  17
ENDBRANCH   1  11
TORSDOF 4
