REMARK  3 active torsions:
REMARK  status: ('A' for Active; 'I' for Inactive)
REMARK    1  A    between atoms: C_1  and  C_2 
REMARK    2  A    between atoms: C_8  and  C_12 
REMARK    3  A    between atoms: N_9  and  C_12 
ROOT
HETATM    1  C   UNL     1      -0.567   2.493  -0.019  1.00  0.00    -0.002 A 
HETATM    2  C   UNL     1      -0.186   3.304  -1.099  1.00  0.00     0.023 A 
HETATM    3  C   UNL     1      -0.659   4.621  -1.239  1.00  0.00    -0.032 A 
HETATM    4  C   UNL     1      -1.412   3.042   0.953  1.00  0.00     0.014 A 
HETATM    5  C   UNL     1      -1.873   4.357   0.842  1.00  0.00     0.002 A 
HETATM    6  C   UNL     1      -1.503   5.141  -0.251  1.00  0.00     0.009 A 
ENDROOT
BRANCH   1   7
HETATM    7  C   UNL     1      -0.102   1.109   0.055  1.00  0.00     0.085 A 
HETATM    8  O   UNL     1      -0.517   0.377   1.132  1.00  0.00    -0.322 OA
HETATM    9  C   UNL     1      -0.004  -0.872   0.998  1.00  0.00     0.142 A 
HETATM   10  C   UNL     1       0.744  -0.964  -0.152  1.00  0.00     0.027 A 
HETATM   11  C   UNL     1       0.685   0.313  -0.757  1.00  0.00     0.040 A 
ENDBRANCH   1   7
BRANCH   3  12
HETATM   12  C   UNL     1      -0.257   5.453  -2.436  1.00  0.00     0.270 C 
BRANCH  12  13
HETATM   13  N   UNL     1      -0.746   4.860  -3.682  1.00  0.00    -0.075 N 
HETATM   14  C   UNL     1      -0.333   5.640  -4.837  1.00  0.00     0.267 C 
HETATM   15  H   UNL     1      -1.765   4.822  -3.654  1.00  0.00     0.277 HD
HETATM   16  H   UNL     1      -0.353   3.923  -3.768  1.00  0.00     0.277 HD
ENDBRANCH  12  13
ENDBRANCH   3  12
TORSDOF 3
