REMARK  3 active torsions:
REMARK  status: ('A' for Active; 'I' for Inactive)
REMARK    1  A    between atoms: C_3  and  C_7 
REMARK    2  A    between atoms: C_6  and  C_12 
REMARK    3  A    between atoms: C_12  and  N_14 
ROOT
HETATM    1  N   UNL     1       0.060   1.066   0.057  1.00  0.00    -0.297 N 
ATOM      2  HN  UNL     1      -0.300   2.016   0.150  1.00  0.00     0.187 HD
HETATM    3  C   UNL     1       1.335   0.682  -0.071  1.00  0.00     0.067 A 
HETATM    4  N   UNL     1      -0.642  -0.086   0.036  1.00  0.00    -0.299 N 
HETATM    5  C   UNL     1       1.442  -0.725  -0.144  1.00  0.00     0.060 A 
HETATM    6  C   UNL     1       0.150  -1.203  -0.041  1.00  0.00     0.055 A 
HETATM    7  C   UNL     1      -2.083  -0.003   0.058  1.00  0.00     0.177 C 
ENDROOT
BRANCH   3   8
HETATM    8  C   UNL     1       2.463   1.670  -0.135  1.00  0.00     0.033 A 
HETATM    9  S   UNL     1       4.090   1.261  -0.463  1.00  0.00    -0.100 SA
HETATM   10  C   UNL     1       4.585   2.897  -0.382  1.00  0.00     0.050 A 
HETATM   11  C   UNL     1       3.537   3.738  -0.078  1.00  0.00     0.008 A 
HETATM   12  C   UNL     1       2.308   3.027   0.061  1.00  0.00     0.021 A 
ENDBRANCH   3   8
BRANCH   6  13
HETATM   13  C   UNL     1      -0.355  -2.596  -0.039  1.00  0.00     0.288 C 
BRANCH  13  14
HETATM   14  N   UNL     1      -0.949  -2.903   1.253  1.00  0.00    -0.074 N 
HETATM   15  H   UNL     1      -0.246  -2.801   1.984  1.00  0.00     0.274 HD
HETATM   16  H   UNL     1      -1.297  -3.862   1.247  1.00  0.00     0.274 HD
HETATM   17  H   UNL     1      -1.722  -2.262   1.433  1.00  0.00     0.274 HD
ENDBRANCH  13  14
ENDBRANCH   6  13
TORSDOF 3
