REMARK  0 active torsions:
REMARK  status: ('A' for Active; 'I' for Inactive)
ROOT
HETATM    1  C   UNL     1       0.241   0.739   0.094  1.00  0.00     0.130 A 
HETATM    2  C   UNL     1       1.520   1.251   0.115  1.00  0.00     0.121 A 
HETATM    3  C   UNL     1       0.224  -0.660  -0.111  1.00  0.00     0.110 A 
HETATM    4  S   UNL     1       2.689   0.000  -0.033  1.00  0.00    -0.085 SA
HETATM    5  C   UNL     1       1.479  -1.208  -0.180  1.00  0.00     0.090 A 
HETATM    6  C   UNL     1       1.872   2.630   0.217  1.00  0.00     0.110 C 
HETATM    7  N   UNL     1       2.173   3.750   0.269  1.00  0.00    -0.191 NA
HETATM    8  O   UNL     1      -0.867   1.501   0.246  1.00  0.00    -0.344 OA
HETATM    9  O   UNL     1      -0.894  -1.408  -0.246  1.00  0.00    -0.346 OA
HETATM   10  C   UNL     1      -2.041   0.801  -0.190  1.00  0.00     0.202 C 
HETATM   11  C   UNL     1      -2.055  -0.688   0.193  1.00  0.00     0.202 C 
ENDROOT
TORSDOF 0
