REMARK  6 active torsions:
REMARK  status: ('A' for Active; 'I' for Inactive)
REMARK    1  A    between atoms: N_1  and  C_11 
REMARK    2  A    between atoms: C_2  and  O_9 
REMARK    3  A    between atoms: N_3  and  C_12 
REMARK    4  A    between atoms: C_4  and  C_12 
REMARK    5  A    between atoms: O_9  and  C_10 
REMARK    6  A    between atoms: C_10  and  C_11 
ROOT
HETATM    1  C   UNL     1       1.298   2.941  -0.413  1.00  0.00     0.068 A 
HETATM    2  C   UNL     1       1.603   3.091  -3.226  1.00  0.00    -0.033 A 
HETATM    3  C   UNL     1       1.759   1.837  -1.134  1.00  0.00     0.037 A 
HETATM    4  C   UNL     1       1.032   4.127  -1.099  1.00  0.00     0.037 A 
HETATM    5  C   UNL     1       1.909   1.915  -2.523  1.00  0.00     0.011 A 
HETATM    6  C   UNL     1       1.189   4.209  -2.488  1.00  0.00     0.011 A 
ENDROOT
BRANCH   1   7
HETATM    7  O   UNL     1       1.026   2.964   0.931  1.00  0.00    -0.350 OA
BRANCH   7   8
HETATM    8  C   UNL     1       1.534   1.888   1.733  1.00  0.00     0.203 C 
BRANCH   8   9
HETATM    9  C   UNL     1       0.837   1.903   3.109  1.00  0.00     0.260 C 
BRANCH   9  10
HETATM   10  N   UNL     1       1.361   0.934   4.100  1.00  0.00    -0.077 N 
HETATM   11  C   UNL     1       0.575   1.002   5.335  1.00  0.00     0.269 C 
HETATM   12  C   UNL     1       1.422  -0.431   3.582  1.00  0.00     0.269 C 
HETATM   13  H   UNL     1       2.324   1.200   4.306  1.00  0.00     0.279 HD
ENDBRANCH   9  10
ENDBRANCH   8   9
ENDBRANCH   7   8
ENDBRANCH   1   7
BRANCH   2  14
HETATM   14  C   UNL     1       1.643   3.109  -4.736  1.00  0.00     0.270 C 
BRANCH  14  15
HETATM   15  N   UNL     1       2.762   3.888  -5.265  1.00  0.00    -0.075 N 
HETATM   16  C   UNL     1       2.808   3.791  -6.719  1.00  0.00     0.267 C 
HETATM   17  H   UNL     1       3.634   3.529  -4.877  1.00  0.00     0.277 HD
HETATM   18  H   UNL     1       2.636   4.865  -5.003  1.00  0.00     0.277 HD
ENDBRANCH  14  15
ENDBRANCH   2  14
TORSDOF 6
