REMARK  1 active torsions:
REMARK  status: ('A' for Active; 'I' for Inactive)
REMARK    1  A    between atoms: C_9  and  N_10 
ROOT
HETATM    1  N   UNL     1       1.582   1.047   0.047  1.00  0.00    -0.353 N 
ATOM      2  HN  UNL     1       1.829   2.036   0.075  1.00  0.00     0.166 HD
HETATM    3  S   UNL     1       1.765  -1.522  -0.005  1.00  0.00    -0.075 SA
HETATM    4  C   UNL     1       2.443   0.054   0.023  1.00  0.00     0.048 A 
HETATM    5  C   UNL     1       0.185  -0.841   0.000  1.00  0.00     0.035 A 
HETATM    6  C   UNL     1       0.289   0.550   0.028  1.00  0.00     0.050 A 
HETATM    7  C   UNL     1      -1.061  -1.493  -0.032  1.00  0.00     0.050 A 
HETATM    8  C   UNL     1      -0.894   1.313   0.012  1.00  0.00     0.033 A 
HETATM    9  C   UNL     1      -2.230  -0.724   0.004  1.00  0.00     0.027 A 
HETATM   10  C   UNL     1      -2.137   0.667  -0.024  1.00  0.00     0.031 A 
HETATM   11  C   UNL     1       3.922   0.221   0.012  1.00  0.00     0.076 C 
ENDROOT
BRANCH   9  12
HETATM   12  N   UNL     1      -3.473  -1.346  -0.171  1.00  0.00    -0.399 N 
HETATM   13  H   UNL     1      -3.539  -2.328  -0.151  1.00  0.00     0.156 HD
HETATM   14  H   UNL     1      -4.281  -0.801  -0.313  1.00  0.00     0.156 HD
ENDBRANCH   9  12
TORSDOF 1
