REMARK  4 active torsions:
REMARK  status: ('A' for Active; 'I' for Inactive)
REMARK    1  A    between atoms: N_1  and  C_3 
REMARK    2  A    between atoms: C_3  and  C_7 
REMARK    3  A    between atoms: C_8  and  C_17 
REMARK    4  A    between atoms: N_11  and  C_17 
ROOT
HETATM    1  C   UNL     1       3.499  -1.047   0.045  1.00  0.00    -0.033 A 
HETATM    2  C   UNL     1       5.389  -2.896  -0.955  1.00  0.00    -0.033 A 
HETATM    3  C   UNL     1       4.177  -0.796  -1.156  1.00  0.00     0.009 A 
HETATM    4  C   UNL     1       3.801  -2.216   0.756  1.00  0.00     0.009 A 
HETATM    5  C   UNL     1       4.734  -3.132   0.261  1.00  0.00     0.009 A 
HETATM    6  C   UNL     1       5.111  -1.711  -1.649  1.00  0.00     0.009 A 
ENDROOT
BRANCH   1   7
HETATM    7  C   UNL     1       2.448  -0.083   0.559  1.00  0.00     0.273 C 
BRANCH   7   8
HETATM    8  N   UNL     1       1.330   0.149  -0.376  1.00  0.00    -0.066 N 
HETATM    9  C   UNL     1       0.566  -1.068  -0.688  1.00  0.00     0.263 C 
HETATM   10  C   UNL     1      -0.510  -1.489   0.333  1.00  0.00     0.262 C 
HETATM   11  N   UNL     1      -1.836  -0.941   0.001  1.00  0.00    -0.073 N 
HETATM   12  C   UNL     1      -1.938   0.505   0.231  1.00  0.00     0.236 C 
HETATM   13  C   UNL     1      -2.877  -1.645   0.753  1.00  0.00     0.269 C 
HETATM   14  H   UNL     1      -1.969  -1.089  -0.999  1.00  0.00     0.279 HD
HETATM   15  C   UNL     1      -0.908   1.382  -0.495  1.00  0.00     0.055 C 
HETATM   16  C   UNL     1       0.506   1.273   0.089  1.00  0.00     0.237 C 
HETATM   17  H   UNL     1       1.725   0.418  -1.277  1.00  0.00     0.280 HD
ENDBRANCH   7   8
ENDBRANCH   1   7
BRANCH   2  18
HETATM   18  C   UNL     1       6.367  -3.900  -1.511  1.00  0.00     0.268 C 
BRANCH  18  19
HETATM   19  N   UNL     1       5.931  -4.413  -2.805  1.00  0.00    -0.075 N 
HETATM   20  H   UNL     1       6.613  -5.087  -3.151  1.00  0.00     0.274 HD
HETATM   21  H   UNL     1       5.849  -3.642  -3.467  1.00  0.00     0.274 HD
HETATM   22  H   UNL     1       5.024  -4.870  -2.701  1.00  0.00     0.274 HD
ENDBRANCH  18  19
ENDBRANCH   2  18
TORSDOF 4
