REMARK  4 active torsions:
REMARK  status: ('A' for Active; 'I' for Inactive)
REMARK    1  A    between atoms: C_1  and  C_5 
REMARK    2  A    between atoms: C_2  and  C_13 
REMARK    3  A    between atoms: C_3  and  N_4 
REMARK    4  A    between atoms: C_13  and  N_14 
ROOT
HETATM    1  C   UNL     1      -1.320  -2.913  -0.121  1.00  0.00    -0.005 A 
HETATM    2  C   UNL     1      -0.461  -4.044  -0.219  1.00  0.00     0.038 A 
HETATM    3  C   UNL     1       0.628  -1.410  -0.151  1.00  0.00     0.048 A 
HETATM    4  C   UNL     1      -0.754  -1.624  -0.092  1.00  0.00     0.027 A 
HETATM    5  C   UNL     1       0.926  -3.815  -0.268  1.00  0.00     0.031 A 
HETATM    6  C   UNL     1       1.466  -2.522  -0.232  1.00  0.00     0.018 A 
ENDROOT
BRANCH   2   7
HETATM    7  N   UNL     1      -0.986  -5.336  -0.220  1.00  0.00    -0.376 N 
HETATM    8  C   UNL     1      -0.214  -6.465   0.337  1.00  0.00     0.149 C 
HETATM    9  C   UNL     1      -1.201  -7.609   0.646  1.00  0.00     0.187 C 
HETATM   10  O   UNL     1      -1.955  -8.002  -0.518  1.00  0.00    -0.388 OA
HETATM   11  C   UNL     1      -2.661  -6.878  -1.075  1.00  0.00     0.187 C 
HETATM   12  C   UNL     1      -1.682  -5.752  -1.461  1.00  0.00     0.149 C 
ENDBRANCH   2   7
BRANCH   1  13
HETATM   13  C   UNL     1      -2.815  -3.075   0.143  1.00  0.00     0.272 C 
BRANCH  13  14
HETATM   14  N   UNL     1      -3.645  -1.997  -0.424  1.00  0.00    -0.075 N 
HETATM   15  C   UNL     1      -5.060  -2.242  -0.167  1.00  0.00     0.267 C 
HETATM   16  H   UNL     1      -3.492  -1.952  -1.431  1.00  0.00     0.277 HD
HETATM   17  H   UNL     1      -3.381  -1.116   0.016  1.00  0.00     0.277 HD
ENDBRANCH  13  14
ENDBRANCH   1  13
BRANCH   3  18
HETATM   18  C   UNL     1       1.195  -0.013  -0.096  1.00  0.00     0.417 C 
HETATM   19  F   UNL     1       0.244   0.962  -0.034  1.00  0.00    -0.166 F 
HETATM   20  F   UNL     1       1.962   0.286  -1.181  1.00  0.00    -0.166 F 
HETATM   21  F   UNL     1       1.993   0.183   0.991  1.00  0.00    -0.166 F 
ENDBRANCH   3  18
TORSDOF 4
