REMARK  3 active torsions:
REMARK  status: ('A' for Active; 'I' for Inactive)
REMARK    1  A    between atoms: C_3  and  C_7 
REMARK    2  A    between atoms: C_6  and  C_8 
REMARK    3  A    between atoms: C_8  and  N_9 
ROOT
HETATM    1  N   UNL     1       0.923  -0.475   0.016  1.00  0.00    -0.260 N 
ATOM      2  HN  UNL     1       1.875  -0.842   0.012  1.00  0.00     0.195 HD
HETATM    3  C   UNL     1      -0.216  -1.190   0.027  1.00  0.00     0.067 A 
HETATM    4  C   UNL     1      -1.338  -0.318   0.018  1.00  0.00     0.069 A 
HETATM    5  O   UNL     1       0.550   0.855   0.011  1.00  0.00    -0.240 OA
HETATM    6  C   UNL     1      -0.805   0.947   0.006  1.00  0.00     0.104 A 
ENDROOT
BRANCH   3   7
HETATM    7  C   UNL     1      -0.218  -2.651   0.036  1.00  0.00    -0.007 A 
HETATM    8  C   UNL     1      -1.295  -3.359   0.591  1.00  0.00     0.014 A 
HETATM    9  C   UNL     1      -1.305  -4.757   0.588  1.00  0.00     0.001 A 
HETATM   10  C   UNL     1      -0.241  -5.460   0.027  1.00  0.00     0.000 A 
HETATM   11  C   UNL     1       0.836  -4.770  -0.525  1.00  0.00     0.001 A 
HETATM   12  C   UNL     1       0.850  -3.372  -0.517  1.00  0.00     0.014 A 
ENDBRANCH   3   7
BRANCH   6  13
HETATM   13  C   UNL     1      -1.386   2.306  -0.016  1.00  0.00     0.296 C 
BRANCH  13  14
HETATM   14  N   UNL     1      -2.231   2.487  -1.194  1.00  0.00    -0.073 N 
HETATM   15  H   UNL     1      -1.670   2.363  -2.037  1.00  0.00     0.274 HD
HETATM   16  H   UNL     1      -2.629   3.427  -1.186  1.00  0.00     0.274 HD
HETATM   17  H   UNL     1      -2.983   1.799  -1.182  1.00  0.00     0.274 HD
ENDBRANCH  13  14
ENDBRANCH   6  13
TORSDOF 3
