REMARK  1 active torsions:
REMARK  status: ('A' for Active; 'I' for Inactive)
REMARK    1  A    between atoms: C_2  and  C_8 
ROOT
HETATM    1  C   UNL     1       0.050  -1.227   0.080  1.00  0.00     0.147 A 
HETATM    2  C   UNL     1      -0.063   1.164  -0.425  1.00  0.00     0.100 A 
HETATM    3  S   UNL     1      -0.916  -0.221  -0.949  1.00  0.00    -0.046 SA
HETATM    4  N   UNL     1       0.979  -0.569   0.742  1.00  0.00    -0.345 N 
ATOM      5  HN  UNL     1       1.646  -0.998   1.384  1.00  0.00     0.167 HD
HETATM    6  C   UNL     1       0.928   0.779   0.450  1.00  0.00     0.116 A 
HETATM    7  N   UNL     1      -0.154  -2.563   0.204  1.00  0.00    -0.361 N 
HETATM    8  C   UNL     1       0.675  -3.370   1.084  1.00  0.00     0.125 C 
HETATM    9  C   UNL     1      -0.869  -3.369  -0.769  1.00  0.00     0.125 C 
HETATM   10  C   UNL     1      -0.624  -4.807  -0.313  1.00  0.00     0.021 C 
HETATM   11  C   UNL     1       0.719  -4.731   0.396  1.00  0.00     0.021 C 
ENDROOT
BRANCH   2  12
HETATM   12  C   UNL     1      -0.429   2.467  -0.894  1.00  0.00     0.218 C 
HETATM   13  O   UNL     1      -1.303   2.782  -1.689  1.00  0.00    -0.643 OA
HETATM   14  O   UNL     1       0.327   3.431  -0.316  1.00  0.00    -0.643 OA
ENDBRANCH   2  12
TORSDOF 1
