REMARK  3 active torsions:
REMARK  status: ('A' for Active; 'I' for Inactive)
REMARK    1  A    between atoms: C_1  and  C_7 
REMARK    2  A    between atoms: C_2  and  O_6 
REMARK    3  A    between atoms: C_7  and  N_8 
ROOT
HETATM    1  C   UNL     1       0.081   1.241  -0.035  1.00  0.00     0.041 A 
HETATM    2  C   UNL     1       1.353   0.703  -0.113  1.00  0.00     0.083 A 
HETATM    3  S   UNL     1      -1.113   0.010   0.063  1.00  0.00    -0.102 SA
HETATM    4  C   UNL     1       1.340  -0.722  -0.066  1.00  0.00     0.045 A 
HETATM    5  C   UNL     1       0.061  -1.226   0.022  1.00  0.00     0.053 A 
ENDROOT
BRANCH   1   6
HETATM    6  C   UNL     1      -0.341   2.677  -0.020  1.00  0.00     0.278 C 
BRANCH   6   7
HETATM    7  N   UNL     1      -0.608   3.156  -1.374  1.00  0.00    -0.075 N 
HETATM    8  H   UNL     1       0.240   3.079  -1.935  1.00  0.00     0.274 HD
HETATM    9  H   UNL     1      -0.904   4.132  -1.337  1.00  0.00     0.274 HD
HETATM   10  H   UNL     1      -1.346   2.592  -1.795  1.00  0.00     0.274 HD
ENDBRANCH   6   7
ENDBRANCH   1   6
BRANCH   2  11
HETATM   11  O   UNL     1       2.431   1.529  -0.189  1.00  0.00    -0.355 OA
HETATM   12  C   UNL     1       3.617   0.907  -0.669  1.00  0.00     0.210 C 
ENDBRANCH   2  11
TORSDOF 3
