REMARK  4 active torsions:
REMARK  status: ('A' for Active; 'I' for Inactive)
REMARK    1  A    between atoms: C_1  and  N_6 
REMARK    2  A    between atoms: N_6  and  C_10 
REMARK    3  A    between atoms: C_7  and  C_12 
REMARK    4  A    between atoms: N_11  and  C_12 
ROOT
HETATM    1  C   UNL     1       0.117   1.260   0.026  1.00  0.00     0.682 A 
HETATM    2  N   UNL     1       1.250   0.543   0.069  1.00  0.00    -0.201 N 
ATOM      3  HN  UNL     1       2.166   0.990   0.120  1.00  0.00     0.183 HD
HETATM    4  N   UNL     1      -1.107   0.708  -0.021  1.00  0.00    -0.201 N 
ATOM      5  HN  UNL     1      -1.945   1.287  -0.070  1.00  0.00     0.183 HD
HETATM    6  C   UNL     1      -0.094  -1.460   0.026  1.00  0.00    -0.001 A 
HETATM    7  C   UNL     1       1.116  -0.801   0.041  1.00  0.00     0.116 A 
HETATM    8  C   UNL     1      -1.190  -0.631  -0.001  1.00  0.00     0.116 A 
ENDROOT
BRANCH   1   9
HETATM    9  N   UNL     1       0.233   2.647   0.082  1.00  0.00    -0.192 N 
HETATM   10  H   UNL     1       1.024   2.995   0.553  1.00  0.00     0.184 HD
BRANCH   9  11
HETATM   11  C   UNL     1      -0.638   3.608  -0.449  1.00  0.00     0.049 A 
HETATM   12  C   UNL     1      -0.722   4.872   0.147  1.00  0.00     0.030 A 
HETATM   13  C   UNL     1      -1.647   5.817  -0.309  1.00  0.00     0.002 A 
HETATM   14  C   UNL     1      -2.490   5.514  -1.377  1.00  0.00     0.000 A 
HETATM   15  C   UNL     1      -2.411   4.268  -1.988  1.00  0.00     0.002 A 
HETATM   16  C   UNL     1      -1.499   3.322  -1.517  1.00  0.00     0.030 A 
ENDBRANCH   9  11
ENDBRANCH   1   9
BRANCH   6  17
HETATM   17  C   UNL     1      -0.224  -2.944   0.041  1.00  0.00     0.271 C 
BRANCH  17  18
HETATM   18  N   UNL     1      -0.932  -3.404   1.229  1.00  0.00    -0.075 N 
HETATM   19  H   UNL     1      -1.004  -4.421   1.209  1.00  0.00     0.274 HD
HETATM   20  H   UNL     1      -1.867  -2.997   1.246  1.00  0.00     0.274 HD
HETATM   21  H   UNL     1      -0.421  -3.116   2.062  1.00  0.00     0.274 HD
ENDBRANCH  17  18
ENDBRANCH   6  17
TORSDOF 4
