REMARK  1 active torsions:
REMARK  status: ('A' for Active; 'I' for Inactive)
REMARK    1  A    between atoms: C_1  and  C_6 
ROOT
HETATM    1  C   UNL     1       1.469  -0.747  -0.037  1.00  0.00     0.074 A 
HETATM    2  N   UNL     1       0.057   1.054  -0.019  1.00  0.00    -0.309 N 
ATOM      3  HN  UNL     1      -0.308   2.006  -0.011  1.00  0.00     0.186 HD
HETATM    4  C   UNL     1       0.165  -1.207  -0.009  1.00  0.00     0.129 A 
HETATM    5  N   UNL     1      -0.632  -0.101  -0.017  1.00  0.00    -0.307 N 
HETATM    6  C   UNL     1       1.333   0.658  -0.034  1.00  0.00     0.127 A 
HETATM    7  C   UNL     1      -2.074  -0.066  -0.054  1.00  0.00     0.177 C 
ENDROOT
BRANCH   1   8
HETATM    8  C   UNL     1       2.687  -1.514  -0.071  1.00  0.00     0.212 C 
HETATM    9  O   UNL     1       3.816  -1.047  -0.095  1.00  0.00    -0.644 OA
HETATM   10  O   UNL     1       2.507  -2.854  -0.084  1.00  0.00    -0.644 OA
ENDBRANCH   1   8
TORSDOF 1
