REMARK  3 active torsions:
REMARK  status: ('A' for Active; 'I' for Inactive)
REMARK    1  A    between atoms: C_1  and  C_4 
REMARK    2  A    between atoms: N_2  and  C_3 
REMARK    3  A    between atoms: C_4  and  O_10 
ROOT
HETATM    1  C   UNL     1       1.457  -0.253   0.136  1.00  0.00     0.066 A 
HETATM    2  C   UNL     1       0.570  -1.344   0.016  1.00  0.00     0.054 A 
HETATM    3  C   UNL     1       0.935   1.059   0.139  1.00  0.00     0.020 A 
HETATM    4  C   UNL     1      -0.814  -1.080  -0.085  1.00  0.00     0.031 A 
HETATM    5  C   UNL     1      -0.435   1.296   0.042  1.00  0.00     0.001 A 
HETATM    6  C   UNL     1      -1.309   0.225  -0.068  1.00  0.00     0.002 A 
ENDROOT
BRANCH   2   7
HETATM    7  N   UNL     1       0.980  -2.713  -0.002  1.00  0.00    -0.332 N 
HETATM    8  C   UNL     1       2.072  -3.282   0.622  1.00  0.00     0.096 A 
HETATM    9  C   UNL     1       2.136  -4.621   0.300  1.00  0.00     0.019 A 
HETATM   10  C   UNL     1       1.006  -4.917  -0.483  1.00  0.00     0.019 A 
HETATM   11  C   UNL     1       0.294  -3.746  -0.621  1.00  0.00     0.096 A 
ENDBRANCH   2   7
BRANCH   1  12
HETATM   12  C   UNL     1       2.947  -0.357   0.102  1.00  0.00     0.295 C 
HETATM   13  O   UNL     1       3.576  -1.127  -0.603  1.00  0.00    -0.259 OA
BRANCH  12  14
HETATM   14  O   UNL     1       3.467   0.550   0.969  1.00  0.00    -0.322 OA
HETATM   15  C   UNL     1       4.895   0.599   1.023  1.00  0.00     0.213 C 
ENDBRANCH  12  14
ENDBRANCH   1  12
TORSDOF 3
