REMARK  4 active torsions:
REMARK  status: ('A' for Active; 'I' for Inactive)
REMARK    1  A    between atoms: C_3  and  C_6 
REMARK    2  A    between atoms: C_6  and  C_8 
REMARK    3  A    between atoms: C_8  and  O_10 
REMARK    4  A    between atoms: O_10  and  C_12 
ROOT
HETATM    1  N   UNL     1      -0.213  -1.391  -0.129  1.00  0.00    -0.357 N 
ATOM      2  HN  UNL     1      -0.697  -2.286  -0.204  1.00  0.00     0.166 HD
HETATM    3  C   UNL     1       1.166  -1.237  -0.059  1.00  0.00     0.025 A 
HETATM    4  C   UNL     1      -0.805  -0.216  -0.084  1.00  0.00     0.047 A 
HETATM    5  S   UNL     1       0.245   1.135   0.063  1.00  0.00    -0.087 SA
HETATM    6  C   UNL     1       1.588   0.074   0.068  1.00  0.00     0.077 A 
HETATM    7  C   UNL     1      -2.276  -0.009  -0.149  1.00  0.00     0.076 C 
ENDROOT
BRANCH   3   8
HETATM    8  C   UNL     1       2.023  -2.461  -0.089  1.00  0.00     0.168 C 
BRANCH   8   9
HETATM    9  C   UNL     1       2.985  -2.471  -1.254  1.00  0.00     0.264 C 
HETATM   10  O   UNL     1       3.507  -1.483  -1.756  1.00  0.00    -0.265 OA
BRANCH   9  11
HETATM   11  O   UNL     1       3.260  -3.758  -1.620  1.00  0.00    -0.322 OA
BRANCH  11  12
HETATM   12  C   UNL     1       4.209  -3.913  -2.687  1.00  0.00     0.174 C 
HETATM   13  C   UNL     1       3.538  -3.716  -4.034  1.00  0.00     0.034 C 
ENDBRANCH  11  12
ENDBRANCH   9  11
ENDBRANCH   8   9
ENDBRANCH   3   8
TORSDOF 4
