REMARK  2 active torsions:
REMARK  status: ('A' for Active; 'I' for Inactive)
REMARK    1  A    between atoms: C_1  and  C_2 
REMARK    2  A    between atoms: C_1  and  C_5 
ROOT
HETATM    1  C   UNL     1       1.181  -0.470   0.271  1.00  0.00     0.163 C 
HETATM    2  O   UNL     1       0.648  -1.370  -0.364  1.00  0.00    -0.292 OA
ENDROOT
BRANCH   1   3
HETATM    3  C   UNL     1       0.302   0.376   1.146  1.00  0.00     0.010 A 
HETATM    4  C   UNL     1       0.815   1.369   2.005  1.00  0.00     0.018 A 
HETATM    5  C   UNL     1      -0.043   2.138   2.803  1.00  0.00     0.043 A 
HETATM    6  C   UNL     1      -1.421   1.923   2.768  1.00  0.00     0.116 A 
HETATM    7  C   UNL     1      -1.946   0.930   1.942  1.00  0.00     0.043 A 
HETATM    8  F   UNL     1      -2.249   2.669   3.541  1.00  0.00    -0.206 F 
HETATM    9  C   UNL     1      -1.096   0.165   1.137  1.00  0.00     0.018 A 
ENDBRANCH   1   3
BRANCH   1  10
HETATM   10  C   UNL     1       2.706  -0.331   0.223  1.00  0.00     0.064 C 
HETATM   11  C   UNL     1       3.227   1.009  -0.359  1.00  0.00     0.040 C 
HETATM   12  C   UNL     1       3.078   1.087  -1.888  1.00  0.00     0.233 C 
HETATM   13  N   UNL     1       3.739  -0.053  -2.534  1.00  0.00    -0.075 N 
HETATM   14  C   UNL     1       3.154  -1.320  -2.081  1.00  0.00     0.233 C 
HETATM   15  H   UNL     1       4.732  -0.041  -2.300  1.00  0.00     0.277 HD
HETATM   16  H   UNL     1       3.611   0.023  -3.543  1.00  0.00     0.277 HD
HETATM   17  C   UNL     1       3.379  -1.480  -0.567  1.00  0.00     0.040 C 
ENDBRANCH   1  10
TORSDOF 2
