REMARK  1 active torsions:
REMARK  status: ('A' for Active; 'I' for Inactive)
REMARK    1  A    between atoms: C_1  and  C_7 
ROOT
HETATM    1  C   UNL     1      -0.867  -1.203   0.028  1.00  0.00     0.074 A 
HETATM    2  N   UNL     1      -0.425   1.097  -0.000  1.00  0.00    -0.357 N 
ATOM      3  HN  UNL     1      -0.635   2.095  -0.014  1.00  0.00     0.166 HD
HETATM    4  C   UNL     1      -1.381   0.088   0.010  1.00  0.00     0.026 A 
HETATM    5  S   UNL     1       0.851  -1.122   0.026  1.00  0.00    -0.072 SA
HETATM    6  C   UNL     1       0.784   0.588   0.011  1.00  0.00     0.048 A 
HETATM    7  C   UNL     1      -2.803   0.529   0.006  1.00  0.00     0.070 C 
HETATM    8  C   UNL     1       2.026   1.409   0.015  1.00  0.00     0.076 C 
ENDROOT
BRANCH   1   9
HETATM    9  C   UNL     1      -1.584  -2.473   0.049  1.00  0.00     0.164 C 
HETATM   10  O   UNL     1      -2.814  -2.545   0.055  1.00  0.00    -0.292 OA
HETATM   11  C   UNL     1      -0.796  -3.764   0.065  1.00  0.00     0.097 C 
ENDBRANCH   1   9
TORSDOF 1
