REMARK  1 active torsions:
REMARK  status: ('A' for Active; 'I' for Inactive)
REMARK    1  A    between atoms: C_3  and  N_7 
ROOT
HETATM    1  N   UNL     1      -0.299  -1.024   0.010  1.00  0.00    -0.301 N 
ATOM      2  HN  UNL     1      -0.567  -2.008   0.019  1.00  0.00     0.187 HD
HETATM    3  C   UNL     1      -0.350   1.246  -0.010  1.00  0.00     0.073 A 
HETATM    4  N   UNL     1       0.944  -0.503   0.005  1.00  0.00    -0.299 N 
HETATM    5  C   UNL     1       0.970   0.870  -0.006  1.00  0.00     0.052 A 
HETATM    6  C   UNL     1      -1.101   0.049  -0.000  1.00  0.00     0.050 A 
HETATM    7  C   UNL     1       2.210   1.683  -0.012  1.00  0.00     0.072 C 
HETATM    8  C   UNL     1       2.079  -1.397   0.012  1.00  0.00     0.177 C 
HETATM    9  C   UNL     1      -2.574  -0.112   0.001  1.00  0.00     0.072 C 
ENDROOT
BRANCH   3  10
HETATM   10  N   UNL     1      -0.797   2.511  -0.022  1.00  0.00    -0.396 N 
HETATM   11  H   UNL     1      -1.765   2.691  -0.024  1.00  0.00     0.156 HD
HETATM   12  H   UNL     1      -0.157   3.259  -0.028  1.00  0.00     0.156 HD
ENDBRANCH   3  10
TORSDOF 1
