REMARK  2 active torsions:
REMARK  status: ('A' for Active; 'I' for Inactive)
REMARK    1  A    between atoms: C_3  and  C_6 
REMARK    2  A    between atoms: C_6  and  C_8 
ROOT
HETATM    1  N   UNL     1      -0.204  -1.378  -0.063  1.00  0.00    -0.357 N 
ATOM      2  HN  UNL     1      -0.682  -2.278  -0.104  1.00  0.00     0.166 HD
HETATM    3  C   UNL     1       1.174  -1.210  -0.068  1.00  0.00     0.026 A 
HETATM    4  C   UNL     1      -0.806  -0.209   0.002  1.00  0.00     0.047 A 
HETATM    5  S   UNL     1       0.237   1.153   0.084  1.00  0.00    -0.087 SA
HETATM    6  C   UNL     1       1.589   0.106   0.026  1.00  0.00     0.077 A 
HETATM    7  C   UNL     1      -2.281  -0.019   0.003  1.00  0.00     0.076 C 
ENDROOT
BRANCH   3   8
HETATM    8  C   UNL     1       2.040  -2.425  -0.143  1.00  0.00     0.170 C 
BRANCH   8   9
HETATM    9  C   UNL     1       2.897  -2.444  -1.382  1.00  0.00     0.178 C 
HETATM   10  O   UNL     1       3.365  -1.490  -1.984  1.00  0.00    -0.648 OA
HETATM   11  O   UNL     1       3.209  -3.698  -1.775  1.00  0.00    -0.648 OA
ENDBRANCH   8   9
ENDBRANCH   3   8
TORSDOF 2
