REMARK  1 active torsions:
REMARK  status: ('A' for Active; 'I' for Inactive)
REMARK    1  A    between atoms: C_3  and  C_9 
ROOT
HETATM    1  N   UNL     1      -4.155  -1.800  -2.606  1.00  0.00    -0.197 NA
HETATM    2  C   UNL     1      -3.804  -1.639  -1.510  1.00  0.00     0.065 C 
HETATM    3  C   UNL     1      -3.409  -1.434  -0.114  1.00  0.00     0.188 C 
ENDROOT
BRANCH   3   4
HETATM    4  C   UNL     1      -2.015  -0.894  -0.045  1.00  0.00     0.065 A 
HETATM    5  N   UNL     1      -0.939  -1.648   0.021  1.00  0.00    -0.352 N 
HETATM    6  C   UNL     1       0.198  -0.856   0.017  1.00  0.00     0.050 A 
ATOM      7  HN  UNL     1      -0.941  -2.667   0.068  1.00  0.00     0.166 HD
HETATM    8  C   UNL     1      -0.032   0.521  -0.003  1.00  0.00     0.033 A 
HETATM    9  C   UNL     1       1.527  -1.323   0.025  1.00  0.00     0.031 A 
HETATM   10  S   UNL     1      -1.732   0.802  -0.028  1.00  0.00    -0.074 SA
HETATM   11  C   UNL     1       1.024   1.448  -0.007  1.00  0.00     0.021 A 
HETATM   12  C   UNL     1       2.335   0.959  -0.004  1.00  0.00     0.002 A 
HETATM   13  C   UNL     1       2.586  -0.410   0.009  1.00  0.00     0.002 A 
ENDBRANCH   3   4
TORSDOF 1
