REMARK  1 active torsions:
REMARK  status: ('A' for Active; 'I' for Inactive)
REMARK    1  A    between atoms: C_1  and  C_4 
ROOT
HETATM    1  C   UNL     1       1.318   0.690  -0.038  1.00  0.00     0.133 A 
HETATM    2  N   UNL     1       0.025   1.070  -0.036  1.00  0.00    -0.295 N 
ATOM      3  HN  UNL     1      -0.347   2.020  -0.044  1.00  0.00     0.187 HD
HETATM    4  C   UNL     1       1.423  -0.728  -0.010  1.00  0.00     0.054 A 
HETATM    5  N   UNL     1      -0.664  -0.084  -0.021  1.00  0.00    -0.307 N 
HETATM    6  C   UNL     1       0.128  -1.190   0.005  1.00  0.00     0.112 A 
HETATM    7  C   UNL     1      -2.105  -0.045  -0.057  1.00  0.00     0.177 C 
ENDROOT
BRANCH   1   8
HETATM    8  C   UNL     1       2.465   1.667  -0.075  1.00  0.00     0.433 C 
HETATM    9  F   UNL     1       2.079   2.970  -0.086  1.00  0.00    -0.165 F 
HETATM   10  F   UNL     1       3.290   1.516   0.998  1.00  0.00    -0.165 F 
HETATM   11  F   UNL     1       3.242   1.483  -1.179  1.00  0.00    -0.165 F 
ENDBRANCH   1   8
TORSDOF 1
