REMARK  0 active torsions:
REMARK  status: ('A' for Active; 'I' for Inactive)
ROOT
HETATM    1  C   UNL     1      -1.822   0.763  -0.104  1.00  0.00     0.164 A 
HETATM    2  C   UNL     1      -0.372   0.593  -0.050  1.00  0.00     0.016 A 
HETATM    3  C   UNL     1      -0.087  -0.767  -0.006  1.00  0.00    -0.043 A 
HETATM    4  C   UNL     1      -2.485  -0.604   0.001  1.00  0.00     0.061 A 
HETATM    5  C   UNL     1      -1.317  -1.615  -0.010  1.00  0.00     0.051 A 
HETATM    6  O   UNL     1      -2.381   1.841  -0.198  1.00  0.00    -0.292 OA
HETATM    7  C   UNL     1       0.618   1.560  -0.051  1.00  0.00     0.015 A 
HETATM    8  C   UNL     1       1.229  -1.202   0.018  1.00  0.00     0.008 A 
HETATM    9  C   UNL     1      -3.459  -0.863  -1.135  1.00  0.00     0.018 C 
HETATM   10  C   UNL     1       1.945   1.127  -0.015  1.00  0.00     0.001 A 
HETATM   11  C   UNL     1       2.248  -0.245   0.012  1.00  0.00     0.001 A 
ENDROOT
TORSDOF 0
