REMARK  2 active torsions:
REMARK  status: ('A' for Active; 'I' for Inactive)
REMARK    1  A    between atoms: C_1  and  C_6 
REMARK    2  A    between atoms: C_2  and  O_9 
ROOT
HETATM    1  C   UNL     1      -1.742   1.304  -0.042  1.00  0.00     0.082 A 
HETATM    2  C   UNL     1      -0.302   1.433   0.019  1.00  0.00     0.114 A 
HETATM    3  C   UNL     1      -2.127  -0.026  -0.067  1.00  0.00     0.072 A 
HETATM    4  C   UNL     1       0.307   0.192   0.025  1.00  0.00     0.108 A 
HETATM    5  S   UNL     1      -0.806  -1.097  -0.014  1.00  0.00    -0.086 SA
HETATM    6 CL   UNL     1       1.966  -0.276   0.051  1.00  0.00    -0.073 Cl
ENDROOT
BRANCH   1   7
HETATM    7  C   UNL     1      -2.696   2.400  -0.082  1.00  0.00     0.212 C 
HETATM    8  O   UNL     1      -2.487   3.563   0.229  1.00  0.00    -0.644 OA
HETATM    9  O   UNL     1      -3.927   2.048  -0.524  1.00  0.00    -0.644 OA
ENDBRANCH   1   7
BRANCH   2  10
HETATM   10  O   UNL     1       0.254   2.677   0.032  1.00  0.00    -0.353 OA
HETATM   11  C   UNL     1       1.662   2.788   0.103  1.00  0.00     0.210 C 
ENDBRANCH   2  10
TORSDOF 2
