REMARK  0 active torsions:
REMARK  status: ('A' for Active; 'I' for Inactive)
ROOT
HETATM    1  N   UNL     1       0.760  -1.107   0.006  1.00  0.00    -0.304 N 
ATOM      2  HN  UNL     1       1.366  -1.928   0.010  1.00  0.00     0.186 HD
HETATM    3  C   UNL     1      -0.013   1.040  -0.006  1.00  0.00     0.075 A 
HETATM    4  C   UNL     1      -1.098   0.202  -0.001  1.00  0.00     0.115 A 
HETATM    5  N   UNL     1      -0.586  -1.067   0.006  1.00  0.00    -0.286 N 
HETATM    6  C   UNL     1       1.116   0.184   0.000  1.00  0.00     0.025 A 
HETATM    7  N   UNL     1      -2.418   0.452  -0.002  1.00  0.00    -0.384 N 
HETATM    8  C   UNL     1       2.544   0.580   0.005  1.00  0.00     0.070 C 
HETATM    9  H   UNL     1      -1.149  -1.874   0.012  1.00  0.00     0.188 HD
HETATM   10  H   UNL     1      -2.743   1.382  -0.007  1.00  0.00     0.157 HD
HETATM   11  H   UNL     1      -3.060  -0.294   0.003  1.00  0.00     0.157 HD
ENDROOT
TORSDOF 0
