REMARK  2 active torsions:
REMARK  status: ('A' for Active; 'I' for Inactive)
REMARK    1  A    between atoms: C_2  and  S_3 
REMARK    2  A    between atoms: C_4  and  C_11 
ROOT
HETATM    1  C   UNL     1      -0.789   0.003   0.076  1.00  0.00     0.084 A 
HETATM    2  C   UNL     1       0.090   1.071   0.039  1.00  0.00     0.120 A 
HETATM    3  C   UNL     1      -0.119  -1.277   0.006  1.00  0.00     0.003 A 
HETATM    4  S   UNL     1       1.716   0.542   0.013  1.00  0.00    -0.088 SA
HETATM    5  C   UNL     1       1.254  -1.101  -0.013  1.00  0.00     0.065 A 
HETATM    6  C   UNL     1      -2.211   0.184   0.164  1.00  0.00     0.102 C 
HETATM    7  N   UNL     1      -3.365   0.274   0.236  1.00  0.00    -0.191 NA
ENDROOT
BRANCH   2   8
HETATM    8  S   UNL     1      -0.148   2.835  -0.017  1.00  0.00     0.179 S 
HETATM    9  O   UNL     1       0.594   3.290  -1.175  1.00  0.00    -0.222 OA
HETATM   10  O   UNL     1      -1.578   3.030   0.091  1.00  0.00    -0.222 OA
HETATM   11  C   UNL     1       0.611   3.455   1.457  1.00  0.00     0.167 C 
ENDBRANCH   2   8
BRANCH   3  12
HETATM   12  C   UNL     1      -0.716  -2.620  -0.057  1.00  0.00    -0.024 A 
HETATM   13  C   UNL     1      -1.904  -2.836  -0.772  1.00  0.00     0.012 A 
HETATM   14  C   UNL     1      -2.506  -4.097  -0.804  1.00  0.00     0.001 A 
HETATM   15  C   UNL     1      -1.910  -5.170  -0.152  1.00  0.00     0.000 A 
HETATM   16  C   UNL     1      -0.712  -4.984   0.534  1.00  0.00     0.001 A 
HETATM   17  C   UNL     1      -0.121  -3.716   0.588  1.00  0.00     0.012 A 
ENDBRANCH   3  12
TORSDOF 2
