REMARK  4 active torsions:
REMARK  status: ('A' for Active; 'I' for Inactive)
REMARK    1  A    between atoms: C_1  and  S_5 
REMARK    2  A    between atoms: C_2  and  C_4 
REMARK    3  A    between atoms: S_5  and  C_13 
REMARK    4  A    between atoms: C_12  and  C_13 
ROOT
HETATM    1  C   UNL     1       2.712   1.986   3.068  1.00  0.00     0.041 A 
HETATM    2  C   UNL     1       1.988   2.219   1.888  1.00  0.00     0.026 A 
HETATM    3  C   UNL     1       1.908   3.505   1.325  1.00  0.00    -0.048 A 
HETATM    4  C   UNL     1       3.378   3.041   3.697  1.00  0.00     0.018 A 
HETATM    5  C   UNL     1       3.317   4.322   3.148  1.00  0.00     0.002 A 
HETATM    6  C   UNL     1       2.594   4.548   1.973  1.00  0.00     0.008 A 
ENDROOT
BRANCH   3   7
HETATM    7  C   UNL     1       1.208   3.804   0.008  1.00  0.00     0.118 C 
BRANCH   7   8
HETATM    8  S   UNL     1      -0.162   2.689  -0.419  1.00  0.00    -0.118 SA
BRANCH   8   9
HETATM    9  C   UNL     1      -0.712   3.317  -1.965  1.00  0.00     0.041 A 
HETATM   10  S   UNL     1      -1.250   4.925  -2.194  1.00  0.00    -0.095 SA
HETATM   11  C   UNL     1      -1.727   4.608  -3.806  1.00  0.00     0.051 A 
HETATM   12  C   UNL     1      -1.457   3.311  -4.178  1.00  0.00     0.009 A 
HETATM   13  C   UNL     1      -0.861   2.567  -3.115  1.00  0.00     0.026 A 
ENDBRANCH   8   9
ENDBRANCH   7   8
ENDBRANCH   3   7
BRANCH   1  14
HETATM   14  C   UNL     1       2.759   0.602   3.600  1.00  0.00     0.209 C 
HETATM   15  O   UNL     1       2.197  -0.366   3.125  1.00  0.00    -0.644 OA
HETATM   16  O   UNL     1       3.525   0.486   4.702  1.00  0.00    -0.644 OA
ENDBRANCH   1  14
TORSDOF 4
