REMARK  1 active torsions:
REMARK  status: ('A' for Active; 'I' for Inactive)
REMARK    1  A    between atoms: C_3  and  S_13 
ROOT
HETATM    1  C   UNL     1       0.050  -0.772   0.025  1.00  0.00     0.042 A 
HETATM    2  C   UNL     1       0.363   0.652  -0.046  1.00  0.00    -0.014 A 
HETATM    3  C   UNL     1       1.189  -1.560   0.036  1.00  0.00     0.056 A 
HETATM    4  C   UNL     1       1.726   0.876  -0.084  1.00  0.00     0.093 A 
HETATM    5  S   UNL     1       2.605  -0.583  -0.045  1.00  0.00    -0.071 SA
HETATM    6  C   UNL     1      -1.342  -1.196   0.135  1.00  0.00     0.162 C 
HETATM    7  C   UNL     1       2.363   2.160  -0.138  1.00  0.00     0.107 C 
HETATM    8  N   UNL     1       2.852   3.208  -0.182  1.00  0.00    -0.191 NA
HETATM    9  C   UNL     1      -0.721   1.717  -0.050  1.00  0.00     0.050 C 
HETATM   10  C   UNL     1      -2.118   1.161   0.352  1.00  0.00    -0.037 C 
HETATM   11  C   UNL     1      -2.348  -0.183  -0.370  1.00  0.00     0.093 C 
HETATM   12  O   UNL     1      -1.712  -2.232   0.673  1.00  0.00    -0.292 OA
HETATM   13  C   UNL     1      -3.230   2.136  -0.069  1.00  0.00     0.015 C 
HETATM   14  C   UNL     1      -2.206   0.978   1.884  1.00  0.00     0.015 C 
ENDROOT
BRANCH   3  15
HETATM   15  S   UNL     1       1.416  -3.305   0.171  1.00  0.00    -0.126 SA
HETATM   16  C   UNL     1       0.090  -4.053  -0.792  1.00  0.00     0.096 C 
ENDBRANCH   3  15
TORSDOF 1
