REMARK  3 active torsions:
REMARK  status: ('A' for Active; 'I' for Inactive)
REMARK    1  A    between atoms: C_3  and  C_8 
REMARK    2  A    between atoms: O_5  and  C_7 
REMARK    3  A    between atoms: C_7  and  C_8 
ROOT
HETATM    1  N   UNL     1      -1.359  -0.142   0.187  1.00  0.00    -0.375 N 
ATOM      2  HN  UNL     1      -2.373  -0.214   0.270  1.00  0.00     0.164 HD
HETATM    3  C   UNL     1       0.648   1.213   0.062  1.00  0.00    -0.041 A 
HETATM    4  C   UNL     1      -0.730   1.055   0.181  1.00  0.00     0.094 A 
HETATM    5  C   UNL     1      -0.578  -1.237   0.077  1.00  0.00     0.087 A 
HETATM    6  C   UNL     1       1.422   0.058  -0.056  1.00  0.00     0.010 A 
HETATM    7  C   UNL     1       0.801  -1.190  -0.045  1.00  0.00     0.018 A 
ENDROOT
BRANCH   3   8
HETATM    8  C   UNL     1       1.262   2.589   0.038  1.00  0.00     0.066 C 
BRANCH   8   9
HETATM    9  C   UNL     1       1.399   3.156  -1.375  1.00  0.00     0.168 C 
BRANCH   9  10
HETATM   10  O   UNL     1       0.129   3.330  -1.993  1.00  0.00    -0.401 OA
HETATM   11  H   UNL     1       0.251   3.690  -2.886  1.00  0.00     0.209 HD
ENDBRANCH   9  10
ENDBRANCH   8   9
ENDBRANCH   3   8
TORSDOF 3
