REMARK  6 active torsions:
REMARK  status: ('A' for Active; 'I' for Inactive)
REMARK    1  A    between atoms: N_1  and  C_4 
REMARK    2  A    between atoms: C_4  and  C_6 
REMARK    3  A    between atoms: C_6  and  C_9 
REMARK    4  A    between atoms: N_7  and  C_9 
REMARK    5  A    between atoms: N_7  and  C_11 
REMARK    6  A    between atoms: C_8  and  C_11 
ROOT
HETATM    1  N   UNL     1       3.996  -1.822   1.794  1.00  0.00    -0.072 N 
HETATM    2  H   UNL     1       4.397  -2.534   1.183  1.00  0.00     0.277 HD
HETATM    3  H   UNL     1       2.979  -1.802   1.729  1.00  0.00     0.277 HD
ENDROOT
BRANCH   1   4
HETATM    4  C   UNL     1       4.497  -0.505   1.376  1.00  0.00     0.245 C 
BRANCH   4   5
HETATM    5  C   UNL     1       4.192  -0.227  -0.097  1.00  0.00     0.131 C 
BRANCH   5   6
HETATM    6  C   UNL     1       4.700   1.150  -0.492  1.00  0.00    -0.076 C 
BRANCH   6   7
HETATM    7  N   UNL     1       5.120   2.293  -0.819  1.00  0.00    -0.370 N 
ATOM      8  HN2 UNL     1       4.723   1.400  -0.527  1.00  0.00     0.165 HD
ATOM      9  HN1 UNL     1       5.461   3.217  -1.084  1.00  0.00     0.165 HD
ENDBRANCH   6   7
ENDBRANCH   5   6
ENDBRANCH   4   5
ENDBRANCH   1   4
BRANCH   1  10
HETATM   10  C   UNL     1       4.351  -2.143   3.192  1.00  0.00     0.264 C 
BRANCH  10  11
HETATM   11  C   UNL     1       3.742  -1.202   4.250  1.00  0.00     0.147 C 
HETATM   12  O   UNL     1       2.303  -1.258   4.199  1.00  0.00    -0.384 OA
HETATM   13  C   UNL     1       1.801  -1.295   5.538  1.00  0.00     0.168 C 
HETATM   14  C   UNL     1       2.969  -1.047   6.472  1.00  0.00     0.029 C 
HETATM   15  C   UNL     1       4.142  -1.559   5.673  1.00  0.00     0.036 C 
ENDBRANCH  10  11
ENDBRANCH   1  10
TORSDOF 6
