REMARK  6 active torsions:
REMARK  status: ('A' for Active; 'I' for Inactive)
REMARK    1  A    between atoms: N_1  and  C_4 
REMARK    2  A    between atoms: C_4  and  C_10 
REMARK    3  A    between atoms: C_5  and  C_12 
REMARK    4  A    between atoms: C_10  and  C_13 
REMARK    5  A    between atoms: N_11  and  C_13 
REMARK    6  A    between atoms: N_11  and  C_12 
ROOT
HETATM    1  N   UNL     1       3.921   1.599  -1.954  1.00  0.00    -0.069 N 
HETATM    2  H   UNL     1       2.906   1.529  -2.020  1.00  0.00     0.277 HD
HETATM    3  H   UNL     1       4.314   0.710  -1.644  1.00  0.00     0.277 HD
ENDROOT
BRANCH   1   4
HETATM    4  C   UNL     1       4.274   2.644  -0.979  1.00  0.00     0.245 C 
BRANCH   4   5
HETATM    5  C   UNL     1       3.707   2.358   0.421  1.00  0.00     0.131 C 
BRANCH   5   6
HETATM    6  C   UNL     1       4.094   3.483   1.367  1.00  0.00    -0.076 C 
BRANCH   6   7
HETATM    7  N   UNL     1       4.414   4.416   2.152  1.00  0.00    -0.370 N 
ATOM      8  HN2 UNL     1       4.116   3.661   1.535  1.00  0.00     0.165 HD
ATOM      9  HN1 UNL     1       4.674   5.171   2.787  1.00  0.00     0.165 HD
ENDBRANCH   6   7
ENDBRANCH   5   6
ENDBRANCH   4   5
ENDBRANCH   1   4
BRANCH   1  10
HETATM   10  C   UNL     1       4.472   1.927  -3.280  1.00  0.00     0.296 C 
BRANCH  10  11
HETATM   11  C   UNL     1       4.148   0.882  -4.293  1.00  0.00     0.078 A 
HETATM   12  O   UNL     1       5.209   0.258  -4.891  1.00  0.00    -0.325 OA
HETATM   13  C   UNL     1       4.702  -0.590  -5.823  1.00  0.00     0.142 A 
HETATM   14  C   UNL     1       3.329  -0.532  -5.831  1.00  0.00     0.027 A 
HETATM   15  C   UNL     1       2.968   0.410  -4.835  1.00  0.00     0.036 A 
ENDBRANCH  10  11
ENDBRANCH   1  10
TORSDOF 6
