REMARK  1 active torsions:
REMARK  status: ('A' for Active; 'I' for Inactive)
REMARK    1  A    between atoms: N_3  and  O_6 
ROOT
HETATM    1  C   UNL     1       0.023   0.722   0.052  1.00  0.00    -0.005 A 
HETATM    2  C   UNL     1      -1.266   1.474   0.065  1.00  0.00     0.042 C 
HETATM    3  N   UNL     1      -1.270   2.736   0.389  1.00  0.00    -0.273 N 
ATOM      4  HN  UNL     1      -0.433   3.262   0.641  1.00  0.00     0.194 HD
HETATM    5  C   UNL     1       0.018  -0.682  -0.012  1.00  0.00    -0.046 A 
HETATM    6  C   UNL     1      -2.501   0.683  -0.331  1.00  0.00     0.060 C 
HETATM    7  C   UNL     1      -2.474  -0.665   0.371  1.00  0.00     0.011 C 
HETATM    8  C   UNL     1       1.238   1.420   0.099  1.00  0.00     0.014 A 
HETATM    9  C   UNL     1      -1.262  -1.474  -0.077  1.00  0.00     0.040 C 
HETATM   10  C   UNL     1       1.243  -1.366  -0.058  1.00  0.00     0.008 A 
HETATM   11  C   UNL     1       2.446   0.727   0.061  1.00  0.00     0.001 A 
HETATM   12  C   UNL     1       2.450  -0.665  -0.021  1.00  0.00     0.001 A 
ENDROOT
BRANCH   3  13
HETATM   13  O   UNL     1      -2.554   3.285   0.351  1.00  0.00    -0.290 OA
HETATM   14  H   UNL     1      -2.683   4.188   0.565  1.00  0.00     0.244 HD
ENDBRANCH   3  13
TORSDOF 1
