REMARK  1 active torsions:
REMARK  status: ('A' for Active; 'I' for Inactive)
REMARK    1  A    between atoms: C_7  and  O_10 
ROOT
HETATM    1  N   UNL     1       1.252  -0.055   0.231  1.00  0.00    -0.191 NA
HETATM    2  C   UNL     1       3.837  -0.078   0.058  1.00  0.00     0.083 A 
HETATM    3  C   UNL     1       2.409  -0.047   0.160  1.00  0.00     0.102 C 
HETATM    4  C   UNL     1       4.565   1.110  -0.017  1.00  0.00     0.139 A 
HETATM    5  C   UNL     1       5.952   1.100  -0.154  1.00  0.00     0.080 A 
HETATM    6  C   UNL     1       4.517  -1.300   0.010  1.00  0.00     0.028 A 
HETATM    7  C   UNL     1       6.611  -0.121  -0.235  1.00  0.00     0.068 A 
HETATM    8  F   UNL     1       3.937   2.294   0.031  1.00  0.00    -0.204 F 
HETATM    9  C   UNL     1       5.906  -1.319  -0.145  1.00  0.00     0.038 A 
ENDROOT
BRANCH   7  10
HETATM   10  O   UNL     1       7.959  -0.194  -0.413  1.00  0.00    -0.361 OA
HETATM   11  H   UNL     1       8.381  -1.029  -0.464  1.00  0.00     0.217 HD
ENDBRANCH   7  10
TORSDOF 1
