REMARK  2 active torsions:
REMARK  status: ('A' for Active; 'I' for Inactive)
REMARK    1  A    between atoms: C_1  and  C_2 
REMARK    2  A    between atoms: C_1  and  O_11 
ROOT
HETATM    1  C   UNL     1       0.299  -1.334  -0.145  1.00  0.00     0.040 A 
HETATM    2  C   UNL     1      -0.761  -1.430  -1.055  1.00  0.00     0.031 A 
HETATM    3  C   UNL     1      -1.478  -2.632  -1.198  1.00  0.00    -0.008 A 
HETATM    4  N   UNL     1      -1.784  -4.934  -0.539  1.00  0.00    -0.365 N 
ATOM      5  HN  UNL     1      -1.516  -5.740   0.026  1.00  0.00     0.165 HD
HETATM    6  C   UNL     1      -1.134  -3.762  -0.427  1.00  0.00     0.042 A 
HETATM    7  C   UNL     1       0.631  -2.449   0.627  1.00  0.00     0.020 A 
HETATM    8  C   UNL     1      -0.084  -3.644   0.475  1.00  0.00     0.031 A 
HETATM    9  C   UNL     1      -2.804  -5.012  -1.423  1.00  0.00     0.088 A 
HETATM   10  C   UNL     1      -2.545  -2.750  -2.099  1.00  0.00     0.015 A 
HETATM   11  C   UNL     1      -3.221  -3.959  -2.214  1.00  0.00     0.018 A 
ENDROOT
BRANCH   1  12
HETATM   12  C   UNL     1       1.029  -0.040  -0.051  1.00  0.00     0.292 C 
HETATM   13  O   UNL     1       0.761   0.929  -0.746  1.00  0.00    -0.259 OA
BRANCH  12  14
HETATM   14  O   UNL     1       2.007  -0.102   0.884  1.00  0.00    -0.323 OA
HETATM   15  C   UNL     1       2.767   1.100   1.043  1.00  0.00     0.213 C 
ENDBRANCH  12  14
ENDBRANCH   1  12
TORSDOF 2
