REMARK  3 active torsions:
REMARK  status: ('A' for Active; 'I' for Inactive)
REMARK    1  A    between atoms: C_1  and  C_4 
REMARK    2  A    between atoms: C_2  and  N_9 
REMARK    3  A    between atoms: C_5  and  N_10 
ROOT
HETATM    1  C   UNL     1      -1.147   1.245  -0.039  1.00  0.00     0.011 A 
HETATM    2  C   UNL     1       0.913  -0.031   0.011  1.00  0.00     0.053 A 
HETATM    3  C   UNL     1       0.249   1.196  -0.097  1.00  0.00     0.046 A 
HETATM    4  C   UNL     1       0.185  -1.253   0.054  1.00  0.00     0.054 A 
HETATM    5  C   UNL     1      -1.868   0.052   0.053  1.00  0.00     0.017 A 
HETATM    6  C   UNL     1      -1.209  -1.181   0.099  1.00  0.00     0.032 A 
ENDROOT
BRANCH   1   7
HETATM    7  C   UNL     1      -1.899   2.534  -0.053  1.00  0.00     0.155 C 
HETATM    8  O   UNL     1      -3.130   2.527  -0.059  1.00  0.00    -0.293 OA
HETATM    9  C   UNL     1      -1.132   3.832  -0.037  1.00  0.00     0.096 C 
ENDBRANCH   1   7
BRANCH   2  10
HETATM   10  N   UNL     1       2.325  -0.070  -0.109  1.00  0.00    -0.397 N 
HETATM   11  H   UNL     1       2.840   0.769  -0.140  1.00  0.00     0.156 HD
HETATM   12  H   UNL     1       2.791  -0.936  -0.162  1.00  0.00     0.156 HD
ENDBRANCH   2  10
BRANCH   4  13
HETATM   13  N   UNL     1       0.920  -2.438   0.185  1.00  0.00    -0.392 N 
HETATM   14  C   UNL     1       0.310  -3.748   0.293  1.00  0.00     0.146 C 
HETATM   15  H   UNL     1       1.903  -2.377   0.205  1.00  0.00     0.159 HD
ENDBRANCH   4  13
TORSDOF 3
