REMARK  1 active torsions:
REMARK  status: ('A' for Active; 'I' for Inactive)
REMARK    1  A    between atoms: C_1  and  C_2 
ROOT
HETATM    1  C   UNL     1       0.477  -1.254  -0.861  1.00  0.00     0.113 C 
HETATM    2  N   UNL     1       0.320  -1.006  -2.110  1.00  0.00    -0.384 N 
ATOM      3  HN  UNL     1       0.367  -0.019  -2.364  1.00  0.00     0.159 HD
HETATM    4  C   UNL     1       0.366  -2.544  -0.117  1.00  0.00     0.050 C 
HETATM    5  N   UNL     1       0.509  -4.052  -2.013  1.00  0.00    -0.397 N 
HETATM    6  C   UNL     1       0.461  -3.752  -0.679  1.00  0.00     0.085 C 
HETATM    7  C   UNL     1       0.085  -1.920  -3.220  1.00  0.00     0.139 C 
HETATM    8  C   UNL     1      -0.377  -3.342  -2.931  1.00  0.00     0.138 C 
HETATM    9  H   UNL     1       1.132  -4.736  -2.348  1.00  0.00     0.158 HD
ENDROOT
BRANCH   1  10
HETATM   10  C   UNL     1       0.872  -0.056   0.036  1.00  0.00     0.432 C 
HETATM   11  F   UNL     1       1.011  -0.390   1.352  1.00  0.00    -0.165 F 
HETATM   12  F   UNL     1      -0.047   0.949   0.002  1.00  0.00    -0.165 F 
HETATM   13  F   UNL     1       2.063   0.492  -0.335  1.00  0.00    -0.165 F 
ENDBRANCH   1  10
TORSDOF 1
