REMARK  1 active torsions:
REMARK  status: ('A' for Active; 'I' for Inactive)
REMARK       I    between atoms: C_1  and  N_2 
REMARK    1  A    between atoms: C_1  and  C_3 
ROOT
HETATM    1  C   UNL     1      -0.171   1.293   0.043  1.00  0.00     0.277 C 
HETATM    2  N   UNL     1      -0.696   1.311   1.429  1.00  0.00    -0.062 N 
HETATM    3  C   UNL     1      -1.405   2.553   1.761  1.00  0.00     0.233 C 
HETATM    4  C   UNL     1       0.751   2.521  -0.176  1.00  0.00     0.043 C 
HETATM    5  C   UNL     1      -0.478   3.759   1.600  1.00  0.00     0.027 C 
HETATM    6  C   UNL     1       0.019   3.822   0.158  1.00  0.00     0.004 C 
HETATM    7  H   UNL     1       0.087   1.203   2.073  1.00  0.00     0.278 HD
HETATM    8  H   UNL     1      -1.366   0.547   1.510  1.00  0.00     0.278 HD
ENDROOT
BRANCH   1   9
HETATM    9  C   UNL     1       0.596  -0.006  -0.144  1.00  0.00     0.250 C 
HETATM   10  N   UNL     1      -0.022  -1.223  -0.245  1.00  0.00    -0.350 N 
HETATM   11  C   UNL     1       0.680  -2.480  -0.279  1.00  0.00     0.126 C 
HETATM   12  C   UNL     1      -1.431  -1.401  -0.569  1.00  0.00     0.126 C 
HETATM   13  C   UNL     1      -0.197  -3.338  -1.169  1.00  0.00     0.021 C 
HETATM   14  C   UNL     1      -1.582  -2.918  -0.700  1.00  0.00     0.021 C 
HETATM   15  O   UNL     1       1.816   0.032  -0.141  1.00  0.00    -0.271 OA
ENDBRANCH   1   9
TORSDOF 1
