REMARK  3 active torsions:
REMARK  status: ('A' for Active; 'I' for Inactive)
REMARK    1  A    between atoms: C_3  and  C_7 
REMARK    2  A    between atoms: C_5  and  C_11 
REMARK    3  A    between atoms: C_11  and  N_12 
ROOT
HETATM    1  N   UNL     1      -0.738  -0.347  -1.102  1.00  0.00    -0.351 N 
ATOM      2  HN  UNL     1      -1.637  -0.656  -1.472  1.00  0.00     0.166 HD
HETATM    3  C   UNL     1       0.187  -1.177  -0.569  1.00  0.00     0.084 A 
HETATM    4  S   UNL     1       1.559  -0.325  -0.094  1.00  0.00    -0.081 SA
HETATM    5  C   UNL     1      -0.327   0.950  -1.086  1.00  0.00     0.042 A 
HETATM    6  C   UNL     1       0.952   1.161  -0.579  1.00  0.00     0.078 A 
ENDROOT
BRANCH   3   7
HETATM    7  C   UNL     1      -0.013  -2.631  -0.404  1.00  0.00    -0.001 A 
HETATM    8  C   UNL     1       0.705  -3.352   0.566  1.00  0.00     0.038 A 
HETATM    9  C   UNL     1       0.494  -4.727   0.727  1.00  0.00     0.035 A 
HETATM   10 CL   UNL     1       1.358  -5.611   1.973  1.00  0.00    -0.084 Cl
HETATM   11  C   UNL     1      -0.413  -5.396  -0.100  1.00  0.00     0.024 A 
HETATM   12  C   UNL     1      -1.120  -4.689  -1.075  1.00  0.00     0.003 A 
HETATM   13  C   UNL     1      -0.935  -3.311  -1.219  1.00  0.00     0.014 A 
ENDBRANCH   3   7
BRANCH   5  14
HETATM   14  C   UNL     1      -1.207   2.071  -1.547  1.00  0.00     0.286 C 
BRANCH  14  15
HETATM   15  N   UNL     1      -1.405   3.026  -0.459  1.00  0.00    -0.074 N 
HETATM   16  H   UNL     1      -1.848   2.556   0.330  1.00  0.00     0.274 HD
HETATM   17  H   UNL     1      -2.002   3.788  -0.780  1.00  0.00     0.274 HD
HETATM   18  H   UNL     1      -0.502   3.401  -0.168  1.00  0.00     0.274 HD
ENDBRANCH  14  15
ENDBRANCH   5  14
TORSDOF 3
