REMARK  1 active torsions:
REMARK  status: ('A' for Active; 'I' for Inactive)
REMARK    1  A    between atoms: C_2  and  N_10 
ROOT
HETATM    1  C   UNL     1       0.239  -0.682   0.001  1.00  0.00     0.093 A 
HETATM    2  C   UNL     1       1.606  -1.107   0.002  1.00  0.00     0.062 A 
HETATM    3  C   UNL     1       0.147   0.710  -0.002  1.00  0.00     0.103 A 
HETATM    4  S   UNL     1       1.674   1.464  -0.004  1.00  0.00    -0.080 SA
HETATM    5  C   UNL     1       2.485  -0.049  -0.001  1.00  0.00     0.083 A 
HETATM    6  N   UNL     1      -0.881  -1.473   0.002  1.00  0.00    -0.361 N 
ATOM      7  HN  UNL     1      -0.848  -2.492   0.003  1.00  0.00     0.165 HD
HETATM    8  N   UNL     1      -1.006   1.421  -0.004  1.00  0.00    -0.357 N 
ATOM      9  HN  UNL     1      -1.049   2.440  -0.007  1.00  0.00     0.166 HD
HETATM   10  C   UNL     1      -2.033  -0.767   0.001  1.00  0.00     0.105 A 
HETATM   11  C   UNL     1      -2.092   0.618  -0.002  1.00  0.00     0.106 A 
ENDROOT
BRANCH   2  12
HETATM   12  N   UNL     1       1.998  -2.399   0.005  1.00  0.00    -0.397 N 
HETATM   13  H   UNL     1       1.325  -3.118   0.007  1.00  0.00     0.156 HD
HETATM   14  H   UNL     1       2.957  -2.622   0.006  1.00  0.00     0.156 HD
ENDBRANCH   2  12
TORSDOF 1
