REMARK  2 active torsions:
REMARK  status: ('A' for Active; 'I' for Inactive)
REMARK    1  A    between atoms: C_1  and  C_2 
REMARK    2  A    between atoms: C_2  and  C_9 
ROOT
HETATM    1  N   UNL     1       3.610   3.585   0.895  1.00  0.00    -0.075 N 
HETATM    2  C   UNL     1       0.814   3.971   0.079  1.00  0.00     0.064 C 
HETATM    3  C   UNL     1       3.263   3.513  -0.531  1.00  0.00     0.233 C 
HETATM    4  C   UNL     1       2.525   3.036   1.718  1.00  0.00     0.233 C 
HETATM    5  C   UNL     1       2.014   4.367  -0.813  1.00  0.00     0.040 C 
HETATM    6  C   UNL     1       1.266   3.900   1.548  1.00  0.00     0.040 C 
HETATM    7  H   UNL     1       3.767   4.559   1.154  1.00  0.00     0.277 HD
HETATM    8  H   UNL     1       4.455   3.037   1.057  1.00  0.00     0.277 HD
ENDROOT
BRANCH   2   9
HETATM    9  C   UNL     1       0.091   2.704  -0.367  1.00  0.00     0.170 C 
HETATM   10  O   UNL     1       0.699   1.646  -0.466  1.00  0.00    -0.291 OA
BRANCH   9  11
HETATM   11  C   UNL     1      -1.376   2.725  -0.647  1.00  0.00     0.051 A 
HETATM   12  S   UNL     1      -2.395   4.063  -0.496  1.00  0.00    -0.098 SA
HETATM   13  C   UNL     1      -3.820   3.287  -0.921  1.00  0.00     0.050 A 
HETATM   14  C   UNL     1      -3.522   1.959  -1.193  1.00  0.00     0.009 A 
HETATM   15  C   UNL     1      -2.163   1.640  -1.044  1.00  0.00     0.023 A 
ENDBRANCH   9  11
ENDBRANCH   2   9
TORSDOF 2
