REMARK  2 active torsions:
REMARK  status: ('A' for Active; 'I' for Inactive)
REMARK    1  A    between atoms: C_5  and  C_10 
REMARK    2  A    between atoms: O_7  and  C_10 
ROOT
HETATM    1  O   UNL     1      -1.181   1.336  -0.006  1.00  0.00    -0.343 OA
HETATM    2  C   UNL     1      -0.002   0.633  -0.004  1.00  0.00     0.075 A 
HETATM    3  C   UNL     1       0.061  -0.766   0.008  1.00  0.00    -0.025 A 
HETATM    4  C   UNL     1      -1.191  -1.595   0.012  1.00  0.00     0.044 C 
HETATM    5  C   UNL     1      -2.327   0.564   0.404  1.00  0.00     0.152 C 
HETATM    6  C   UNL     1      -2.395  -0.746  -0.375  1.00  0.00     0.039 C 
HETATM    7  C   UNL     1       1.168   1.391  -0.046  1.00  0.00     0.037 A 
HETATM    8  C   UNL     1       1.314  -1.393   0.039  1.00  0.00     0.010 A 
HETATM    9  C   UNL     1       2.412   0.758  -0.033  1.00  0.00     0.003 A 
HETATM   10  C   UNL     1       2.485  -0.632   0.018  1.00  0.00     0.001 A 
ENDROOT
BRANCH   5  11
HETATM   11  C   UNL     1      -3.575   1.428   0.187  1.00  0.00     0.196 C 
BRANCH  11  12
HETATM   12  O   UNL     1      -3.732   1.795  -1.181  1.00  0.00    -0.398 OA
HETATM   13  H   UNL     1      -4.529   2.339  -1.281  1.00  0.00     0.209 HD
ENDBRANCH  11  12
ENDBRANCH   5  11
TORSDOF 2
