REMARK  1 active torsions:
REMARK  status: ('A' for Active; 'I' for Inactive)
REMARK    1  A    between atoms: C_1  and  C_2 
REMARK       I    between atoms: C_1  and  N_4 
ROOT
HETATM    1  C   UNL     1       0.947   0.094   0.065  1.00  0.00     0.270 C 
HETATM    2  N   UNL     1       0.154   1.178   0.449  1.00  0.00    -0.343 N 
HETATM    3  O   UNL     1       2.166   0.118   0.263  1.00  0.00    -0.266 OA
HETATM    4  O   UNL     1      -1.226   2.486   2.580  1.00  0.00    -0.388 OA
HETATM    5  C   UNL     1      -1.314   1.229   0.484  1.00  0.00     0.152 C 
HETATM    6  C   UNL     1       0.772   2.293   1.171  1.00  0.00     0.152 C 
HETATM    7  C   UNL     1       0.208   2.379   2.596  1.00  0.00     0.187 C 
HETATM    8  C   UNL     1      -1.811   1.351   1.927  1.00  0.00     0.187 C 
ENDROOT
BRANCH   1   9
HETATM    9  C   UNL     1       0.313  -1.074  -0.524  1.00  0.00     0.102 C 
HETATM   10  N   UNL     1       0.677  -2.387  -0.267  1.00  0.00    -0.357 N 
HETATM   11  C   UNL     1      -0.175  -3.249  -0.915  1.00  0.00     0.091 C 
HETATM   12  C   UNL     1       1.764  -2.853   0.569  1.00  0.00     0.156 C 
HETATM   13  C   UNL     1      -1.039  -2.506  -1.678  1.00  0.00     0.020 C 
HETATM   14  C   UNL     1      -0.689  -1.151  -1.490  1.00  0.00     0.037 C 
ENDBRANCH   1   9
TORSDOF 1
