REMARK  1 active torsions:
REMARK  status: ('A' for Active; 'I' for Inactive)
REMARK       I    between atoms: C_1  and  N_2 
REMARK    1  A    between atoms: C_1  and  C_4 
ROOT
HETATM    1  C   UNL     1       1.041  -0.036   0.046  1.00  0.00     0.224 C 
HETATM    2  N   UNL     1       0.525  -0.274   1.318  1.00  0.00    -0.352 N 
HETATM    3  O   UNL     1       0.318   0.084  -0.943  1.00  0.00    -0.273 OA
HETATM    4  C   UNL     1      -0.912  -0.487   1.485  1.00  0.00     0.125 C 
HETATM    5  C   UNL     1       1.292  -0.398   2.560  1.00  0.00     0.125 C 
HETATM    6  C   UNL     1       1.114  -1.796   3.144  1.00  0.00     0.020 C 
HETATM    7  C   UNL     1      -1.171  -1.875   2.075  1.00  0.00     0.020 C 
HETATM    8  C   UNL     1      -0.366  -2.104   3.358  1.00  0.00     0.003 C 
ENDROOT
BRANCH   1   9
HETATM    9  C   UNL     1       2.563   0.006  -0.091  1.00  0.00     0.082 C 
HETATM   10  C   UNL     1       3.034   0.744  -1.346  1.00  0.00     0.040 C 
HETATM   11  C   UNL     1       4.558   0.686  -1.416  1.00  0.00     0.168 C 
HETATM   12  O   UNL     1       5.015  -0.665  -1.431  1.00  0.00    -0.391 OA
HETATM   13  C   UNL     1       4.637  -1.388  -0.261  1.00  0.00     0.168 C 
HETATM   14  C   UNL     1       3.124  -1.419  -0.110  1.00  0.00     0.040 C 
ENDBRANCH   1   9
TORSDOF 1
