REMARK  1 active torsions:
REMARK  status: ('A' for Active; 'I' for Inactive)
REMARK    1  A    between atoms: C_1  and  C_3 
REMARK       I    between atoms: C_3  and  N_7 
ROOT
HETATM    1  C   UNL     1       0.788  -1.094   0.213  1.00  0.00     0.120 A 
HETATM    2  N   UNL     1      -0.451  -1.136   0.808  1.00  0.00    -0.291 N 
HETATM    3  N   UNL     1      -1.020   0.080   0.957  1.00  0.00    -0.303 N 
ATOM      4  HN  UNL     1      -1.912   0.304   1.399  1.00  0.00     0.186 HD
HETATM    5  C   UNL     1       0.947   0.233  -0.154  1.00  0.00     0.063 A 
HETATM    6  C   UNL     1      -0.150   0.922   0.395  1.00  0.00     0.024 A 
HETATM    7  C   UNL     1      -1.148  -2.281   1.349  1.00  0.00     0.178 C 
HETATM    8  C   UNL     1      -0.383   2.384   0.435  1.00  0.00     0.070 C 
ENDROOT
BRANCH   1   9
HETATM    9  C   UNL     1       1.646  -2.232  -0.021  1.00  0.00     0.272 C 
HETATM   10  N   UNL     1       3.025  -2.013  -0.025  1.00  0.00    -0.343 N 
HETATM   11  C   UNL     1       3.921  -3.065  -0.505  1.00  0.00     0.152 C 
HETATM   12  C   UNL     1       3.734  -0.966   0.726  1.00  0.00     0.152 C 
HETATM   13  C   UNL     1       5.053  -2.436  -1.323  1.00  0.00     0.187 C 
HETATM   14  O   UNL     1       5.772  -1.464  -0.544  1.00  0.00    -0.388 OA
HETATM   15  C   UNL     1       4.900  -0.412  -0.101  1.00  0.00     0.187 C 
HETATM   16  O   UNL     1       1.183  -3.349  -0.255  1.00  0.00    -0.266 OA
ENDBRANCH   1   9
TORSDOF 1
