REMARK  1 active torsions:
REMARK  status: ('A' for Active; 'I' for Inactive)
REMARK    1  A    between atoms: C_6  and  O_8 
ROOT
HETATM    1  N   UNL     1       2.384  -0.036  -0.000  1.00  0.00    -0.238 N 
ATOM      2  HN  UNL     1       3.404  -0.018   0.001  1.00  0.00     0.197 HD
HETATM    3  C   UNL     1       0.219  -0.793  -0.003  1.00  0.00     0.053 A 
HETATM    4  O   UNL     1       1.506   1.050   0.002  1.00  0.00    -0.234 OA
HETATM    5  C   UNL     1       0.216   0.593  -0.000  1.00  0.00     0.119 A 
HETATM    6  C   UNL     1       1.585  -1.097  -0.003  1.00  0.00     0.173 A 
HETATM    7  C   UNL     1      -0.940   1.382   0.001  1.00  0.00    -0.025 A 
HETATM    8  C   UNL     1      -1.001  -1.485  -0.006  1.00  0.00     0.019 A 
HETATM    9  C   UNL     1      -2.183  -0.735  -0.005  1.00  0.00     0.002 A 
HETATM   10  C   UNL     1      -2.151   0.665  -0.001  1.00  0.00     0.010 A 
HETATM   11  C   UNL     1      -0.912   2.877   0.007  1.00  0.00     0.051 C 
ENDROOT
BRANCH   6  12
HETATM   12  O   UNL     1       2.184  -2.291  -0.006  1.00  0.00    -0.344 OA
HETATM   13  H   UNL     1       1.668  -3.074  -0.008  1.00  0.00     0.219 HD
ENDBRANCH   6  12
TORSDOF 1
