REMARK  1 active torsions:
REMARK  status: ('A' for Active; 'I' for Inactive)
REMARK    1  A    between atoms: C_1  and  C_7 
ROOT
HETATM    1  C   UNL     1      -1.590  -1.243  -0.078  1.00  0.00    -0.026 A 
HETATM    2  C   UNL     1      -1.830  -0.479   1.046  1.00  0.00     0.096 A 
HETATM    3  N   UNL     1      -1.577   0.835   0.735  1.00  0.00    -0.365 N 
HETATM    4  C   UNL     1      -1.157  -0.338  -1.104  1.00  0.00    -0.001 A 
HETATM    5  C   UNL     1      -1.187   0.949  -0.578  1.00  0.00     0.042 A 
HETATM    6  C   UNL     1      -0.769  -0.513  -2.448  1.00  0.00     0.014 A 
HETATM    7  C   UNL     1      -0.850   2.079  -1.338  1.00  0.00     0.030 A 
HETATM    8  C   UNL     1      -0.435   0.601  -3.222  1.00  0.00     0.001 A 
HETATM    9  C   UNL     1      -0.483   1.878  -2.673  1.00  0.00     0.002 A 
HETATM   10  H   UNL     1      -1.664   1.588   1.364  1.00  0.00     0.165 HD
ENDROOT
BRANCH   1  11
HETATM   11  C   UNL     1      -1.731  -2.721  -0.293  1.00  0.00     0.024 C 
HETATM   12  C   UNL     1      -1.675  -3.605   0.951  1.00  0.00     0.037 C 
HETATM   13  C   UNL     1      -1.648  -5.071   0.506  1.00  0.00     0.233 C 
HETATM   14  N   UNL     1      -2.796  -5.423  -0.335  1.00  0.00    -0.075 N 
HETATM   15  C   UNL     1      -2.952  -4.535  -1.488  1.00  0.00     0.233 C 
HETATM   16  H   UNL     1      -2.672  -6.377  -0.673  1.00  0.00     0.277 HD
HETATM   17  H   UNL     1      -3.635  -5.329   0.238  1.00  0.00     0.277 HD
HETATM   18  C   UNL     1      -3.005  -3.068  -1.075  1.00  0.00     0.037 C 
ENDBRANCH   1  11
TORSDOF 1
