REMARK  2 active torsions:
REMARK  status: ('A' for Active; 'I' for Inactive)
REMARK    1  A    between atoms: CA_3  and  C_7 
REMARK    2  A    between atoms: O_5  and  C_7 
ROOT
HETATM    1  N   UNL     1       0.367   1.138  -0.025  1.00  0.00    -0.361 N 
ATOM      2  HN  UNL     1       0.931   1.988  -0.029  1.00  0.00     0.165 HD
HETATM    3  CA  UNL     1       0.950  -0.094  -0.025  1.00  0.00     0.033 A 
HETATM    4  C   UNL     1      -0.988   1.195  -0.020  1.00  0.00     0.005 A 
HETATM    5  C   UNL     1      -1.173  -1.193  -0.018  1.00  0.00     0.004 A 
HETATM    6  C   UNL     1      -1.786   0.055  -0.016  1.00  0.00     0.024 A 
HETATM    7  C   UNL     1       0.214  -1.274  -0.023  1.00  0.00     0.027 A 
HETATM    8  C   UNL     1      -1.606   2.561  -0.006  1.00  0.00     0.068 C 
ENDROOT
BRANCH   3   9
HETATM    9  C   UNL     1       2.462  -0.146  -0.013  1.00  0.00     0.220 C 
BRANCH   9  10
HETATM   10  O   UNL     1       3.032   1.162  -0.018  1.00  0.00    -0.395 OA
HETATM   11  H   UNL     1       4.000   1.093  -0.010  1.00  0.00     0.209 HD
ENDBRANCH   9  10
ENDBRANCH   3   9
TORSDOF 2
