REMARK  2 active torsions:
REMARK  status: ('A' for Active; 'I' for Inactive)
REMARK    1  A    between atoms: C_1  and  C_3 
REMARK    2  A    between atoms: C_2  and  C_4 
ROOT
HETATM    1  C   UNL     1       0.628   1.384   0.455  1.00  0.00     0.048 A 
HETATM    2  C   UNL     1      -0.146   3.979   1.228  1.00  0.00     0.040 A 
HETATM    3  C   UNL     1      -0.269   1.575   1.518  1.00  0.00     0.017 A 
HETATM    4  C   UNL     1       1.125   2.508  -0.223  1.00  0.00     0.017 A 
HETATM    5  C   UNL     1       0.743   3.796   0.162  1.00  0.00     0.019 A 
HETATM    6  C   UNL     1      -0.654   2.863   1.904  1.00  0.00     0.019 A 
ENDROOT
BRANCH   1   7
HETATM    7  C   UNL     1       1.053  -0.004   0.036  1.00  0.00     0.417 C 
HETATM    8  F   UNL     1       0.485  -0.986   0.790  1.00  0.00    -0.166 F 
HETATM    9  F   UNL     1       2.397  -0.198   0.123  1.00  0.00    -0.166 F 
HETATM   10  F   UNL     1       0.718  -0.283  -1.254  1.00  0.00    -0.166 F 
ENDBRANCH   1   7
BRANCH   2  11
HETATM   11  C   UNL     1      -0.518   5.365   1.603  1.00  0.00     0.209 C 
HETATM   12  O   UNL     1      -0.117   6.379   1.066  1.00  0.00    -0.644 OA
HETATM   13  O   UNL     1      -1.379   5.413   2.635  1.00  0.00    -0.644 OA
ENDBRANCH   2  11
TORSDOF 2
