REMARK  1 active torsions:
REMARK  status: ('A' for Active; 'I' for Inactive)
REMARK    1  A    between atoms: C_1  and  N_7 
ROOT
HETATM    1  C   UNL     1      -0.696   1.239   0.001  1.00  0.00     0.029 A 
HETATM    2  C   UNL     1       1.392   0.004   0.011  1.00  0.00     0.037 A 
HETATM    3  C   UNL     1      -0.688  -1.186   0.010  1.00  0.00     0.037 A 
HETATM    4  C   UNL     1      -1.385   0.023  -0.026  1.00  0.00     0.052 A 
HETATM    5  C   UNL     1       0.701   1.218  -0.026  1.00  0.00     0.052 A 
HETATM    6  C   UNL     1       0.703  -1.204   0.033  1.00  0.00     0.048 A 
HETATM    7 CL   UNL     1      -1.558  -2.671   0.003  1.00  0.00    -0.084 Cl
HETATM    8 CL   UNL     1       3.113   0.004   0.007  1.00  0.00    -0.084 Cl
ENDROOT
BRANCH   1   9
HETATM    9  N   UNL     1      -1.386   2.443  -0.184  1.00  0.00    -0.399 N 
HETATM   10  H   UNL     1      -2.370   2.454  -0.164  1.00  0.00     0.156 HD
HETATM   11  H   UNL     1      -0.887   3.278  -0.333  1.00  0.00     0.156 HD
ENDBRANCH   1   9
TORSDOF 1
