REMARK  1 active torsions:
REMARK  status: ('A' for Active; 'I' for Inactive)
REMARK    1  A    between atoms: C_5  and  C_6 
ROOT
HETATM    1  N   UNL     1      -1.666   1.563   1.132  1.00  0.00    -0.386 N 
ATOM      2  HN  UNL     1      -2.011   2.193   1.856  1.00  0.00     0.160 HD
HETATM    3  C   UNL     1      -1.035   2.017   0.011  1.00  0.00     0.154 C 
HETATM    4  C   UNL     1      -1.803   0.221   1.218  1.00  0.00     0.084 C 
HETATM    5  C   UNL     1      -1.209   1.312  -1.179  1.00  0.00     0.004 C 
HETATM    6  C   UNL     1      -1.471  -0.639   0.189  1.00  0.00     0.017 C 
HETATM    7  C   UNL     1      -1.243  -0.072  -1.060  1.00  0.00    -0.000 C 
ENDROOT
BRANCH   3   8
HETATM    8  C   UNL     1       0.437   2.350   0.258  1.00  0.00     0.035 C 
HETATM    9  N   UNL     1       1.178   2.428  -0.888  1.00  0.00    -0.367 N 
HETATM   10  C   UNL     1       2.317   1.705  -0.939  1.00  0.00     0.088 C 
ATOM     11  HN  UNL     1       0.882   3.009  -1.673  1.00  0.00     0.165 HD
HETATM   12  C   UNL     1       2.796   0.970   0.124  1.00  0.00     0.017 C 
HETATM   13  C   UNL     1       2.164   1.108   1.353  1.00  0.00     0.003 C 
HETATM   14  C   UNL     1       1.010   1.882   1.442  1.00  0.00     0.027 C 
ENDBRANCH   3   8
TORSDOF 1
