REMARK  2 active torsions:
REMARK  status: ('A' for Active; 'I' for Inactive)
REMARK    1  A    between atoms: C_1  and  C_2 
REMARK    2  A    between atoms: C_5  and  N_6 
ROOT
HETATM    1  C   UNL     1       0.578   0.897  -1.258  1.00  0.00    -0.051 A 
HETATM    2  C   UNL     1       0.796   2.280  -1.356  1.00  0.00     0.010 A 
HETATM    3  C   UNL     1      -0.000   0.263  -2.374  1.00  0.00     0.010 A 
HETATM    4  C   UNL     1      -0.135   2.358  -3.600  1.00  0.00     0.025 A 
HETATM    5  C   UNL     1      -0.328   0.981  -3.534  1.00  0.00     0.029 A 
HETATM    6  C   UNL     1       0.466   2.992  -2.516  1.00  0.00     0.029 A 
ENDROOT
BRANCH   1   7
HETATM    7  C   UNL     1       0.978   0.082  -0.016  1.00  0.00    -0.024 C 
HETATM    8  C   UNL     1       1.675   0.926   1.076  1.00  0.00     0.019 C 
HETATM    9  C   UNL     1       1.964  -1.037  -0.417  1.00  0.00     0.019 C 
HETATM   10  C   UNL     1      -0.275  -0.552   0.620  1.00  0.00     0.019 C 
ENDBRANCH   1   7
BRANCH   4  11
HETATM   11  N   UNL     1      -0.318   3.046  -4.806  1.00  0.00    -0.399 N 
HETATM   12  H   UNL     1      -0.743   2.595  -5.570  1.00  0.00     0.156 HD
HETATM   13  H   UNL     1      -0.021   3.981  -4.889  1.00  0.00     0.156 HD
ENDBRANCH   4  11
TORSDOF 2
