REMARK  7 active torsions:
REMARK  status: ('A' for Active; 'I' for Inactive)
REMARK    1  A    between atoms: C_1  and  C_6 
REMARK    2  A    between atoms: C_3  and  C_10 
REMARK    3  A    between atoms: C_6  and  N_7 
REMARK    4  A    between atoms: S_8  and  C_10 
REMARK    5  A    between atoms: S_8  and  C_11 
REMARK    6  A    between atoms: N_9  and  C_14 
REMARK    7  A    between atoms: C_11  and  C_14 
ROOT
HETATM    1  C   UNL     1      -0.129   1.132   0.056  1.00  0.00     0.079 A 
HETATM    2  O   UNL     1      -1.044   0.120   0.036  1.00  0.00    -0.317 OA
HETATM    3  C   UNL     1      -0.351  -1.055   0.050  1.00  0.00     0.062 A 
HETATM    4  C   UNL     1       1.147   0.610   0.119  1.00  0.00     0.037 A 
HETATM    5  C   UNL     1       1.003  -0.797   0.108  1.00  0.00     0.036 A 
ENDROOT
BRANCH   3   6
HETATM    6  C   UNL     1      -1.163  -2.291  -0.063  1.00  0.00     0.139 C 
BRANCH   6   7
HETATM    7  S   UNL     1      -0.933  -3.455   1.312  1.00  0.00    -0.161 SA
BRANCH   7   8
HETATM    8  C   UNL     1      -1.480  -2.437   2.735  1.00  0.00     0.101 C 
BRANCH   8   9
HETATM    9  C   UNL     1      -2.936  -1.952   2.686  1.00  0.00     0.239 C 
BRANCH   9  10
HETATM   10  N   UNL     1      -3.910  -3.039   2.595  1.00  0.00    -0.079 N 
HETATM   11  H   UNL     1      -4.852  -2.649   2.566  1.00  0.00     0.274 HD
HETATM   12  H   UNL     1      -3.817  -3.647   3.408  1.00  0.00     0.274 HD
HETATM   13  H   UNL     1      -3.739  -3.578   1.746  1.00  0.00     0.274 HD
ENDBRANCH   9  10
ENDBRANCH   8   9
ENDBRANCH   7   8
ENDBRANCH   6   7
ENDBRANCH   3   6
BRANCH   1  14
HETATM   14  C   UNL     1      -0.668   2.522  -0.029  1.00  0.00     0.298 C 
BRANCH  14  15
HETATM   15  N   UNL     1      -0.179   3.255  -1.214  1.00  0.00    -0.073 N 
HETATM   16  C   UNL     1      -0.637   2.631  -2.459  1.00  0.00     0.269 C 
HETATM   17  C   UNL     1      -0.645   4.643  -1.163  1.00  0.00     0.269 C 
HETATM   18  H   UNL     1       0.840   3.229  -1.201  1.00  0.00     0.279 HD
ENDBRANCH  14  15
ENDBRANCH   1  14
TORSDOF 7
