REMARK  1 active torsions:
REMARK  status: ('A' for Active; 'I' for Inactive)
REMARK    1  A    between atoms: C_1  and  C_4 
ROOT
HETATM    1  C   UNL     1       0.969   0.165  -0.015  1.00  0.00     0.100 A 
HETATM    2  N   UNL     1       0.500  -1.121  -0.026  1.00  0.00    -0.360 N 
ATOM      3  HN  UNL     1       1.132  -1.922  -0.042  1.00  0.00     0.165 HD
HETATM    4  C   UNL     1       0.098   1.260   0.010  1.00  0.00     0.035 A 
HETATM    5  N   UNL     1      -1.258   1.070   0.021  1.00  0.00    -0.366 N 
ATOM      6  HN  UNL     1      -1.905   1.859   0.038  1.00  0.00     0.165 HD
HETATM    7  C   UNL     1      -0.840  -1.276  -0.014  1.00  0.00     0.105 A 
HETATM    8  C   UNL     1      -1.703  -0.204   0.009  1.00  0.00     0.105 A 
HETATM    9  C   UNL     1       0.482   2.706   0.017  1.00  0.00     0.070 C 
ENDROOT
BRANCH   1  10
HETATM   10  C   UNL     1       2.464   0.259  -0.033  1.00  0.00     0.173 C 
HETATM   11  O   UNL     1       3.062   1.331  -0.039  1.00  0.00    -0.291 OA
HETATM   12  C   UNL     1       3.235  -1.040  -0.049  1.00  0.00     0.098 C 
ENDBRANCH   1  10
TORSDOF 1
