REMARK  3 active torsions:
REMARK  status: ('A' for Active; 'I' for Inactive)
REMARK    1  A    between atoms: C_1  and  C_3 
REMARK    2  A    between atoms: C_2  and  C_3 
REMARK    3  A    between atoms: C_4  and  O_7 
ROOT
HETATM    1  C   UNL     1      -0.519   0.570  -1.857  1.00  0.00    -0.015 A 
HETATM    2  C   UNL     1      -0.496  -0.783  -2.220  1.00  0.00     0.072 A 
HETATM    3  C   UNL     1      -1.364   1.429  -2.581  1.00  0.00     0.010 A 
HETATM    4  C   UNL     1      -1.280  -1.266  -3.267  1.00  0.00     0.037 A 
HETATM    5  C   UNL     1      -2.159   0.948  -3.624  1.00  0.00     0.001 A 
HETATM    6  C   UNL     1      -2.118  -0.401  -3.967  1.00  0.00     0.003 A 
ENDROOT
BRANCH   1   7
HETATM    7  C   UNL     1       0.373   1.160  -0.789  1.00  0.00     0.154 C 
BRANCH   7   8
HETATM    8  C   UNL     1       0.194   0.574   0.596  1.00  0.00     0.177 C 
HETATM    9  O   UNL     1      -0.126  -0.582   0.828  1.00  0.00    -0.648 OA
HETATM   10  O   UNL     1       0.509   1.440   1.590  1.00  0.00    -0.648 OA
ENDBRANCH   7   8
ENDBRANCH   1   7
BRANCH   2  11
HETATM   11  O   UNL     1       0.294  -1.692  -1.577  1.00  0.00    -0.360 OA
HETATM   12  H   UNL     1       0.840  -1.418  -0.867  1.00  0.00     0.217 HD
ENDBRANCH   2  11
TORSDOF 3
