REMARK  3 active torsions:
REMARK  status: ('A' for Active; 'I' for Inactive)
REMARK    1  A    between atoms: C_1  and  C_2 
REMARK    2  A    between atoms: C_1  and  C_5 
REMARK    3  A    between atoms: C_8  and  O_11 
ROOT
HETATM    1  C   UNL     1       1.104   0.252   0.062  1.00  0.00     0.163 C 
HETATM    2  O   UNL     1       0.421   0.749  -0.821  1.00  0.00    -0.292 OA
ENDROOT
BRANCH   1   3
HETATM    3  C   UNL     1       0.406  -0.407   1.218  1.00  0.00     0.010 A 
HETATM    4  C   UNL     1      -1.002  -0.488   1.244  1.00  0.00     0.018 A 
HETATM    5  C   UNL     1      -1.666  -1.094   2.321  1.00  0.00     0.037 A 
HETATM    6  C   UNL     1      -0.941  -1.628   3.396  1.00  0.00     0.068 A 
HETATM    7  C   UNL     1       0.460  -1.551   3.371  1.00  0.00     0.037 A 
HETATM    8  C   UNL     1       1.123  -0.955   2.301  1.00  0.00     0.018 A 
BRANCH   6   9
HETATM    9  O   UNL     1      -1.617  -2.203   4.422  1.00  0.00    -0.356 OA
HETATM   10  C   UNL     1      -1.033  -2.753   5.546  1.00  0.00     0.210 C 
ENDBRANCH   6   9
ENDBRANCH   1   3
BRANCH   1  11
HETATM   11  C   UNL     1       2.632   0.319  -0.035  1.00  0.00     0.064 C 
HETATM   12  C   UNL     1       3.178   1.548  -0.788  1.00  0.00     0.040 C 
HETATM   13  C   UNL     1       2.949   1.451  -2.305  1.00  0.00     0.233 C 
HETATM   14  N   UNL     1       3.529   0.206  -2.829  1.00  0.00    -0.075 N 
HETATM   15  C   UNL     1       2.930  -0.976  -2.187  1.00  0.00     0.233 C 
HETATM   16  H   UNL     1       4.533   0.207  -2.651  1.00  0.00     0.277 HD
HETATM   17  H   UNL     1       3.339   0.159  -3.830  1.00  0.00     0.277 HD
HETATM   18  C   UNL     1       3.215  -0.955  -0.677  1.00  0.00     0.040 C 
ENDBRANCH   1  11
TORSDOF 3
