REMARK  2 active torsions:
REMARK  status: ('A' for Active; 'I' for Inactive)
REMARK    1  A    between atoms: C_2  and  C_4 
REMARK    2  A    between atoms: C_3  and  C_8 
ROOT
HETATM    1  S   UNL     1      -1.035   0.025   0.032  1.00  0.00    -0.086 SA
HETATM    2  C   UNL     1       0.144   1.267  -0.010  1.00  0.00     0.022 A 
HETATM    3  C   UNL     1       0.133  -1.223   0.017  1.00  0.00     0.051 A 
HETATM    4  C   UNL     1       1.417   0.729   0.002  1.00  0.00     0.021 A 
HETATM    5  C   UNL     1       1.412  -0.700   0.015  1.00  0.00     0.024 A 
ENDROOT
BRANCH   2   6
HETATM    6  C   UNL     1      -0.240   2.657  -0.073  1.00  0.00     0.021 A 
HETATM    7  S   UNL     1       0.780   3.836  -0.798  1.00  0.00    -0.101 SA
HETATM    8  C   UNL     1      -0.355   5.086  -0.536  1.00  0.00     0.050 A 
HETATM    9  C   UNL     1      -1.481   4.634   0.109  1.00  0.00     0.008 A 
HETATM   10  C   UNL     1      -1.413   3.236   0.380  1.00  0.00     0.021 A 
ENDBRANCH   2   6
BRANCH   3  11
HETATM   11  C   UNL     1      -0.244  -2.633   0.003  1.00  0.00     0.162 C 
HETATM   12  O   UNL     1       0.591  -3.537  -0.012  1.00  0.00    -0.292 OA
HETATM   13  C   UNL     1      -1.718  -2.978   0.006  1.00  0.00     0.097 C 
ENDBRANCH   3  11
TORSDOF 2
