REMARK  3 active torsions:
REMARK  status: ('A' for Active; 'I' for Inactive)
REMARK    1  A    between atoms: N_1  and  C_7 
REMARK    2  A    between atoms: C_6  and  C_7 
REMARK    3  A    between atoms: C_6  and  C_8 
ROOT
HETATM    1  N   UNL     1       1.508  -1.043  -0.106  1.00  0.00    -0.355 N 
HETATM    2  C   UNL     1       2.355   0.035  -0.050  1.00  0.00     0.099 A 
HETATM    3  C   UNL     1       1.596   1.187  -0.011  1.00  0.00    -0.034 A 
HETATM    4  C   UNL     1       0.199  -0.614  -0.188  1.00  0.00     0.045 A 
HETATM    5  C   UNL     1       0.225   0.781  -0.069  1.00  0.00    -0.002 A 
HETATM    6  C   UNL     1       2.124   2.575   0.058  1.00  0.00     0.050 C 
HETATM    7  C   UNL     1      -1.005  -1.320  -0.348  1.00  0.00     0.030 A 
HETATM    8  C   UNL     1      -1.000   1.481  -0.049  1.00  0.00     0.014 A 
HETATM    9  C   UNL     1      -2.202  -0.598  -0.342  1.00  0.00     0.002 A 
HETATM   10  C   UNL     1      -2.205   0.782  -0.179  1.00  0.00     0.001 A 
ENDROOT
BRANCH   1  11
HETATM   11  C   UNL     1       1.959  -2.426  -0.063  1.00  0.00     0.139 C 
BRANCH  11  12
HETATM   12  C   UNL     1       2.601  -2.781   1.273  1.00  0.00     0.133 C 
BRANCH  12  13
HETATM   13  C   UNL     1       2.935  -4.240   1.319  1.00  0.00     0.174 C 
HETATM   14  O   UNL     1       2.805  -5.053   0.418  1.00  0.00    -0.648 OA
HETATM   15  O   UNL     1       3.435  -4.609   2.513  1.00  0.00    -0.648 OA
ENDBRANCH  12  13
ENDBRANCH  11  12
ENDBRANCH   1  11
TORSDOF 3
