REMARK  2 active torsions:
REMARK  status: ('A' for Active; 'I' for Inactive)
REMARK    1  A    between atoms: C_1  and  C_3 
REMARK    2  A    between atoms: C_2  and  N_4 
ROOT
HETATM    1  C   UNL     1      -0.141   0.510   1.093  1.00  0.00     0.091 A 
HETATM    2  C   UNL     1      -0.786   1.198   0.061  1.00  0.00     0.118 A 
HETATM    3  N   UNL     1      -0.763   0.721  -1.208  1.00  0.00    -0.352 N 
ATOM      4  HN  UNL     1      -1.217   1.236  -1.962  1.00  0.00     0.166 HD
HETATM    5  C   UNL     1       0.499  -0.709   0.795  1.00  0.00     0.021 A 
HETATM    6  C   UNL     1      -0.130  -0.448  -1.460  1.00  0.00     0.089 A 
HETATM    7  C   UNL     1       0.510  -1.198  -0.500  1.00  0.00     0.018 A 
ENDROOT
BRANCH   2   8
HETATM    8  N   UNL     1      -1.402   2.415   0.277  1.00  0.00    -0.363 N 
HETATM    9  C   UNL     1      -1.480   3.368  -0.842  1.00  0.00     0.152 C 
HETATM   10  C   UNL     1      -1.650   4.786  -0.233  1.00  0.00     0.252 C 
HETATM   11  N   UNL     1      -2.818   4.922   0.674  1.00  0.00    -0.072 N 
HETATM   12  C   UNL     1      -2.783   3.844   1.691  1.00  0.00     0.252 C 
HETATM   13  H   UNL     1      -2.784   5.830   1.139  1.00  0.00     0.277 HD
HETATM   14  H   UNL     1      -3.680   4.851   0.132  1.00  0.00     0.277 HD
HETATM   15  C   UNL     1      -2.637   2.427   1.078  1.00  0.00     0.152 C 
ENDBRANCH   2   8
BRANCH   1  16
HETATM   16  C   UNL     1      -0.022   1.006   2.508  1.00  0.00     0.421 C 
HETATM   17  F   UNL     1      -0.529   2.233   2.797  1.00  0.00    -0.166 F 
HETATM   18  F   UNL     1      -0.637   0.154   3.383  1.00  0.00    -0.166 F 
HETATM   19  F   UNL     1       1.280   1.059   2.923  1.00  0.00    -0.166 F 
ENDBRANCH   1  16
TORSDOF 2
