REMARK  3 active torsions:
REMARK  status: ('A' for Active; 'I' for Inactive)
REMARK    1  A    between atoms: C_1  and  C_6 
REMARK    2  A    between atoms: N_2  and  C_7 
REMARK    3  A    between atoms: C_7  and  C_8 
ROOT
HETATM    1  C   UNL     1      -0.374  -1.234  -0.005  1.00  0.00     0.065 A 
HETATM    2  N   UNL     1       0.861   0.654   0.027  1.00  0.00    -0.349 N 
HETATM    3  C   UNL     1       0.927  -0.738  -0.007  1.00  0.00     0.025 A 
HETATM    4  C   UNL     1      -1.232  -0.103   0.048  1.00  0.00     0.045 A 
HETATM    5  C   UNL     1      -0.466   1.040   0.093  1.00  0.00     0.009 A 
HETATM    6  C   UNL     1       2.227  -1.476  -0.034  1.00  0.00     0.069 C 
HETATM    7  C   UNL     1      -0.965   2.438   0.195  1.00  0.00     0.068 C 
ENDROOT
BRANCH   2   8
HETATM    8  C   UNL     1       2.027   1.548   0.086  1.00  0.00     0.174 C 
BRANCH   8   9
HETATM    9  C   UNL     1       2.563   1.945  -1.263  1.00  0.00     0.001 A 
HETATM   10  S   UNL     1       3.838   3.102  -1.338  1.00  0.00    -0.105 SA
HETATM   11  C   UNL     1       3.756   3.185  -3.044  1.00  0.00     0.050 A 
HETATM   12  C   UNL     1       2.885   2.252  -3.557  1.00  0.00     0.008 A 
HETATM   13  C   UNL     1       2.216   1.522  -2.536  1.00  0.00     0.017 A 
ENDBRANCH   8   9
ENDBRANCH   2   8
BRANCH   1  14
HETATM   14  C   UNL     1      -0.809  -2.623  -0.031  1.00  0.00     0.211 C 
HETATM   15  O   UNL     1      -0.082  -3.609  -0.055  1.00  0.00    -0.644 OA
HETATM   16  O   UNL     1      -2.149  -2.784  -0.020  1.00  0.00    -0.644 OA
ENDBRANCH   1  14
TORSDOF 3
