REMARK  1 active torsions:
REMARK  status: ('A' for Active; 'I' for Inactive)
REMARK    1  A    between atoms: C_5  and  O_10 
ROOT
HETATM    1  N   UNL     1       3.104  -0.099   0.075  1.00  0.00    -0.191 NA
HETATM    2  N   UNL     1      -1.590  -1.142  -0.017  1.00  0.00    -0.345 N 
ATOM      3  HN  UNL     1      -2.114  -2.017  -0.030  1.00  0.00     0.167 HD
HETATM    4  C   UNL     1       1.946  -0.035   0.055  1.00  0.00     0.101 C 
HETATM    5  C   UNL     1      -2.214   0.056  -0.028  1.00  0.00     0.141 A 
HETATM    6  C   UNL     1       0.521   0.034   0.028  1.00  0.00     0.060 A 
HETATM    7  C   UNL     1      -0.237  -1.127   0.012  1.00  0.00     0.112 A 
HETATM    8  C   UNL     1      -1.544   1.270  -0.011  1.00  0.00     0.057 A 
HETATM    9  C   UNL     1      -0.150   1.257   0.018  1.00  0.00     0.028 A 
ENDROOT
BRANCH   5  10
HETATM   10  O   UNL     1      -3.592   0.111  -0.057  1.00  0.00    -0.341 OA
HETATM   11  C   UNL     1      -4.193  -1.181  -0.095  1.00  0.00     0.211 C 
ENDBRANCH   5  10
TORSDOF 1
