REMARK  2 active torsions:
REMARK  status: ('A' for Active; 'I' for Inactive)
REMARK    1  A    between atoms: C_1  and  C_2 
REMARK    2  A    between atoms: C_2  and  O_5 
ROOT
HETATM    1  C   UNL     1       0.201  -1.238   0.003  1.00  0.00     0.078 A 
HETATM    2  C   UNL     1       0.876  -0.015   0.000  1.00  0.00     0.132 A 
HETATM    3  F   UNL     1       2.214   0.058  -0.001  1.00  0.00    -0.205 F 
HETATM    4  C   UNL     1      -1.204  -1.232   0.002  1.00  0.00     0.021 A 
HETATM    5  C   UNL     1       0.170   1.190  -0.001  1.00  0.00     0.043 A 
HETATM    6  C   UNL     1      -1.912  -0.025   0.002  1.00  0.00     0.001 A 
HETATM    7  C   UNL     1      -1.224   1.186   0.001  1.00  0.00     0.003 A 
ENDROOT
BRANCH   1   8
HETATM    8  C   UNL     1       0.887  -2.555   0.008  1.00  0.00     0.296 C 
HETATM    9  O   UNL     1       0.278  -3.616   0.010  1.00  0.00    -0.259 OA
BRANCH   8  10
HETATM   10  O   UNL     1       2.234  -2.427   0.013  1.00  0.00    -0.322 OA
HETATM   11  C   UNL     1       2.948  -3.663   0.023  1.00  0.00     0.213 C 
ENDBRANCH   8  10
ENDBRANCH   1   8
TORSDOF 2
