REMARK  4 active torsions:
REMARK  status: ('A' for Active; 'I' for Inactive)
REMARK    1  A    between atoms: C_3  and  C_8 
REMARK    2  A    between atoms: C_4  and  C_9 
REMARK    3  A    between atoms: C_7  and  O_10 
REMARK    4  A    between atoms: O_10  and  C_17 
ROOT
HETATM    1  C   UNL     1      -0.009  -2.586  -0.066  1.00  0.00    -0.002 A 
HETATM    2  C   UNL     1       0.540  -3.376   0.957  1.00  0.00     0.017 A 
HETATM    3  C   UNL     1      -0.761  -3.231  -1.058  1.00  0.00     0.017 A 
HETATM    4  C   UNL     1      -0.494  -5.374   0.060  1.00  0.00     0.078 A 
HETATM    5  C   UNL     1       0.310  -4.759   1.016  1.00  0.00     0.038 A 
HETATM    6  C   UNL     1      -0.995  -4.608  -0.994  1.00  0.00     0.038 A 
ENDROOT
BRANCH   1   7
HETATM    7  C   UNL     1       0.233  -1.132  -0.075  1.00  0.00     0.085 A 
HETATM    8  N   UNL     1       1.303  -0.549   0.434  1.00  0.00    -0.347 N 
HETATM    9  C   UNL     1       1.228   0.836   0.282  1.00  0.00     0.085 A 
ATOM     10  HN  UNL     1       2.078  -1.043   0.877  1.00  0.00     0.167 HD
HETATM   11  C   UNL     1       0.066   1.280  -0.320  1.00  0.00     0.085 A 
HETATM   12  S   UNL     1      -0.940  -0.041  -0.718  1.00  0.00    -0.081 SA
BRANCH   9  13
HETATM   13  C   UNL     1       2.298   1.729   0.729  1.00  0.00     0.172 C 
HETATM   14  O   UNL     1       2.217   2.954   0.609  1.00  0.00    -0.291 OA
HETATM   15  C   UNL     1       3.518   1.094   1.348  1.00  0.00     0.098 C 
ENDBRANCH   9  13
ENDBRANCH   1   7
BRANCH   4  16
HETATM   16  O   UNL     1      -0.826  -6.691   0.002  1.00  0.00    -0.255 OA
BRANCH  16  17
HETATM   17  C   UNL     1      -0.900  -7.455   1.197  1.00  0.00     0.530 C 
HETATM   18  F   UNL     1      -0.919  -6.714   2.324  1.00  0.00    -0.144 F 
HETATM   19  F   UNL     1      -2.040  -8.182   1.165  1.00  0.00    -0.144 F 
HETATM   20  F   UNL     1       0.142  -8.310   1.249  1.00  0.00    -0.144 F 
ENDBRANCH  16  17
ENDBRANCH   4  16
TORSDOF 4
