REMARK  2 active torsions:
REMARK  status: ('A' for Active; 'I' for Inactive)
REMARK    1  A    between atoms: C_1  and  C_2 
REMARK    2  A    between atoms: C_1  and  O_10 
ROOT
HETATM    1  C   UNL     1       0.179   0.371  -1.329  1.00  0.00     0.041 A 
HETATM    2  C   UNL     1      -1.505   1.755  -2.400  1.00  0.00     0.041 A 
HETATM    3  C   UNL     1      -0.825   1.342  -1.248  1.00  0.00     0.042 A 
HETATM    4  C   UNL     1      -1.192   1.218  -3.658  1.00  0.00    -0.040 A 
HETATM    5  C   UNL     1       0.480  -0.188  -2.579  1.00  0.00     0.018 A 
HETATM    6  C   UNL     1      -0.194   0.234  -3.732  1.00  0.00     0.009 A 
HETATM    7 CL   UNL     1      -2.748   2.942  -2.213  1.00  0.00    -0.084 Cl
HETATM    8  C   UNL     1      -1.896   1.666  -4.910  1.00  0.00     0.050 C 
ENDROOT
BRANCH   1   9
HETATM    9  C   UNL     1       0.940  -0.091  -0.127  1.00  0.00     0.293 C 
HETATM   10  O   UNL     1       1.820  -0.932  -0.174  1.00  0.00    -0.259 OA
BRANCH   9  11
HETATM   11  O   UNL     1       0.509   0.552   0.988  1.00  0.00    -0.323 OA
HETATM   12  C   UNL     1       1.165   0.205   2.215  1.00  0.00     0.213 C 
ENDBRANCH   9  11
ENDBRANCH   1   9
TORSDOF 2
