REMARK  2 active torsions:
REMARK  status: ('A' for Active; 'I' for Inactive)
REMARK    1  A    between atoms: C_1  and  C_2 
REMARK    2  A    between atoms: C_1  and  O_5 
ROOT
HETATM    1  C   UNL     1       1.063   0.066  -0.009  1.00  0.00     0.045 A 
HETATM    2  C   UNL     1       0.329   1.271  -0.012  1.00  0.00    -0.046 A 
HETATM    3  C   UNL     1       0.372  -1.163   0.003  1.00  0.00     0.018 A 
HETATM    4  C   UNL     1       0.906   2.658   0.015  1.00  0.00     0.049 C 
HETATM    5  C   UNL     1      -1.081   1.196  -0.015  1.00  0.00     0.008 A 
HETATM    6  C   UNL     1      -1.022  -1.209  -0.001  1.00  0.00     0.001 A 
HETATM    7  C   UNL     1      -1.750  -0.027  -0.011  1.00  0.00     0.001 A 
ENDROOT
BRANCH   1   8
HETATM    8  C   UNL     1       2.552  -0.053   0.023  1.00  0.00     0.293 C 
HETATM    9  O   UNL     1       3.134  -0.975   0.571  1.00  0.00    -0.259 OA
BRANCH   8  10
HETATM   10  O   UNL     1       3.139   0.927  -0.704  1.00  0.00    -0.323 OA
HETATM   11  C   UNL     1       4.567   0.863  -0.724  1.00  0.00     0.213 C 
ENDBRANCH   8  10
ENDBRANCH   1   8
TORSDOF 2
