REMARK  2 active torsions:
REMARK  status: ('A' for Active; 'I' for Inactive)
REMARK    1  A    between atoms: C_1  and  C_3 
REMARK    2  A    between atoms: C_2  and  N_7 
ROOT
HETATM    1  C   UNL     1      -1.208   1.115   0.007  1.00  0.00     0.067 A 
HETATM    2  C   UNL     1      -1.233  -0.295   0.007  1.00  0.00     0.043 A 
HETATM    3  C   UNL     1       0.023   1.793   0.030  1.00  0.00     0.021 A 
HETATM    4  C   UNL     1      -0.012  -0.986  -0.022  1.00  0.00     0.037 A 
HETATM    5  C   UNL     1       1.226   1.083   0.040  1.00  0.00     0.008 A 
HETATM    6  C   UNL     1       1.218  -0.312   0.018  1.00  0.00    -0.060 A 
HETATM    7  C   UNL     1       2.497  -1.096   0.033  1.00  0.00     0.048 C 
ENDROOT
BRANCH   1   8
HETATM    8  C   UNL     1      -2.484   1.883   0.042  1.00  0.00     0.211 C 
HETATM    9  O   UNL     1      -3.609   1.417   0.080  1.00  0.00    -0.644 OA
HETATM   10  O   UNL     1      -2.298   3.217   0.082  1.00  0.00    -0.644 OA
ENDBRANCH   1   8
BRANCH   2  11
HETATM   11  N   UNL     1      -2.413  -1.037  -0.190  1.00  0.00    -0.398 N 
HETATM   12  H   UNL     1      -3.287  -0.584  -0.176  1.00  0.00     0.156 HD
HETATM   13  H   UNL     1      -2.364  -2.008  -0.341  1.00  0.00     0.156 HD
ENDBRANCH   2  11
TORSDOF 2
