REMARK  3 active torsions:
REMARK  status: ('A' for Active; 'I' for Inactive)
REMARK    1  A    between atoms: C_1  and  C_7 
REMARK    2  A    between atoms: C_7  and  C_8 
REMARK    3  A    between atoms: C_8  and  O_10 
ROOT
HETATM    1  C   UNL     1       0.669  -1.399  -0.049  1.00  0.00     0.032 A 
HETATM    2  N   UNL     1      -0.721  -1.373  -0.033  1.00  0.00    -0.356 N 
ATOM      3  HN  UNL     1      -1.320  -2.199  -0.042  1.00  0.00     0.166 HD
HETATM    4  S   UNL     1       0.066   1.073   0.038  1.00  0.00    -0.080 SA
HETATM    5  C   UNL     1       1.268  -0.149   0.015  1.00  0.00     0.004 A 
HETATM    6  C   UNL     1      -1.153  -0.131  -0.004  1.00  0.00     0.047 A 
HETATM    7  C   UNL     1       2.708   0.226   0.030  1.00  0.00     0.058 C 
HETATM    8  C   UNL     1      -2.587   0.267  -0.003  1.00  0.00     0.076 C 
ENDROOT
BRANCH   1   9
HETATM    9  C   UNL     1       1.349  -2.731  -0.098  1.00  0.00     0.169 C 
BRANCH   9  10
HETATM   10  C   UNL     1       2.196  -2.908  -1.338  1.00  0.00     0.264 C 
HETATM   11  O   UNL     1       2.349  -2.091  -2.238  1.00  0.00    -0.265 OA
BRANCH  10  12
HETATM   12  O   UNL     1       2.818  -4.125  -1.301  1.00  0.00    -0.326 OA
HETATM   13  C   UNL     1       3.669  -4.360  -2.425  1.00  0.00     0.213 C 
ENDBRANCH  10  12
ENDBRANCH   9  10
ENDBRANCH   1   9
TORSDOF 3
