REMARK  4 active torsions:
REMARK  status: ('A' for Active; 'I' for Inactive)
REMARK    1  A    between atoms: C_2  and  C_5 
REMARK    2  A    between atoms: C_2  and  O_11 
REMARK    3  A    between atoms: N_3  and  C_10 
REMARK    4  A    between atoms: O_11  and  C_14 
ROOT
HETATM    1  C   UNL     1       0.326  -0.644  -0.351  1.00  0.00     0.353 C 
HETATM    2  N   UNL     1      -0.296   0.233   0.116  1.00  0.00    -0.334 N 
ATOM      3  HN  UNL     1      -0.290   0.444   1.114  1.00  0.00     0.168 HD
HETATM    4  O   UNL     1       0.964  -1.509  -0.831  1.00  0.00    -0.283 OA
ENDROOT
BRANCH   2   5
HETATM    5  C   UNL     1      -1.053   0.973  -0.817  1.00  0.00     0.034 A 
HETATM    6  C   UNL     1      -2.255   1.534  -0.366  1.00  0.00     0.030 A 
HETATM    7  C   UNL     1      -3.048   2.322  -1.208  1.00  0.00     0.020 A 
HETATM    8  C   UNL     1      -2.645   2.579  -2.525  1.00  0.00     0.039 A 
HETATM    9  C   UNL     1      -1.448   2.026  -2.990  1.00  0.00     0.020 A 
HETATM   10  C   UNL     1      -0.657   1.239  -2.140  1.00  0.00     0.030 A 
BRANCH   8  11
HETATM   11  C   UNL     1      -3.508   3.458  -3.363  1.00  0.00     0.293 C 
HETATM   12  O   UNL     1      -4.534   3.973  -2.950  1.00  0.00    -0.259 OA
BRANCH  11  13
HETATM   13  O   UNL     1      -2.987   3.604  -4.607  1.00  0.00    -0.318 OA
BRANCH  13  14
HETATM   14  C   UNL     1      -3.711   4.485  -5.480  1.00  0.00     0.174 C 
HETATM   15  C   UNL     1      -4.890   3.769  -6.113  1.00  0.00     0.034 C 
ENDBRANCH  13  14
ENDBRANCH  11  13
ENDBRANCH   8  11
ENDBRANCH   2   5
TORSDOF 4
