REMARK  2 active torsions:
REMARK  status: ('A' for Active; 'I' for Inactive)
REMARK    1  A    between atoms: C_3  and  N_11 
REMARK    2  A    between atoms: C_6  and  N_9 
ROOT
HETATM    1  C   UNL     1       1.546   0.733  -0.069  1.00  0.00     0.353 C 
HETATM    2  O   UNL     1       0.914   1.716  -0.194  1.00  0.00    -0.283 OA
HETATM    3  N   UNL     1       2.167  -0.261   0.029  1.00  0.00    -0.334 N 
ATOM      4  HN  UNL     1       2.166  -0.833   0.874  1.00  0.00     0.168 HD
ENDROOT
BRANCH   3   5
HETATM    5  C   UNL     1       2.913  -0.595  -1.120  1.00  0.00     0.034 A 
HETATM    6  C   UNL     1       4.108  -1.307  -0.925  1.00  0.00     0.032 A 
HETATM    7  C   UNL     1       4.918  -1.681  -2.004  1.00  0.00     0.038 A 
HETATM    8  C   UNL     1       4.520  -1.361  -3.306  1.00  0.00     0.103 A 
HETATM    9  C   UNL     1       3.326  -0.668  -3.531  1.00  0.00     0.038 A 
HETATM   10  C   UNL     1       2.527  -0.296  -2.441  1.00  0.00     0.032 A 
BRANCH   8  11
HETATM   11  N   UNL     1       5.362  -1.750  -4.445  1.00  0.00    -0.116 N 
HETATM   12  O   UNL     1       4.971  -1.446  -5.580  1.00  0.00    -0.532 OA
HETATM   13  O   UNL     1       6.412  -2.361  -4.202  1.00  0.00    -0.532 OA
ENDBRANCH   8  11
ENDBRANCH   3   5
TORSDOF 2
