REMARK  1 active torsions:
REMARK  status: ('A' for Active; 'I' for Inactive)
REMARK    1  A    between atoms: C_1  and  N_3 
ROOT
HETATM    1  C   UNL     1       0.899   2.986   0.518  1.00  0.00     0.353 C 
HETATM    2  N   UNL     1       0.055   2.425  -0.073  1.00  0.00    -0.329 N 
ATOM      3  HN  UNL     1      -0.659   2.921  -0.606  1.00  0.00     0.168 HD
HETATM    4  O   UNL     1       1.738   3.565   1.103  1.00  0.00    -0.283 OA
ENDROOT
BRANCH   2   5
HETATM    5  C   UNL     1       0.097   1.012   0.005  1.00  0.00     0.112 A 
HETATM    6  C   UNL     1      -1.116   0.308   0.001  1.00  0.00     0.146 A 
HETATM    7  F   UNL     1      -2.278   0.982  -0.014  1.00  0.00    -0.204 F 
HETATM    8  C   UNL     1      -1.168  -1.088   0.006  1.00  0.00     0.045 A 
HETATM    9  C   UNL     1       0.013  -1.826   0.013  1.00  0.00     0.006 A 
HETATM   10  C   UNL     1       1.236  -1.160   0.015  1.00  0.00     0.045 A 
HETATM   11  C   UNL     1       1.270   0.237   0.004  1.00  0.00     0.146 A 
HETATM   12  F   UNL     1       2.472   0.831  -0.024  1.00  0.00    -0.204 F 
ENDBRANCH   2   5
TORSDOF 1
