REMARK  2 active torsions:
REMARK  status: ('A' for Active; 'I' for Inactive)
REMARK    1  A    between atoms: C_1  and  C_2 
REMARK    2  A    between atoms: N_6  and  C_12 
ROOT
HETATM    1  C   UNL     1       4.395   0.948   0.563  1.00  0.00     0.353 C 
HETATM    2  N   UNL     1       3.874   0.091  -0.049  1.00  0.00    -0.334 N 
ATOM      3  HN  UNL     1       4.399  -0.605  -0.579  1.00  0.00     0.168 HD
HETATM    4  O   UNL     1       4.909   1.819   1.160  1.00  0.00    -0.283 OA
ENDROOT
BRANCH   2   5
HETATM    5  C   UNL     1       2.467   0.101   0.008  1.00  0.00     0.035 A 
HETATM    6  C   UNL     1       1.673   1.261  -0.014  1.00  0.00     0.047 A 
HETATM    7  C   UNL     1       0.257   1.208  -0.013  1.00  0.00     0.071 A 
HETATM    8  C   UNL     1      -0.359  -0.046  -0.005  1.00  0.00     0.049 A 
HETATM    9  C   UNL     1       0.419  -1.209   0.004  1.00  0.00     0.027 A 
HETATM   10 CL   UNL     1      -2.068  -0.266  -0.011  1.00  0.00    -0.083 Cl
HETATM   11  C   UNL     1       1.815  -1.133   0.008  1.00  0.00     0.031 A 
BRANCH   7  12
HETATM   12  C   UNL     1      -0.477   2.526  -0.020  1.00  0.00     0.419 C 
HETATM   13  F   UNL     1      -1.832   2.469  -0.076  1.00  0.00    -0.166 F 
HETATM   14  F   UNL     1      -0.186   3.264   1.089  1.00  0.00    -0.166 F 
HETATM   15  F   UNL     1      -0.101   3.301  -1.078  1.00  0.00    -0.166 F 
ENDBRANCH   7  12
ENDBRANCH   2   5
TORSDOF 2
