REMARK  1 active torsions:
REMARK  status: ('A' for Active; 'I' for Inactive)
REMARK    1  A    between atoms: C_2  and  N_3 
ROOT
HETATM    1  C   UNL     1       0.878   0.105  -0.055  1.00  0.00     0.353 C 
HETATM    2  N   UNL     1      -0.284  -0.070  -0.086  1.00  0.00    -0.332 N 
ATOM      3  HN  UNL     1      -0.784  -0.314  -0.941  1.00  0.00     0.168 HD
HETATM    4  O   UNL     1       2.040   0.276  -0.038  1.00  0.00    -0.283 OA
ENDROOT
BRANCH   2   5
HETATM    5  C   UNL     1      -0.931   0.086   1.162  1.00  0.00     0.076 A 
HETATM    6  C   UNL     1      -2.038  -0.735   1.417  1.00  0.00     0.074 A 
HETATM    7  C   UNL     1      -2.755  -0.605   2.605  1.00  0.00     0.118 A 
HETATM    8  C   UNL     1      -2.400   0.336   3.564  1.00  0.00     0.045 A 
HETATM    9  F   UNL     1      -3.813  -1.397   2.824  1.00  0.00    -0.206 F 
HETATM   10  C   UNL     1      -1.312   1.171   3.328  1.00  0.00     0.047 A 
HETATM   11  C   UNL     1      -0.596   1.049   2.137  1.00  0.00     0.143 A 
HETATM   12  F   UNL     1       0.427   1.891   1.931  1.00  0.00    -0.204 F 
ENDBRANCH   2   5
TORSDOF 1
