REMARK  1 active torsions:
REMARK  status: ('A' for Active; 'I' for Inactive)
REMARK    1  A    between atoms: C_4  and  N_5 
ROOT
HETATM    1  C   UNL     1      -3.430  -1.709  -0.556  1.00  0.00     0.353 C 
HETATM    2  N   UNL     1      -2.522  -2.179   0.023  1.00  0.00    -0.332 N 
ATOM      3  HN  UNL     1      -2.591  -3.063   0.526  1.00  0.00     0.168 HD
HETATM    4  O   UNL     1      -4.349  -1.260  -1.135  1.00  0.00    -0.283 OA
ENDROOT
BRANCH   2   5
HETATM    5  C   UNL     1      -1.326  -1.427  -0.030  1.00  0.00     0.076 A 
HETATM    6  C   UNL     1      -1.240  -0.020  -0.018  1.00  0.00     0.184 A 
HETATM    7  C   UNL     1      -0.008   0.626  -0.007  1.00  0.00     0.195 A 
HETATM    8  F   UNL     1      -2.357   0.723  -0.001  1.00  0.00    -0.200 F 
HETATM    9  C   UNL     1       1.164  -0.115   0.008  1.00  0.00     0.158 A 
HETATM   10  F   UNL     1       0.045   1.966   0.003  1.00  0.00    -0.199 F 
HETATM   11  C   UNL     1       1.117  -1.504   0.009  1.00  0.00     0.048 A 
HETATM   12  F   UNL     1       2.353   0.501   0.032  1.00  0.00    -0.203 F 
HETATM   13  C   UNL     1      -0.123  -2.153  -0.008  1.00  0.00     0.036 A 
ENDBRANCH   2   5
TORSDOF 1
