REMARK  2 active torsions:
REMARK  status: ('A' for Active; 'I' for Inactive)
REMARK    1  A    between atoms: N_1  and  C_2 
REMARK    2  A    between atoms: N_6  and  C_11 
ROOT
HETATM    1  C   UNL     1      -3.005  -0.102  -3.075  1.00  0.00     0.353 C 
HETATM    2  N   UNL     1      -2.262  -0.929  -3.455  1.00  0.00    -0.334 N 
ATOM      3  HN  UNL     1      -2.343  -1.357  -4.377  1.00  0.00     0.168 HD
HETATM    4  O   UNL     1      -3.737   0.739  -2.704  1.00  0.00    -0.283 OA
ENDROOT
BRANCH   2   5
HETATM    5  C   UNL     1      -1.250  -1.286  -2.540  1.00  0.00     0.036 A 
HETATM    6  C   UNL     1      -0.612  -0.402  -1.659  1.00  0.00     0.066 A 
HETATM    7  C   UNL     1       0.430  -0.861  -0.833  1.00  0.00     0.111 A 
HETATM    8  C   UNL     1       0.858  -2.198  -0.839  1.00  0.00    -0.029 A 
HETATM    9  C   UNL     1       0.232  -3.066  -1.743  1.00  0.00     0.011 A 
HETATM   10  C   UNL     1       1.935  -2.754   0.049  1.00  0.00     0.050 C 
HETATM   11  C   UNL     1      -0.796  -2.613  -2.580  1.00  0.00     0.030 A 
BRANCH   7  12
HETATM   12  N   UNL     1       1.069   0.125   0.023  1.00  0.00    -0.115 N 
HETATM   13  O   UNL     1       0.347   0.705   0.844  1.00  0.00    -0.532 OA
HETATM   14  O   UNL     1       2.277   0.331  -0.153  1.00  0.00    -0.532 OA
ENDBRANCH   7  12
ENDBRANCH   2   5
TORSDOF 2
