REMARK  1 active torsions:
REMARK  status: ('A' for Active; 'I' for Inactive)
REMARK    1  A    between atoms: C_2  and  N_3 
ROOT
HETATM    1  C   UNL     1       0.873   0.089   0.283  1.00  0.00     0.353 C 
HETATM    2  N   UNL     1      -0.273   0.111   0.035  1.00  0.00    -0.332 N 
ATOM      3  HN  UNL     1      -0.742   0.935  -0.341  1.00  0.00     0.168 HD
HETATM    4  O   UNL     1       2.017   0.061   0.562  1.00  0.00    -0.283 OA
ENDROOT
BRANCH   2   5
HETATM    5  C   UNL     1      -0.950  -1.103   0.301  1.00  0.00     0.073 A 
HETATM    6  C   UNL     1      -2.039  -1.455  -0.511  1.00  0.00     0.143 A 
HETATM    7  C   UNL     1      -2.784  -2.613  -0.284  1.00  0.00     0.045 A 
HETATM    8  F   UNL     1      -2.391  -0.667  -1.539  1.00  0.00    -0.204 F 
HETATM    9  C   UNL     1      -2.450  -3.452   0.775  1.00  0.00     0.010 A 
HETATM   10  C   UNL     1      -1.377  -3.132   1.615  1.00  0.00    -0.060 A 
HETATM   11  C   UNL     1      -0.644  -1.957   1.378  1.00  0.00     0.039 A 
HETATM   12  C   UNL     1      -1.023  -4.037   2.759  1.00  0.00     0.048 C 
ENDBRANCH   2   5
TORSDOF 1
