REMARK  1 active torsions:
REMARK  status: ('A' for Active; 'I' for Inactive)
REMARK    1  A    between atoms: N_5  and  C_7 
ROOT
HETATM    1  C   UNL     1      -0.159   1.097  -0.306  1.00  0.00     0.353 C 
HETATM    2  N   UNL     1      -0.147  -0.069  -0.153  1.00  0.00    -0.333 N 
ATOM      3  HN  UNL     1       0.422  -0.526   0.560  1.00  0.00     0.168 HD
HETATM    4  O   UNL     1      -0.205   2.259  -0.466  1.00  0.00    -0.283 OA
ENDROOT
BRANCH   2   5
HETATM    5  C   UNL     1      -0.988  -0.789  -1.039  1.00  0.00     0.055 A 
HETATM    6  C   UNL     1      -0.668  -2.122  -1.373  1.00  0.00     0.071 A 
HETATM    7  C   UNL     1       0.512  -2.761  -0.860  1.00  0.00     0.102 C 
HETATM    8  C   UNL     1      -1.502  -2.867  -2.227  1.00  0.00     0.025 A 
HETATM    9  N   UNL     1       1.451  -3.331  -0.484  1.00  0.00    -0.191 NA
HETATM   10  C   UNL     1      -2.660  -2.301  -2.755  1.00  0.00     0.002 A 
HETATM   11  C   UNL     1      -2.999  -0.994  -2.430  1.00  0.00     0.002 A 
HETATM   12  C   UNL     1      -2.181  -0.252  -1.575  1.00  0.00     0.031 A 
ENDBRANCH   2   5
TORSDOF 1
