REMARK  1 active torsions:
REMARK  status: ('A' for Active; 'I' for Inactive)
REMARK    1  A    between atoms: C_3  and  N_10 
ROOT
HETATM    1  N   UNL     1      -0.790  -2.856  -0.016  1.00  0.00    -0.332 N 
ATOM      2  HN  UNL     1       0.010  -3.311  -0.455  1.00  0.00     0.168 HD
HETATM    3  C   UNL     1      -1.650  -3.463   0.501  1.00  0.00     0.353 C 
HETATM    4  O   UNL     1      -2.522  -4.076   0.997  1.00  0.00    -0.283 OA
ENDROOT
BRANCH   1   5
HETATM    5  C   UNL     1      -0.938  -1.453   0.010  1.00  0.00     0.068 A 
HETATM    6  C   UNL     1      -2.168  -0.769  -0.055  1.00  0.00     0.032 A 
HETATM    7  C   UNL     1      -2.228   0.640  -0.059  1.00  0.00     0.003 A 
HETATM    8  C   UNL     1      -1.064   1.406  -0.012  1.00  0.00     0.010 A 
HETATM    9  C   UNL     1       0.146   0.740   0.020  1.00  0.00    -0.020 A 
HETATM   10  C   UNL     1       0.201  -0.650   0.029  1.00  0.00     0.101 A 
HETATM   11  C   UNL     1       1.516   1.291   0.113  1.00  0.00     0.068 C 
HETATM   12  O   UNL     1       1.494  -1.129   0.076  1.00  0.00    -0.348 OA
HETATM   13  C   UNL     1       2.303   0.029  -0.232  1.00  0.00     0.180 C 
ENDBRANCH   1   5
TORSDOF 1
