REMARK  2 active torsions:
REMARK  status: ('A' for Active; 'I' for Inactive)
REMARK    1  A    between atoms: C_3  and  N_14 
REMARK    2  A    between atoms: C_4  and  C_7 
ROOT
HETATM    1  N   UNL     1       0.393  -2.667   0.117  1.00  0.00    -0.330 N 
ATOM      2  HN  UNL     1      -0.150  -3.319   0.683  1.00  0.00     0.168 HD
HETATM    3  C   UNL     1       1.349  -2.995  -0.473  1.00  0.00     0.353 C 
HETATM    4  O   UNL     1       2.324  -3.333  -1.040  1.00  0.00    -0.283 OA
ENDROOT
BRANCH   1   5
HETATM    5  C   UNL     1       0.046  -1.311  -0.009  1.00  0.00     0.095 A 
HETATM    6  C   UNL     1       0.844  -0.190  -0.048  1.00  0.00     0.101 A 
HETATM    7  O   UNL     1       0.041   0.905  -0.129  1.00  0.00    -0.240 OA
HETATM    8  C   UNL     1       2.288   0.105  -0.004  1.00  0.00     0.081 C 
HETATM    9  N   UNL     1      -1.281   0.523  -0.129  1.00  0.00    -0.258 N 
HETATM   10  C   UNL     1      -1.296  -0.818  -0.027  1.00  0.00     0.094 A 
ATOM     11  HN  UNL     1      -2.092   1.138  -0.194  1.00  0.00     0.195 HD
BRANCH  10  12
HETATM   12  C   UNL     1      -2.562  -1.551   0.052  1.00  0.00    -0.005 A 
HETATM   13  C   UNL     1      -2.655  -2.764   0.748  1.00  0.00     0.014 A 
HETATM   14  C   UNL     1      -3.868  -3.451   0.831  1.00  0.00     0.001 A 
HETATM   15  C   UNL     1      -5.008  -2.928   0.227  1.00  0.00     0.000 A 
HETATM   16  C   UNL     1      -4.936  -1.721  -0.464  1.00  0.00     0.001 A 
HETATM   17  C   UNL     1      -3.720  -1.036  -0.551  1.00  0.00     0.014 A 
ENDBRANCH  10  12
ENDBRANCH   1   5
TORSDOF 2
