REMARK  1 active torsions:
REMARK  status: ('A' for Active; 'I' for Inactive)
REMARK    1  A    between atoms: N_2  and  C_6 
ROOT
HETATM    1  C   UNL     1       0.806  -0.096   0.233  1.00  0.00     0.353 C 
HETATM    2  N   UNL     1      -0.347  -0.084   0.016  1.00  0.00    -0.334 N 
ATOM      3  HN  UNL     1      -0.821   0.713  -0.409  1.00  0.00     0.168 HD
HETATM    4  O   UNL     1       1.959  -0.101   0.468  1.00  0.00    -0.283 OA
ENDROOT
BRANCH   2   5
HETATM    5  C   UNL     1      -1.023  -1.265   0.393  1.00  0.00     0.034 A 
HETATM    6  C   UNL     1      -2.137  -1.637  -0.380  1.00  0.00     0.039 A 
HETATM    7  C   UNL     1      -2.869  -2.757  -0.020  1.00  0.00    -0.021 A 
HETATM    8  C   UNL     1      -2.508  -3.517   1.079  1.00  0.00     0.075 A 
HETATM    9  C   UNL     1      -4.037  -3.383  -0.680  1.00  0.00     0.068 C 
HETATM   10  C   UNL     1      -1.422  -3.193   1.862  1.00  0.00     0.039 A 
HETATM   11  O   UNL     1      -3.320  -4.598   1.294  1.00  0.00    -0.350 OA
HETATM   12  C   UNL     1      -0.688  -2.051   1.524  1.00  0.00     0.032 A 
HETATM   13  C   UNL     1      -4.457  -4.343   0.436  1.00  0.00     0.180 C 
ENDBRANCH   2   5
TORSDOF 1
