REMARK  1 active torsions:
REMARK  status: ('A' for Active; 'I' for Inactive)
REMARK    1  A    between atoms: C_3  and  N_9 
ROOT
HETATM    1  N   UNL     1      -0.044   2.538   0.005  1.00  0.00    -0.331 N 
ATOM      2  HN  UNL     1      -0.821   3.030  -0.437  1.00  0.00     0.168 HD
HETATM    3  C   UNL     1       0.839   3.097   0.538  1.00  0.00     0.353 C 
HETATM    4  O   UNL     1       1.729   3.658   1.064  1.00  0.00    -0.283 OA
ENDROOT
BRANCH   1   5
HETATM    5  C   UNL     1       0.054   1.141   0.025  1.00  0.00     0.090 A 
HETATM    6  C   UNL     1       1.151   0.306   0.012  1.00  0.00     0.101 A 
HETATM    7  O   UNL     1       0.714  -0.984   0.001  1.00  0.00    -0.240 OA
HETATM    8  C   UNL     1       2.616   0.481  -0.000  1.00  0.00     0.081 C 
HETATM    9  N   UNL     1      -0.667  -1.013  -0.003  1.00  0.00    -0.263 N 
HETATM   10  C   UNL     1      -1.062   0.266   0.002  1.00  0.00     0.058 A 
ATOM     11  HN  UNL     1      -1.264  -1.840  -0.009  1.00  0.00     0.194 HD
HETATM   12  C   UNL     1      -2.506   0.593  -0.007  1.00  0.00     0.072 C 
ENDBRANCH   1   5
TORSDOF 1
