REMARK  1 active torsions:
REMARK  status: ('A' for Active; 'I' for Inactive)
REMARK    1  A    between atoms: N_4  and  C_10 
ROOT
HETATM    1  C   UNL     1       0.863   0.079  -0.321  1.00  0.00     0.353 C 
HETATM    2  N   UNL     1      -0.270  -0.053  -0.037  1.00  0.00    -0.334 N 
ATOM      3  HN  UNL     1      -0.725  -0.965   0.004  1.00  0.00     0.168 HD
HETATM    4  O   UNL     1       1.992   0.216  -0.618  1.00  0.00    -0.283 OA
ENDROOT
BRANCH   2   5
HETATM    5  C   UNL     1      -0.952   1.152   0.243  1.00  0.00     0.036 A 
HETATM    6  C   UNL     1      -0.635   2.403  -0.314  1.00  0.00     0.069 A 
HETATM    7  C   UNL     1      -1.386   3.538   0.002  1.00  0.00     0.104 A 
HETATM    8  C   UNL     1      -2.488   3.439   0.851  1.00  0.00     0.102 A 
HETATM    9  O   UNL     1      -0.989   4.714  -0.580  1.00  0.00    -0.346 OA
HETATM   10  C   UNL     1      -2.823   2.208   1.406  1.00  0.00     0.042 A 
HETATM   11  O   UNL     1      -3.281   4.505   1.184  1.00  0.00    -0.346 OA
HETATM   12  C   UNL     1      -2.062   1.074   1.098  1.00  0.00     0.032 A 
HETATM   13  C   UNL     1      -3.065   5.618   0.308  1.00  0.00     0.202 C 
HETATM   14  C   UNL     1      -1.581   5.845   0.066  1.00  0.00     0.202 C 
ENDBRANCH   2   5
TORSDOF 1
