REMARK  4 active torsions:
REMARK  status: ('A' for Active; 'I' for Inactive)
REMARK       I    between atoms: C_1  and  N_2 
REMARK    1  A    between atoms: C_1  and  O_4 
REMARK    2  A    between atoms: O_4  and  C_14 
REMARK    3  A    between atoms: N_5  and  C_13 
REMARK    4  A    between atoms: C_14  and  C_15 
ROOT
HETATM    1  C   UNL     1      -2.800   5.293  -0.163  1.00  0.00     0.348 C 
HETATM    2  N   UNL     1      -2.708   4.122  -0.155  1.00  0.00    -0.363 N 
ATOM      3  HN  UNL     1      -3.441   3.508  -0.511  1.00  0.00     0.162 HD
HETATM    4  O   UNL     1      -2.878   6.463  -0.170  1.00  0.00    -0.284 OA
ENDROOT
BRANCH   2   5
HETATM    5  C   UNL     1      -1.444   3.611   0.413  1.00  0.00     0.086 C 
HETATM    6  C   UNL     1      -1.759   2.248   1.049  1.00  0.00     0.045 C 
HETATM    7  C   UNL     1      -0.496   1.486   1.434  1.00  0.00     0.130 C 
HETATM    8  N   UNL     1       0.404   1.403   0.293  1.00  0.00    -0.328 N 
HETATM    9  C   UNL     1       0.973   0.192  -0.067  1.00  0.00     0.363 C 
HETATM   10  C   UNL     1       0.817   2.682  -0.265  1.00  0.00     0.130 C 
HETATM   11  O   UNL     1       0.825  -0.845   0.570  1.00  0.00    -0.238 OA
HETATM   12  C   UNL     1      -0.397   3.488  -0.707  1.00  0.00     0.045 C 
BRANCH   9  13
HETATM   13  O   UNL     1       1.737   0.288  -1.190  1.00  0.00    -0.299 OA
BRANCH  13  14
HETATM   14  C   UNL     1       2.737  -0.720  -1.346  1.00  0.00     0.219 C 
BRANCH  14  15
HETATM   15  C   UNL     1       2.504  -1.704  -2.470  1.00  0.00    -0.034 A 
HETATM   16  C   UNL     1       3.326  -1.695  -3.609  1.00  0.00     0.009 A 
HETATM   17  C   UNL     1       3.323  -2.777  -4.493  1.00  0.00     0.001 A 
HETATM   18  C   UNL     1       2.488  -3.867  -4.258  1.00  0.00     0.000 A 
HETATM   19  C   UNL     1       1.602  -3.842  -3.182  1.00  0.00     0.001 A 
HETATM   20  C   UNL     1       1.596  -2.758  -2.301  1.00  0.00     0.009 A 
ENDBRANCH  14  15
ENDBRANCH  13  14
ENDBRANCH   9  13
ENDBRANCH   2   5
TORSDOF 4
