REMARK  1 active torsions:
REMARK  status: ('A' for Active; 'I' for Inactive)
REMARK    1  A    between atoms: C_4  and  N_5 
ROOT
HETATM    1  N   UNL     1      -1.423   2.925  -0.028  1.00  0.00    -0.332 N 
ATOM      2  HN  UNL     1      -0.686   3.440  -0.510  1.00  0.00     0.168 HD
HETATM    3  C   UNL     1      -2.304   3.458   0.532  1.00  0.00     0.353 C 
HETATM    4  O   UNL     1      -3.206   3.981   1.077  1.00  0.00    -0.283 OA
ENDROOT
BRANCH   1   5
HETATM    5  C   UNL     1      -1.461   1.519   0.017  1.00  0.00     0.064 A 
HETATM    6  C   UNL     1      -2.619   0.703  -0.015  1.00  0.00     0.032 A 
HETATM    7  C   UNL     1      -2.580  -0.713  -0.019  1.00  0.00     0.005 A 
HETATM    8  C   UNL     1      -1.383  -1.447  -0.005  1.00  0.00     0.032 A 
HETATM    9  C   UNL     1      -0.186  -0.691   0.010  1.00  0.00     0.069 A 
HETATM   10  C   UNL     1      -0.215   0.820   0.020  1.00  0.00     0.094 A 
HETATM   11  N   UNL     1       1.055  -1.201   0.014  1.00  0.00    -0.310 N 
HETATM   12  N   UNL     1       1.019   1.357   0.031  1.00  0.00    -0.309 N 
HETATM   13  S   UNL     1       2.094   0.094   0.022  1.00  0.00     0.068 SA
ATOM     14  HN  UNL     1       1.249   2.351   0.043  1.00  0.00     0.176 HD
ATOM     15  HN  UNL     1       1.310  -2.189   0.012  1.00  0.00     0.176 HD
ENDBRANCH   1   5
TORSDOF 1
