REMARK  2 active torsions:
REMARK  status: ('A' for Active; 'I' for Inactive)
REMARK    1  A    between atoms: C_3  and  N_13 
REMARK    2  A    between atoms: C_5  and  C_7 
ROOT
HETATM    1  N   UNL     1       0.189  -2.652   0.059  1.00  0.00    -0.332 N 
ATOM      2  HN  UNL     1      -0.422  -3.298   0.559  1.00  0.00     0.168 HD
HETATM    3  C   UNL     1       1.168  -3.006  -0.478  1.00  0.00     0.353 C 
HETATM    4  O   UNL     1       2.153  -3.382  -0.999  1.00  0.00    -0.283 OA
ENDROOT
BRANCH   1   5
HETATM    5  C   UNL     1      -0.085  -1.283  -0.032  1.00  0.00     0.066 A 
HETATM    6  C   UNL     1       0.738  -0.174  -0.049  1.00  0.00     0.076 A 
HETATM    7  O   UNL     1      -0.035   0.956  -0.063  1.00  0.00    -0.312 OA
HETATM    8  C   UNL     1       2.194   0.076  -0.021  1.00  0.00     0.079 C 
HETATM    9  C   UNL     1      -1.347   0.569  -0.024  1.00  0.00     0.088 A 
HETATM   10  C   UNL     1      -1.414  -0.809  -0.016  1.00  0.00     0.070 A 
BRANCH   9  11
HETATM   11  C   UNL     1      -2.350   1.630   0.029  1.00  0.00    -0.002 A 
HETATM   12  C   UNL     1      -3.709   1.304   0.170  1.00  0.00     0.014 A 
HETATM   13  C   UNL     1      -4.686   2.300   0.238  1.00  0.00     0.001 A 
HETATM   14  C   UNL     1      -4.319   3.640   0.165  1.00  0.00     0.000 A 
HETATM   15  C   UNL     1      -2.976   3.984   0.026  1.00  0.00     0.001 A 
HETATM   16  C   UNL     1      -1.998   2.986  -0.042  1.00  0.00     0.014 A 
ENDBRANCH   9  11
ENDBRANCH   1   5
TORSDOF 2
