REMARK  2 active torsions:
REMARK  status: ('A' for Active; 'I' for Inactive)
REMARK    1  A    between atoms: N_1  and  C_7 
REMARK    2  A    between atoms: C_3  and  N_14 
ROOT
HETATM    1  N   UNL     1      -0.865  -2.472  -0.223  1.00  0.00    -0.332 N 
ATOM      2  HN  UNL     1      -0.229  -3.259  -0.350  1.00  0.00     0.168 HD
HETATM    3  C   UNL     1      -2.029  -2.602  -0.179  1.00  0.00     0.353 C 
HETATM    4  O   UNL     1      -3.199  -2.725  -0.136  1.00  0.00    -0.283 OA
ENDROOT
BRANCH   1   5
HETATM    5  C   UNL     1      -0.414  -1.154  -0.088  1.00  0.00     0.075 C 
HETATM    6  C   UNL     1       0.921  -0.808  -0.064  1.00  0.00     0.059 C 
HETATM    7  N   UNL     1       0.948   0.580   0.050  1.00  0.00    -0.259 N 
HETATM    8  C   UNL     1       2.115  -1.692  -0.035  1.00  0.00     0.073 C 
HETATM    9  N   UNL     1      -0.300   1.082   0.273  1.00  0.00    -0.302 N 
HETATM   10  C   UNL     1      -1.121   0.043   0.113  1.00  0.00     0.139 C 
ATOM     11  HN  UNL     1      -0.551   2.042   0.510  1.00  0.00     0.186 HD
BRANCH   7  12
HETATM   12  C   UNL     1       2.054   1.473  -0.025  1.00  0.00     0.056 A 
HETATM   13  C   UNL     1       3.186   1.170  -0.792  1.00  0.00     0.031 A 
HETATM   14  C   UNL     1       4.261   2.061  -0.843  1.00  0.00     0.002 A 
HETATM   15  C   UNL     1       4.212   3.257  -0.131  1.00  0.00     0.000 A 
HETATM   16  C   UNL     1       3.078   3.578   0.613  1.00  0.00     0.002 A 
HETATM   17  C   UNL     1       1.994   2.699   0.655  1.00  0.00     0.031 A 
ENDBRANCH   7  12
ENDBRANCH   1   5
TORSDOF 2
