REMARK  2 active torsions:
REMARK  status: ('A' for Active; 'I' for Inactive)
REMARK    1  A    between atoms: C_4  and  N_7 
REMARK    2  A    between atoms: C_5  and  N_13 
ROOT
HETATM    1  N   UNL     1      -1.107  -0.036  -2.517  1.00  0.00    -0.332 N 
ATOM      2  HN  UNL     1      -1.972  -0.515  -2.765  1.00  0.00     0.168 HD
HETATM    3  C   UNL     1      -0.424   0.500  -3.306  1.00  0.00     0.353 C 
HETATM    4  O   UNL     1       0.263   1.021  -4.106  1.00  0.00    -0.283 OA
ENDROOT
BRANCH   1   5
HETATM    5  C   UNL     1      -0.620   0.043  -1.186  1.00  0.00     0.061 A 
HETATM    6  C   UNL     1      -1.505   0.285  -0.096  1.00  0.00     0.057 A 
HETATM    7  C   UNL     1      -0.943   0.267   1.203  1.00  0.00     0.031 A 
HETATM    8  C   UNL     1       0.407  -0.001   1.443  1.00  0.00     0.002 A 
HETATM    9  C   UNL     1       1.253  -0.258   0.380  1.00  0.00     0.002 A 
HETATM   10  C   UNL     1       0.744  -0.241  -0.916  1.00  0.00     0.032 A 
BRANCH   6  11
HETATM   11  N   UNL     1      -2.866   0.559  -0.214  1.00  0.00    -0.379 N 
HETATM   12  C   UNL     1      -3.464   1.232  -1.362  1.00  0.00     0.123 C 
HETATM   13  C   UNL     1      -4.360   2.369  -0.861  1.00  0.00     0.020 C 
HETATM   14  C   UNL     1      -5.347   1.935   0.224  1.00  0.00     0.003 C 
HETATM   15  C   UNL     1      -4.689   1.088   1.312  1.00  0.00     0.020 C 
HETATM   16  C   UNL     1      -3.838  -0.031   0.716  1.00  0.00     0.123 C 
ENDBRANCH   6  11
ENDBRANCH   1   5
TORSDOF 2
