REMARK  2 active torsions:
REMARK  status: ('A' for Active; 'I' for Inactive)
REMARK    1  A    between atoms: C_1  and  C_7 
REMARK    2  A    between atoms: C_10  and  N_13 
ROOT
HETATM    1  N   UNL     1       5.642   4.444  -0.465  1.00  0.00    -0.334 N 
ATOM      2  HN  UNL     1       6.110   4.785   0.375  1.00  0.00     0.168 HD
HETATM    3  C   UNL     1       5.943   4.798  -1.544  1.00  0.00     0.353 C 
HETATM    4  O   UNL     1       6.258   5.139  -2.623  1.00  0.00    -0.283 OA
ENDROOT
BRANCH   1   5
HETATM    5  C   UNL     1       4.585   3.512  -0.419  1.00  0.00     0.034 A 
HETATM    6  C   UNL     1       4.376   2.499  -1.367  1.00  0.00     0.030 A 
HETATM    7  C   UNL     1       3.321   1.591  -1.225  1.00  0.00     0.016 A 
HETATM    8  C   UNL     1       2.460   1.654  -0.122  1.00  0.00    -0.008 A 
HETATM    9  C   UNL     1       2.674   2.650   0.837  1.00  0.00     0.016 A 
HETATM   10  C   UNL     1       3.726   3.565   0.687  1.00  0.00     0.030 A 
BRANCH   8  11
HETATM   11  C   UNL     1       1.381   0.675   0.021  1.00  0.00     0.059 A 
HETATM   12  C   UNL     1       0.770   0.208   1.217  1.00  0.00     0.050 A 
HETATM   13  C   UNL     1      -0.146  -0.738   0.822  1.00  0.00     0.112 A 
HETATM   14  N   UNL     1      -0.051  -0.796  -0.535  1.00  0.00    -0.307 N 
HETATM   15  N   UNL     1       0.853   0.053  -1.047  1.00  0.00    -0.299 N 
HETATM   16  C   UNL     1      -0.756  -1.694  -1.417  1.00  0.00     0.177 C 
ATOM     17  HN  UNL     1       1.088   0.195  -2.029  1.00  0.00     0.187 HD
ENDBRANCH   8  11
ENDBRANCH   1   5
TORSDOF 2
