REMARK  2 active torsions:
REMARK  status: ('A' for Active; 'I' for Inactive)
REMARK    1  A    between atoms: C_1  and  N_10 
REMARK    2  A    between atoms: C_4  and  N_7 
ROOT
HETATM    1  N   UNL     1      -2.868   0.322  -0.134  1.00  0.00    -0.334 N 
ATOM      2  HN  UNL     1      -3.249   1.129  -0.628  1.00  0.00     0.168 HD
HETATM    3  C   UNL     1      -3.549  -0.469   0.404  1.00  0.00     0.353 C 
HETATM    4  O   UNL     1      -4.229  -1.272   0.927  1.00  0.00    -0.283 OA
ENDROOT
BRANCH   1   5
HETATM    5  C   UNL     1      -1.485   0.070  -0.045  1.00  0.00     0.034 A 
HETATM    6  C   UNL     1      -0.904  -1.206  -0.105  1.00  0.00     0.032 A 
HETATM    7  C   UNL     1       0.486  -1.374  -0.039  1.00  0.00     0.032 A 
HETATM    8  C   UNL     1       1.334  -0.265   0.084  1.00  0.00     0.038 A 
HETATM    9  C   UNL     1       0.762   1.014   0.111  1.00  0.00     0.032 A 
HETATM   10  C   UNL     1      -0.630   1.173   0.044  1.00  0.00     0.032 A 
BRANCH   8  11
HETATM   11  N   UNL     1       2.750  -0.438   0.204  1.00  0.00    -0.333 N 
HETATM   12  C   UNL     1       3.443  -1.636   0.163  1.00  0.00     0.096 A 
HETATM   13  C   UNL     1       4.783  -1.400   0.383  1.00  0.00     0.019 A 
HETATM   14  C   UNL     1       4.938  -0.010   0.542  1.00  0.00     0.019 A 
HETATM   15  C   UNL     1       3.689   0.557   0.411  1.00  0.00     0.096 A 
ENDBRANCH   8  11
ENDBRANCH   1   5
TORSDOF 2
