REMARK  1 active torsions:
REMARK  status: ('A' for Active; 'I' for Inactive)
REMARK    1  A    between atoms: C_3  and  N_7 
ROOT
HETATM    1  C   UNL     1       1.119  -0.109   0.249  1.00  0.00     0.353 C 
HETATM    2  O   UNL     1      -0.020  -0.284   0.490  1.00  0.00    -0.283 OA
HETATM    3  N   UNL     1       2.253   0.053  -0.016  1.00  0.00    -0.332 N 
ATOM      4  HN  UNL     1       2.728  -0.457  -0.761  1.00  0.00     0.168 HD
ENDROOT
BRANCH   3   5
HETATM    5  C   UNL     1       2.900   1.019   0.790  1.00  0.00     0.068 A 
HETATM    6  C   UNL     1       3.920   1.788   0.213  1.00  0.00     0.032 A 
HETATM    7  C   UNL     1       4.617   2.760   0.957  1.00  0.00     0.003 A 
HETATM    8  C   UNL     1       4.309   2.985   2.299  1.00  0.00     0.010 A 
HETATM    9  C   UNL     1       3.321   2.211   2.880  1.00  0.00    -0.020 A 
HETATM   10  C   UNL     1       2.650   1.243   2.144  1.00  0.00     0.103 A 
HETATM   11  C   UNL     1       2.785   2.262   4.260  1.00  0.00     0.079 C 
HETATM   12  O   UNL     1       1.729   0.547   2.881  1.00  0.00    -0.338 OA
HETATM   13  C   UNL     1       1.832   1.046   4.239  1.00  0.00     0.065 C 
HETATM   14  C   UNL     1       2.363  -0.100   5.105  1.00  0.00     0.046 C 
HETATM   15  C   UNL     1       0.417   1.429   4.673  1.00  0.00     0.046 C 
ENDBRANCH   3   5
TORSDOF 1
