REMARK  1 active torsions:
REMARK  status: ('A' for Active; 'I' for Inactive)
REMARK    1  A    between atoms: N_7  and  C_13 
ROOT
HETATM    1  C   UNL     1       4.777  -0.527  -0.642  1.00  0.00     0.353 C 
HETATM    2  N   UNL     1       4.161  -1.302  -0.015  1.00  0.00    -0.334 N 
ATOM      3  HN  UNL     1       4.595  -2.071   0.495  1.00  0.00     0.168 HD
HETATM    4  O   UNL     1       5.406   0.263  -1.248  1.00  0.00    -0.283 OA
ENDROOT
BRANCH   2   5
HETATM    5  C   UNL     1       2.765  -1.080  -0.026  1.00  0.00     0.034 A 
HETATM    6  C   UNL     1       2.164   0.187   0.010  1.00  0.00     0.038 A 
HETATM    7  C   UNL     1       0.758   0.375   0.033  1.00  0.00    -0.041 A 
HETATM    8  C   UNL     1      -0.077  -0.758  -0.024  1.00  0.00    -0.043 A 
HETATM    9  C   UNL     1       0.209   1.804   0.080  1.00  0.00    -0.020 C 
HETATM   10  C   UNL     1      -1.606  -0.660  -0.094  1.00  0.00    -0.020 C 
HETATM   11  C   UNL     1       0.533  -2.031  -0.001  1.00  0.00     0.011 A 
HETATM   12  C   UNL     1      -2.107   0.785  -0.337  1.00  0.00     0.015 C 
HETATM   13  C   UNL     1      -2.214  -1.218   1.212  1.00  0.00     0.020 C 
HETATM   14  C   UNL     1      -2.149  -1.497  -1.278  1.00  0.00     0.020 C 
HETATM   15  C   UNL     1      -1.304   1.846   0.392  1.00  0.00     0.015 C 
HETATM   16  C   UNL     1       1.923  -2.187   0.002  1.00  0.00     0.030 A 
HETATM   17  C   UNL     1       0.500   2.482  -1.277  1.00  0.00     0.020 C 
HETATM   18  C   UNL     1       0.891   2.627   1.202  1.00  0.00     0.020 C 
ENDBRANCH   2   5
TORSDOF 1
