REMARK  2 active torsions:
REMARK  status: ('A' for Active; 'I' for Inactive)
REMARK    1  A    between atoms: C_2  and  N_14 
REMARK    2  A    between atoms: C_6  and  C_7 
ROOT
HETATM    1  N   UNL     1      -0.266  -2.534  -0.061  1.00  0.00    -0.327 N 
ATOM      2  HN  UNL     1       0.433  -3.061  -0.585  1.00  0.00     0.169 HD
HETATM    3  C   UNL     1      -1.145  -3.056   0.515  1.00  0.00     0.353 C 
HETATM    4  O   UNL     1      -2.028  -3.597   1.070  1.00  0.00    -0.283 OA
ENDROOT
BRANCH   1   5
HETATM    5  C   UNL     1      -0.245  -1.174   0.020  1.00  0.00     0.100 A 
HETATM    6  S   UNL     1       1.317  -0.422   0.016  1.00  0.00    -0.052 SA
HETATM    7  C   UNL     1       0.606   1.138   0.054  1.00  0.00     0.086 A 
HETATM    8  N   UNL     1      -0.709   1.135   0.067  1.00  0.00    -0.351 N 
HETATM    9  C   UNL     1      -1.207  -0.162   0.042  1.00  0.00     0.040 A 
ATOM     10  HN  UNL     1      -1.288   1.975   0.092  1.00  0.00     0.166 HD
HETATM   11  C   UNL     1      -2.691  -0.274   0.001  1.00  0.00     0.071 C 
BRANCH   7  12
HETATM   12  C   UNL     1       1.431   2.356  -0.022  1.00  0.00    -0.002 A 
HETATM   13  C   UNL     1       2.721   2.434   0.528  1.00  0.00     0.014 A 
HETATM   14  C   UNL     1       3.496   3.588   0.378  1.00  0.00     0.001 A 
HETATM   15  C   UNL     1       2.991   4.685  -0.317  1.00  0.00     0.000 A 
HETATM   16  C   UNL     1       1.702   4.639  -0.841  1.00  0.00     0.001 A 
HETATM   17  C   UNL     1       0.925   3.487  -0.686  1.00  0.00     0.014 A 
ENDBRANCH   7  12
ENDBRANCH   1   5
TORSDOF 2
