REMARK  1 active torsions:
REMARK  status: ('A' for Active; 'I' for Inactive)
REMARK    1  A    between atoms: C_2  and  N_6 
ROOT
HETATM    1  N   UNL     1      -1.664   2.367  -0.002  1.00  0.00    -0.329 N 
ATOM      2  HN  UNL     1      -1.251   3.300  -0.002  1.00  0.00     0.168 HD
HETATM    3  C   UNL     1      -2.829   2.219  -0.003  1.00  0.00     0.353 C 
HETATM    4  O   UNL     1      -4.001   2.116  -0.003  1.00  0.00    -0.283 OA
ENDROOT
BRANCH   1   5
HETATM    5  C   UNL     1      -0.880   1.248  -0.001  1.00  0.00     0.076 A 
HETATM    6  S   UNL     1      -1.434  -0.391  -0.004  1.00  0.00    -0.084 SA
HETATM    7  C   UNL     1       0.149  -1.026  -0.005  1.00  0.00     0.058 A 
HETATM    8  C   UNL     1       1.119  -0.047   0.000  1.00  0.00    -0.053 A 
HETATM    9  C   UNL     1       0.511   1.251   0.002  1.00  0.00     0.044 A 
HETATM   10  C   UNL     1       2.590  -0.301   0.003  1.00  0.00     0.049 C 
ENDBRANCH   1   5
TORSDOF 1
