REMARK  2 active torsions:
REMARK  status: ('A' for Active; 'I' for Inactive)
REMARK    1  A    between atoms: C_3  and  N_14 
REMARK    2  A    between atoms: C_6  and  N_8 
ROOT
HETATM    1  N   UNL     1      -0.847   2.106  -1.316  1.00  0.00    -0.320 N 
ATOM      2  HN  UNL     1      -0.642   3.075  -1.071  1.00  0.00     0.169 HD
HETATM    3  C   UNL     1      -1.529   1.800  -2.220  1.00  0.00     0.354 C 
HETATM    4  O   UNL     1      -2.208   1.537  -3.144  1.00  0.00    -0.283 OA
ENDROOT
BRANCH   1   5
HETATM    5  C   UNL     1      -0.343   1.010  -0.607  1.00  0.00     0.108 A 
HETATM    6  C   UNL     1       0.836   1.158   0.103  1.00  0.00     0.049 A 
HETATM    7  C   UNL     1       1.321   0.069   0.810  1.00  0.00     0.007 A 
HETATM    8  C   UNL     1       0.609  -1.127   0.783  1.00  0.00     0.048 A 
HETATM    9  C   UNL     1      -0.578  -1.225   0.058  1.00  0.00     0.104 A 
HETATM   10  N   UNL     1      -1.040  -0.150  -0.621  1.00  0.00    -0.329 N 
ATOM     11  HN  UNL     1      -1.914  -0.214  -1.144  1.00  0.00     0.169 HD
BRANCH   9  12
HETATM   12  N   UNL     1      -1.255  -2.414  -0.075  1.00  0.00    -0.363 N 
HETATM   13  C   UNL     1      -2.401  -2.498  -0.996  1.00  0.00     0.150 C 
HETATM   14  C   UNL     1      -2.371  -3.879  -1.672  1.00  0.00     0.187 C 
HETATM   15  O   UNL     1      -2.387  -4.945  -0.703  1.00  0.00    -0.388 OA
HETATM   16  C   UNL     1      -1.260  -4.838   0.183  1.00  0.00     0.187 C 
HETATM   17  C   UNL     1      -1.243  -3.489   0.922  1.00  0.00     0.150 C 
ENDBRANCH   9  12
ENDBRANCH   1   5
TORSDOF 2
