REMARK  2 active torsions:
REMARK  status: ('A' for Active; 'I' for Inactive)
REMARK    1  A    between atoms: C_1  and  C_2 
REMARK    2  A    between atoms: C_5  and  N_8 
ROOT
HETATM    1  N   UNL     1       4.764  -5.666  -0.414  1.00  0.00    -0.334 N 
ATOM      2  HN  UNL     1       5.104  -6.142   0.422  1.00  0.00     0.168 HD
HETATM    3  C   UNL     1       5.107  -5.967  -1.496  1.00  0.00     0.353 C 
HETATM    4  O   UNL     1       5.437  -6.284  -2.579  1.00  0.00    -0.283 OA
ENDROOT
BRANCH   1   5
HETATM    5  C   UNL     1       3.848  -4.598  -0.358  1.00  0.00     0.034 A 
HETATM    6  C   UNL     1       2.812  -4.384  -1.283  1.00  0.00     0.030 A 
HETATM    7  C   UNL     1       1.931  -3.304  -1.140  1.00  0.00     0.016 A 
HETATM    8  C   UNL     1       2.051  -2.422  -0.059  1.00  0.00    -0.009 A 
HETATM    9  C   UNL     1       3.062  -2.649   0.882  1.00  0.00     0.016 A 
HETATM   10  C   UNL     1       3.946  -3.724   0.732  1.00  0.00     0.030 A 
BRANCH   8  11
HETATM   11  C   UNL     1       1.159  -1.274   0.044  1.00  0.00     0.049 A 
HETATM   12  C   UNL     1       0.752  -0.714   1.240  1.00  0.00     0.081 A 
HETATM   13  S   UNL     1      -0.235   0.655   0.943  1.00  0.00    -0.087 SA
HETATM   14  C   UNL     1      -0.065   0.394  -0.747  1.00  0.00     0.047 A 
HETATM   15  N   UNL     1       0.663  -0.648  -1.089  1.00  0.00    -0.353 N 
HETATM   16  C   UNL     1      -0.715   1.323  -1.709  1.00  0.00     0.076 C 
ATOM     17  HN  UNL     1       0.837  -0.951  -2.047  1.00  0.00     0.166 HD
ENDBRANCH   8  11
ENDBRANCH   1   5
TORSDOF 2
