REMARK  1 active torsions:
REMARK  status: ('A' for Active; 'I' for Inactive)
REMARK    1  A    between atoms: C_1  and  N_11 
ROOT
HETATM    1  N   UNL     1      -3.992  -0.313  -0.013  1.00  0.00    -0.334 N 
ATOM      2  HN  UNL     1      -4.360  -1.146   0.447  1.00  0.00     0.168 HD
HETATM    3  C   UNL     1      -4.686   0.459  -0.560  1.00  0.00     0.353 C 
HETATM    4  O   UNL     1      -5.390   1.237  -1.091  1.00  0.00    -0.283 OA
ENDROOT
BRANCH   1   5
HETATM    5  C   UNL     1      -2.613  -0.011  -0.034  1.00  0.00     0.035 A 
HETATM    6  C   UNL     1      -2.082   1.288   0.000  1.00  0.00     0.032 A 
HETATM    7  C   UNL     1      -0.700   1.524   0.012  1.00  0.00     0.033 A 
HETATM    8  C   UNL     1       0.157   0.416   0.001  1.00  0.00     0.044 A 
HETATM    9  C   UNL     1      -0.328  -0.893  -0.010  1.00  0.00    -0.006 A 
HETATM   10  N   UNL     1       1.534   0.334  -0.005  1.00  0.00    -0.360 N 
HETATM   11  C   UNL     1      -1.724  -1.100  -0.025  1.00  0.00     0.043 A 
HETATM   12  C   UNL     1       0.800  -1.760  -0.003  1.00  0.00     0.031 A 
HETATM   13  C   UNL     1       1.932  -0.976   0.002  1.00  0.00     0.091 A 
HETATM   14  C   UNL     1       2.427   1.471  -0.037  1.00  0.00     0.155 C 
ENDBRANCH   1   5
TORSDOF 1
