REMARK  1 active torsions:
REMARK  status: ('A' for Active; 'I' for Inactive)
REMARK    1  A    between atoms: C_2  and  N_11 
ROOT
HETATM    1  N   UNL     1      -3.017   2.346  -0.020  1.00  0.00    -0.334 N 
ATOM      2  HN  UNL     1      -3.900   2.257  -0.522  1.00  0.00     0.168 HD
HETATM    3  C   UNL     1      -2.721   3.317   0.569  1.00  0.00     0.353 C 
HETATM    4  O   UNL     1      -2.413   4.297   1.141  1.00  0.00    -0.283 OA
ENDROOT
BRANCH   1   5
HETATM    5  C   UNL     1      -2.059   1.310   0.019  1.00  0.00     0.036 A 
HETATM    6  C   UNL     1      -2.539  -0.004  -0.005  1.00  0.00     0.030 A 
HETATM    7  C   UNL     1      -1.676  -1.109  -0.010  1.00  0.00     0.016 A 
HETATM    8  C   UNL     1      -0.285  -0.897  -0.001  1.00  0.00    -0.008 A 
HETATM    9  C   UNL     1       0.845  -1.759  -0.002  1.00  0.00     0.031 A 
HETATM   10  C   UNL     1       0.195   0.414   0.005  1.00  0.00     0.046 A 
HETATM   11  C   UNL     1       1.974  -0.973  -0.002  1.00  0.00     0.091 A 
HETATM   12  N   UNL     1       1.572   0.336  -0.007  1.00  0.00    -0.360 N 
HETATM   13  C   UNL     1       2.463   1.475  -0.036  1.00  0.00     0.155 C 
HETATM   14  C   UNL     1      -0.666   1.526   0.010  1.00  0.00     0.060 A 
ENDBRANCH   1   5
TORSDOF 1
