REMARK  1 active torsions:
REMARK  status: ('A' for Active; 'I' for Inactive)
REMARK    1  A    between atoms: C_4  and  N_5 
ROOT
HETATM    1  N   UNL     1      -2.154  -2.564  -0.157  1.00  0.00    -0.334 N 
ATOM      2  HN  UNL     1      -2.941  -2.760  -0.776  1.00  0.00     0.168 HD
HETATM    3  C   UNL     1      -1.639  -3.402   0.476  1.00  0.00     0.353 C 
HETATM    4  O   UNL     1      -1.124  -4.272   1.080  1.00  0.00    -0.283 OA
ENDROOT
BRANCH   1   5
HETATM    5  C   UNL     1      -1.623  -1.268  -0.014  1.00  0.00     0.046 A 
HETATM    6  C   UNL     1      -2.516  -0.183  -0.006  1.00  0.00     0.030 A 
HETATM    7  C   UNL     1      -2.063   1.133   0.020  1.00  0.00     0.005 A 
HETATM    8  C   UNL     1      -0.698   1.414   0.029  1.00  0.00     0.030 A 
HETATM    9  C   UNL     1       0.203   0.337   0.015  1.00  0.00     0.046 A 
HETATM   10  C   UNL     1      -0.223  -1.000  -0.005  1.00  0.00     0.019 A 
HETATM   11  N   UNL     1       1.584   0.329  -0.002  1.00  0.00    -0.360 N 
HETATM   12  C   UNL     1       0.964  -1.796  -0.025  1.00  0.00     0.033 A 
HETATM   13  C   UNL     1       2.052  -0.954  -0.010  1.00  0.00     0.092 A 
HETATM   14  C   UNL     1       2.420   1.509  -0.032  1.00  0.00     0.155 C 
ENDBRANCH   1   5
TORSDOF 1
