REMARK  3 active torsions:
REMARK  status: ('A' for Active; 'I' for Inactive)
REMARK    1  A    between atoms: C_2  and  C_13 
REMARK    2  A    between atoms: C_5  and  C_7 
REMARK    3  A    between atoms: C_10  and  N_17 
ROOT
HETATM    1  N   UNL     1      -3.912   4.847   0.451  1.00  0.00    -0.320 N 
ATOM      2  HN  UNL     1      -4.106   5.793   0.779  1.00  0.00     0.169 HD
HETATM    3  C   UNL     1      -4.705   4.169  -0.083  1.00  0.00     0.354 C 
HETATM    4  O   UNL     1      -5.533   3.520  -0.613  1.00  0.00    -0.283 OA
ENDROOT
BRANCH   1   5
HETATM    5  C   UNL     1      -2.671   4.217   0.590  1.00  0.00     0.114 A 
HETATM    6  C   UNL     1      -1.636   4.871   1.221  1.00  0.00     0.100 A 
HETATM    7  S   UNL     1      -0.247   3.875   1.247  1.00  0.00    -0.080 SA
HETATM    8  C   UNL     1      -1.125   2.630   0.435  1.00  0.00     0.086 A 
HETATM    9  N   UNL     1      -2.376   2.943   0.151  1.00  0.00    -0.336 N 
ATOM     10  HN  UNL     1      -3.034   2.327  -0.327  1.00  0.00     0.168 HD
BRANCH   8  11
HETATM   11  C   UNL     1      -0.528   1.305   0.190  1.00  0.00    -0.002 A 
HETATM   12  C   UNL     1      -1.376   0.190   0.085  1.00  0.00     0.015 A 
HETATM   13  C   UNL     1      -0.857  -1.103  -0.038  1.00  0.00     0.017 A 
HETATM   14  C   UNL     1       0.527  -1.314  -0.070  1.00  0.00     0.048 A 
HETATM   15  C   UNL     1       1.378  -0.201  -0.033  1.00  0.00     0.017 A 
HETATM   16  C   UNL     1       0.856   1.092   0.091  1.00  0.00     0.015 A 
BRANCH  14  17
HETATM   17  C   UNL     1       1.077  -2.720  -0.110  1.00  0.00     0.417 C 
HETATM   18  F   UNL     1       2.438  -2.772  -0.112  1.00  0.00    -0.166 F 
HETATM   19  F   UNL     1       0.679  -3.458   0.963  1.00  0.00    -0.166 F 
HETATM   20  F   UNL     1       0.673  -3.411  -1.211  1.00  0.00    -0.166 F 
ENDBRANCH  14  17
ENDBRANCH   8  11
ENDBRANCH   1   5
TORSDOF 3
