REMARK  2 active torsions:
REMARK  status: ('A' for Active; 'I' for Inactive)
REMARK    1  A    between atoms: C_1  and  C_8 
REMARK    2  A    between atoms: C_12  and  N_15 
ROOT
HETATM    1  N   UNL     1       3.928   4.751   1.356  1.00  0.00    -0.334 N 
ATOM      2  HN  UNL     1       3.667   4.671   2.339  1.00  0.00     0.168 HD
HETATM    3  C   UNL     1       4.408   5.727   0.911  1.00  0.00     0.353 C 
HETATM    4  O   UNL     1       4.902   6.694   0.462  1.00  0.00    -0.283 OA
ENDROOT
BRANCH   1   5
HETATM    5  C   UNL     1       3.738   3.699   0.437  1.00  0.00     0.035 A 
HETATM    6  C   UNL     1       4.578   3.432  -0.657  1.00  0.00     0.029 A 
HETATM    7  C   UNL     1       4.340   2.342  -1.495  1.00  0.00     0.003 A 
HETATM    8  C   UNL     1       3.254   1.501  -1.255  1.00  0.00     0.016 A 
HETATM    9  C   UNL     1       2.390   1.741  -0.178  1.00  0.00     0.019 A 
HETATM   10  C   UNL     1       2.660   2.830   0.669  1.00  0.00     0.045 A 
BRANCH   9  11
HETATM   11  C   UNL     1       1.248   0.862   0.039  1.00  0.00     0.182 A 
HETATM   12  O   UNL     1       0.427   1.154   1.094  1.00  0.00    -0.217 OA
HETATM   13  N   UNL     1      -0.550   0.157   1.128  1.00  0.00    -0.247 N 
HETATM   14  C   UNL     1      -0.220  -0.624   0.093  1.00  0.00     0.100 A 
ATOM     15  HN  UNL     1      -1.326   0.050   1.782  1.00  0.00     0.196 HD
HETATM   16  N   UNL     1       0.873  -0.211  -0.623  1.00  0.00    -0.323 N 
HETATM   17  C   UNL     1      -0.924  -1.883  -0.208  1.00  0.00     0.091 C 
ATOM     18  HN  UNL     1       1.289  -0.628  -1.456  1.00  0.00     0.169 HD
ENDBRANCH   9  11
ENDBRANCH   1   5
TORSDOF 2
