REMARK  2 active torsions:
REMARK  status: ('A' for Active; 'I' for Inactive)
REMARK    1  A    between atoms: C_4  and  N_13 
REMARK    2  A    between atoms: C_5  and  C_10 
ROOT
HETATM    1  N   UNL     1      -2.632  -1.551   0.215  1.00  0.00    -0.332 N 
ATOM      2  HN  UNL     1      -3.412  -1.269   0.808  1.00  0.00     0.168 HD
HETATM    3  C   UNL     1      -2.638  -2.529  -0.429  1.00  0.00     0.353 C 
HETATM    4  O   UNL     1      -2.644  -3.522  -1.060  1.00  0.00    -0.283 OA
ENDROOT
BRANCH   1   5
HETATM    5  C   UNL     1      -1.451  -0.803   0.094  1.00  0.00     0.071 A 
HETATM    6  C   UNL     1      -0.122  -1.282   0.066  1.00  0.00     0.064 A 
HETATM    7  C   UNL     1       0.679  -0.162  -0.007  1.00  0.00     0.052 A 
HETATM    8  O   UNL     1      -0.087   0.970  -0.054  1.00  0.00    -0.312 OA
HETATM    9  C   UNL     1       2.144   0.019  -0.027  1.00  0.00     0.077 C 
HETATM   10  C   UNL     1      -1.398   0.576   0.022  1.00  0.00     0.112 A 
BRANCH  10  11
HETATM   11  C   UNL     1      -2.420   1.615  -0.027  1.00  0.00     0.000 A 
HETATM   12  C   UNL     1      -3.649   1.418   0.623  1.00  0.00     0.014 A 
HETATM   13  C   UNL     1      -4.709   2.307   0.446  1.00  0.00     0.001 A 
HETATM   14  C   UNL     1      -4.548   3.421  -0.371  1.00  0.00     0.000 A 
HETATM   15  C   UNL     1      -3.317   3.663  -0.980  1.00  0.00     0.001 A 
HETATM   16  C   UNL     1      -2.254   2.770  -0.803  1.00  0.00     0.014 A 
ENDBRANCH  10  11
ENDBRANCH   1   5
TORSDOF 2
