REMARK  3 active torsions:
REMARK  status: ('A' for Active; 'I' for Inactive)
REMARK    1  A    between atoms: C_5  and  O_8 
REMARK    2  A    between atoms: O_8  and  C_9 
REMARK    3  A    between atoms: C_11  and  N_15 
ROOT
HETATM    1  N   UNL     1       1.715  -5.373   2.468  1.00  0.00    -0.334 N 
ATOM      2  HN  UNL     1       1.777  -6.315   2.854  1.00  0.00     0.168 HD
HETATM    3  C   UNL     1       2.327  -4.471   2.901  1.00  0.00     0.353 C 
HETATM    4  O   UNL     1       2.927  -3.569   3.362  1.00  0.00    -0.283 OA
ENDROOT
BRANCH   1   5
HETATM    5  C   UNL     1       0.885  -5.054   1.371  1.00  0.00     0.036 A 
HETATM    6  C   UNL     1       0.164  -3.858   1.257  1.00  0.00     0.066 A 
HETATM    7  C   UNL     1      -0.607  -3.577   0.120  1.00  0.00     0.080 A 
HETATM    8  C   UNL     1      -0.762  -4.549  -0.867  1.00  0.00     0.037 A 
HETATM    9  C   UNL     1      -0.099  -5.771  -0.743  1.00  0.00     0.005 A 
HETATM   10  C   UNL     1       0.725  -6.013   0.362  1.00  0.00     0.029 A 
BRANCH   7  11
HETATM   11  O   UNL     1      -1.278  -2.382  -0.052  1.00  0.00    -0.294 OA
BRANCH  11  12
HETATM   12  C   UNL     1      -0.643  -1.226   0.396  1.00  0.00     0.147 A 
HETATM   13  N   UNL     1       0.710  -1.191   0.444  1.00  0.00    -0.347 N 
HETATM   14  C   UNL     1       1.279  -0.093   0.978  1.00  0.00     0.090 A 
ATOM     15  HN  UNL     1       1.274  -1.964   0.091  1.00  0.00     0.167 HD
HETATM   16  C   UNL     1       0.558   1.000   1.425  1.00  0.00     0.017 A 
HETATM   17  C   UNL     1      -0.829   0.962   1.319  1.00  0.00     0.006 A 
HETATM   18  C   UNL     1      -1.448  -0.171   0.794  1.00  0.00     0.056 A 
ENDBRANCH  11  12
ENDBRANCH   7  11
ENDBRANCH   1   5
TORSDOF 3
