REMARK  1 active torsions:
REMARK  status: ('A' for Active; 'I' for Inactive)
REMARK    1  A    between atoms: C_2  and  N_7 
ROOT
HETATM    1  N   UNL     1      -0.357  -2.462  -0.158  1.00  0.00    -0.314 N 
ATOM      2  HN  UNL     1      -1.260  -2.844   0.123  1.00  0.00     0.170 HD
HETATM    3  C   UNL     1       0.524  -3.116  -0.573  1.00  0.00     0.354 C 
HETATM    4  O   UNL     1       1.387  -3.795  -0.996  1.00  0.00    -0.283 OA
ENDROOT
BRANCH   1   5
HETATM    5  C   UNL     1      -0.045  -1.142  -0.092  1.00  0.00     0.155 A 
HETATM    6  O   UNL     1       1.254  -0.680  -0.059  1.00  0.00    -0.305 OA
HETATM    7  C   UNL     1       1.231   0.670  -0.007  1.00  0.00     0.145 A 
HETATM    8  C   UNL     1      -0.061   1.123   0.010  1.00  0.00     0.035 A 
HETATM    9  C   UNL     1      -0.891  -0.034  -0.021  1.00  0.00    -0.009 A 
HETATM   10  C   UNL     1      -2.376  -0.022   0.003  1.00  0.00     0.052 C 
ENDBRANCH   1   5
TORSDOF 1
