REMARK  1 active torsions:
REMARK  status: ('A' for Active; 'I' for Inactive)
REMARK    1  A    between atoms: C_3  and  N_7 
ROOT
HETATM    1  N   UNL     1       0.180  -2.666   0.018  1.00  0.00    -0.332 N 
ATOM      2  HN  UNL     1      -0.443  -3.317   0.496  1.00  0.00     0.168 HD
HETATM    3  C   UNL     1       1.152  -3.021  -0.534  1.00  0.00     0.353 C 
HETATM    4  O   UNL     1       2.128  -3.399  -1.071  1.00  0.00    -0.283 OA
ENDROOT
BRANCH   1   5
HETATM    5  C   UNL     1      -0.068  -1.289  -0.023  1.00  0.00     0.065 A 
HETATM    6  C   UNL     1       0.783  -0.199  -0.011  1.00  0.00     0.075 A 
HETATM    7  O   UNL     1       0.039   0.951  -0.002  1.00  0.00    -0.325 OA
HETATM    8  C   UNL     1       2.244   0.018   0.001  1.00  0.00     0.079 C 
HETATM    9  C   UNL     1      -1.269   0.589   0.001  1.00  0.00     0.144 A 
HETATM   10  C   UNL     1      -1.389  -0.779  -0.004  1.00  0.00     0.056 A 
ENDBRANCH   1   5
TORSDOF 1
