REMARK  2 active torsions:
REMARK  status: ('A' for Active; 'I' for Inactive)
REMARK    1  A    between atoms: C_5  and  C_9 
REMARK    2  A    between atoms: C_12  and  N_15 
ROOT
HETATM    1  N   UNL     1       0.518   6.987   0.182  1.00  0.00    -0.334 N 
ATOM      2  HN  UNL     1       0.504   7.530  -0.681  1.00  0.00     0.168 HD
HETATM    3  C   UNL     1       0.639   7.484   1.239  1.00  0.00     0.353 C 
HETATM    4  O   UNL     1       0.743   7.986   2.296  1.00  0.00    -0.283 OA
ENDROOT
BRANCH   1   5
HETATM    5  C   UNL     1       0.394   5.584   0.196  1.00  0.00     0.034 A 
HETATM    6  C   UNL     1      -0.287   4.854   1.181  1.00  0.00     0.030 A 
HETATM    7  C   UNL     1      -0.394   3.461   1.097  1.00  0.00     0.017 A 
HETATM    8  C   UNL     1       0.163   2.740   0.026  1.00  0.00     0.008 A 
HETATM    9  C   UNL     1       0.827   3.483  -0.966  1.00  0.00     0.017 A 
HETATM   10  C   UNL     1       0.934   4.877  -0.884  1.00  0.00     0.030 A 
BRANCH   8  11
HETATM   11  C   UNL     1       0.046   1.272  -0.052  1.00  0.00     0.115 A 
HETATM   12  N   UNL     1      -0.602   0.642   0.949  1.00  0.00    -0.352 N 
HETATM   13  C   UNL     1      -0.723  -0.693   0.843  1.00  0.00     0.091 A 
ATOM     14  HN  UNL     1      -0.981   1.153   1.746  1.00  0.00     0.166 HD
HETATM   15  C   UNL     1      -0.223  -1.416  -0.212  1.00  0.00     0.034 A 
HETATM   16  C   UNL     1       0.429  -0.686  -1.176  1.00  0.00     0.091 A 
HETATM   17  N   UNL     1       0.578   0.650  -1.123  1.00  0.00    -0.352 N 
ATOM     18  HN  UNL     1       1.068   1.165  -1.855  1.00  0.00     0.166 HD
ENDBRANCH   8  11
ENDBRANCH   1   5
TORSDOF 2
