REMARK  2 active torsions:
REMARK  status: ('A' for Active; 'I' for Inactive)
REMARK    1  A    between atoms: C_3  and  C_8 
REMARK    2  A    between atoms: C_12  and  N_14 
ROOT
HETATM    1  N   UNL     1       5.269   2.452  -2.411  1.00  0.00    -0.334 N 
ATOM      2  HN  UNL     1       6.255   2.688  -2.296  1.00  0.00     0.168 HD
HETATM    3  C   UNL     1       4.808   2.157  -3.450  1.00  0.00     0.353 C 
HETATM    4  O   UNL     1       4.354   1.854  -4.491  1.00  0.00    -0.283 OA
ENDROOT
BRANCH   1   5
HETATM    5  C   UNL     1       4.358   2.456  -1.334  1.00  0.00     0.035 A 
HETATM    6  C   UNL     1       3.281   1.564  -1.198  1.00  0.00     0.043 A 
HETATM    7  C   UNL     1       2.428   1.614  -0.084  1.00  0.00    -0.006 A 
HETATM    8  C   UNL     1       2.667   2.563   0.917  1.00  0.00     0.014 A 
HETATM    9  C   UNL     1       3.748   3.435   0.815  1.00  0.00     0.003 A 
HETATM   10  C   UNL     1       4.586   3.376  -0.301  1.00  0.00     0.029 A 
BRANCH   7  11
HETATM   11  C   UNL     1       1.322   0.667   0.039  1.00  0.00     0.059 A 
HETATM   12  N   UNL     1       1.385  -0.561  -0.501  1.00  0.00    -0.299 N 
HETATM   13  N   UNL     1       0.239  -1.152  -0.129  1.00  0.00    -0.307 N 
ATOM     14  HN  UNL     1       2.136  -0.956  -1.067  1.00  0.00     0.187 HD
HETATM   15  C   UNL     1      -0.590  -0.337   0.579  1.00  0.00     0.112 A 
HETATM   16  C   UNL     1       0.021  -2.541  -0.451  1.00  0.00     0.177 C 
HETATM   17  C   UNL     1       0.085   0.852   0.712  1.00  0.00     0.050 A 
ENDBRANCH   7  11
ENDBRANCH   1   5
TORSDOF 2
