REMARK  3 active torsions:
REMARK  status: ('A' for Active; 'I' for Inactive)
REMARK    1  A    between atoms: C_5  and  O_9 
REMARK    2  A    between atoms: O_9  and  C_11 
REMARK    3  A    between atoms: C_14  and  N_17 
ROOT
HETATM    1  N   UNL     1      -6.990  -3.520  -0.431  1.00  0.00    -0.334 N 
ATOM      2  HN  UNL     1      -7.483  -3.938   0.358  1.00  0.00     0.168 HD
HETATM    3  C   UNL     1      -7.526  -3.250  -1.440  1.00  0.00     0.353 C 
HETATM    4  O   UNL     1      -8.061  -2.965  -2.447  1.00  0.00    -0.283 OA
ENDROOT
BRANCH   1   5
HETATM    5  C   UNL     1      -5.612  -3.222  -0.395  1.00  0.00     0.034 A 
HETATM    6  C   UNL     1      -5.024  -2.117  -1.030  1.00  0.00     0.032 A 
HETATM    7  C   UNL     1      -3.652  -1.876  -0.925  1.00  0.00     0.039 A 
HETATM    8  C   UNL     1      -2.848  -2.688  -0.121  1.00  0.00     0.078 A 
HETATM    9  C   UNL     1      -3.414  -3.797   0.507  1.00  0.00     0.039 A 
HETATM   10  C   UNL     1      -4.785  -4.056   0.372  1.00  0.00     0.032 A 
BRANCH   8  11
HETATM   11  O   UNL     1      -1.495  -2.488   0.057  1.00  0.00    -0.292 OA
BRANCH  11  12
HETATM   12  C   UNL     1      -1.036  -1.178   0.089  1.00  0.00     0.164 A 
HETATM   13  C   UNL     1       0.262  -0.924  -0.323  1.00  0.00     0.144 A 
HETATM   14  N   UNL     1       0.768   0.333  -0.394  1.00  0.00    -0.370 N 
HETATM   15  C   UNL     1      -0.088   1.322  -0.039  1.00  0.00     0.112 A 
ATOM     16  HN  UNL     1       1.725   0.520  -0.693  1.00  0.00     0.164 HD
HETATM   17  C   UNL     1      -1.385   1.077   0.395  1.00  0.00     0.022 A 
HETATM   18  N   UNL     1      -1.864  -0.184   0.493  1.00  0.00    -0.338 N 
HETATM   19  C   UNL     1      -2.343   2.178   0.713  1.00  0.00     0.069 C 
ATOM     20  HN  UNL     1      -2.799  -0.377   0.852  1.00  0.00     0.168 HD
ENDBRANCH  11  12
ENDBRANCH   8  11
ENDBRANCH   1   5
TORSDOF 3
