REMARK  4 active torsions:
REMARK  status: ('A' for Active; 'I' for Inactive)
REMARK    1  A    between atoms: C_4  and  N_8 
REMARK    2  A    between atoms: C_6  and  C_7 
REMARK    3  A    between atoms: C_7  and  O_11 
REMARK    4  A    between atoms: O_11  and  C_12 
ROOT
HETATM    1  N   UNL     1       0.854  -2.625  -0.170  1.00  0.00    -0.334 N 
ATOM      2  HN  UNL     1       1.782  -2.811  -0.551  1.00  0.00     0.168 HD
HETATM    3  C   UNL     1       0.040  -3.463  -0.065  1.00  0.00     0.353 C 
HETATM    4  O   UNL     1      -0.770  -4.310   0.054  1.00  0.00    -0.283 OA
ENDROOT
BRANCH   1   5
HETATM    5  C   UNL     1       0.463  -1.341   0.267  1.00  0.00     0.034 A 
HETATM    6  C   UNL     1      -0.475  -1.092   1.283  1.00  0.00     0.029 A 
HETATM    7  C   UNL     1      -0.783   0.215   1.669  1.00  0.00     0.003 A 
HETATM    8  C   UNL     1      -0.119   1.293   1.086  1.00  0.00     0.009 A 
HETATM    9  C   UNL     1       0.880   1.075   0.130  1.00  0.00    -0.032 A 
HETATM   10  C   UNL     1       1.130  -0.241  -0.299  1.00  0.00     0.038 A 
BRANCH   9  11
HETATM   11  C   UNL     1       1.769   2.217  -0.315  1.00  0.00     0.214 C 
BRANCH  11  12
HETATM   12  O   UNL     1       1.374   2.796  -1.557  1.00  0.00    -0.347 OA
BRANCH  12  13
HETATM   13  C   UNL     1       2.203   3.794  -2.021  1.00  0.00     0.069 A 
HETATM   14  C   UNL     1       3.306   4.323  -1.339  1.00  0.00     0.037 A 
HETATM   15  C   UNL     1       4.095   5.320  -1.922  1.00  0.00     0.003 A 
HETATM   16  C   UNL     1       3.787   5.804  -3.189  1.00  0.00     0.000 A 
HETATM   17  C   UNL     1       2.682   5.297  -3.870  1.00  0.00     0.003 A 
HETATM   18  C   UNL     1       1.892   4.300  -3.286  1.00  0.00     0.037 A 
ENDBRANCH  12  13
ENDBRANCH  11  12
ENDBRANCH   9  11
ENDBRANCH   1   5
TORSDOF 4
