REMARK  0 active torsions:
REMARK  status: ('A' for Active; 'I' for Inactive)
ROOT
HETATM    1  S   UNL     1      -0.279   1.025   0.016  1.00  0.00    -0.077 SA
HETATM    2  C   UNL     1      -1.707   0.049   0.011  1.00  0.00     0.076 A 
HETATM    3  C   UNL     1       0.763  -0.329   0.007  1.00  0.00    -0.019 A 
HETATM    4  C   UNL     1      -1.352  -1.293  -0.000  1.00  0.00     0.038 A 
HETATM    5  C   UNL     1       0.056  -1.509  -0.003  1.00  0.00     0.017 A 
HETATM    6  C   UNL     1       2.241  -0.139   0.012  1.00  0.00     0.056 C 
HETATM    7  N   UNL     1      -2.908   0.699   0.019  1.00  0.00    -0.329 N 
ATOM      8  HN  UNL     1      -2.986   1.716   0.025  1.00  0.00     0.168 HD
HETATM    9  C   UNL     1      -3.842  -0.009   0.018  1.00  0.00     0.353 C 
HETATM   10  O   UNL     1      -4.779  -0.723   0.016  1.00  0.00    -0.283 OA
ENDROOT
TORSDOF 0
