REMARK  2 active torsions:
REMARK  status: ('A' for Active; 'I' for Inactive)
REMARK    1  A    between atoms: C_2  and  C_6 
REMARK    2  A    between atoms: C_9  and  N_13 
ROOT
HETATM    1  N   UNL     1      -0.553   6.556   0.167  1.00  0.00    -0.334 N 
ATOM      2  HN  UNL     1      -0.729   7.067  -0.698  1.00  0.00     0.168 HD
HETATM    3  C   UNL     1      -0.639   7.054   1.224  1.00  0.00     0.353 C 
HETATM    4  O   UNL     1      -0.740   7.546   2.289  1.00  0.00    -0.283 OA
ENDROOT
BRANCH   1   5
HETATM    5  C   UNL     1      -0.188   5.196   0.184  1.00  0.00     0.034 A 
HETATM    6  C   UNL     1      -0.597   4.270   1.153  1.00  0.00     0.030 A 
HETATM    7  C   UNL     1      -0.219   2.923   1.068  1.00  0.00     0.015 A 
HETATM    8  C   UNL     1       0.550   2.442  -0.005  1.00  0.00    -0.018 A 
HETATM    9  C   UNL     1       0.930   3.371  -0.984  1.00  0.00     0.015 A 
HETATM   10  C   UNL     1       0.579   4.724  -0.883  1.00  0.00     0.030 A 
BRANCH   8  11
HETATM   11  C   UNL     1       0.914   1.012  -0.122  1.00  0.00     0.032 A 
HETATM   12  S   UNL     1      -0.173  -0.185   0.511  1.00  0.00    -0.100 SA
HETATM   13  C   UNL     1       0.812  -1.481   0.012  1.00  0.00     0.052 A 
HETATM   14  C   UNL     1       1.945  -1.046  -0.631  1.00  0.00     0.027 A 
HETATM   15  C   UNL     1       2.007   0.374  -0.689  1.00  0.00     0.029 A 
HETATM   16 BR   UNL     1       3.539   1.165  -1.480  1.00  0.00    -0.050 Br
ENDBRANCH   8  11
ENDBRANCH   1   5
TORSDOF 2
