REMARK  2 active torsions:
REMARK  status: ('A' for Active; 'I' for Inactive)
REMARK    1  A    between atoms: C_6  and  N_13 
REMARK    2  A    between atoms: C_6  and  C_10 
ROOT
HETATM    1  N   UNL     1       1.602  -0.141   1.819  1.00  0.00    -0.355 N 
ATOM      2  HN  UNL     1       1.919  -1.021   2.226  1.00  0.00     0.163 HD
HETATM    3  C   UNL     1       1.318   0.763   2.513  1.00  0.00     0.349 C 
HETATM    4  O   UNL     1       1.002   1.660   3.199  1.00  0.00    -0.284 OA
ENDROOT
BRANCH   1   5
HETATM    5  C   UNL     1       1.496   0.006   0.333  1.00  0.00     0.063 C 
HETATM    6  C   UNL     1       0.735  -1.265  -0.135  1.00  0.00     0.062 C 
HETATM    7  C   UNL     1      -0.753  -1.188   0.185  1.00  0.00     0.170 C 
HETATM    8  O   UNL     1      -1.329  -0.012  -0.379  1.00  0.00    -0.391 OA
HETATM    9  C   UNL     1      -0.784   1.179   0.178  1.00  0.00     0.170 C 
HETATM   10  C   UNL     1       0.708   1.271  -0.116  1.00  0.00     0.062 C 
BRANCH   5  11
HETATM   11  C   UNL     1       2.899   0.039  -0.327  1.00  0.00    -0.030 A 
HETATM   12  C   UNL     1       3.038   0.068  -1.732  1.00  0.00     0.010 A 
HETATM   13  C   UNL     1       4.291   0.172  -2.343  1.00  0.00     0.001 A 
HETATM   14  C   UNL     1       5.440   0.242  -1.565  1.00  0.00     0.000 A 
HETATM   15  C   UNL     1       5.335   0.189  -0.178  1.00  0.00     0.001 A 
HETATM   16  C   UNL     1       4.080   0.083   0.434  1.00  0.00     0.010 A 
ENDBRANCH   5  11
ENDBRANCH   1   5
TORSDOF 2
