REMARK  3 active torsions:
REMARK  status: ('A' for Active; 'I' for Inactive)
REMARK    1  A    between atoms: C_1  and  N_3 
REMARK    2  A    between atoms: C_5  and  O_8 
REMARK    3  A    between atoms: C_6  and  O_9 
ROOT
HETATM    1  C   UNL     1       3.357  -1.066  -1.112  1.00  0.00     0.353 C 
HETATM    2  N   UNL     1       2.964  -0.650  -0.089  1.00  0.00    -0.330 N 
ATOM      3  HN  UNL     1       3.562  -0.489   0.721  1.00  0.00     0.168 HD
HETATM    4  O   UNL     1       3.780  -1.506  -2.117  1.00  0.00    -0.283 OA
ENDROOT
BRANCH   2   5
HETATM    5  C   UNL     1       1.580  -0.397  -0.097  1.00  0.00     0.101 A 
HETATM    6  C   UNL     1       0.615  -1.435  -0.124  1.00  0.00     0.097 A 
HETATM    7  C   UNL     1      -0.755  -1.141  -0.059  1.00  0.00     0.039 A 
HETATM    8  C   UNL     1      -1.197   0.174   0.049  1.00  0.00     0.006 A 
HETATM    9  C   UNL     1      -0.269   1.205   0.083  1.00  0.00     0.039 A 
HETATM   10  C   UNL     1       1.105   0.934   0.002  1.00  0.00     0.097 A 
BRANCH   6  11
HETATM   11  O   UNL     1       0.874  -2.763  -0.367  1.00  0.00    -0.354 OA
HETATM   12  C   UNL     1       1.832  -3.410   0.462  1.00  0.00     0.210 C 
ENDBRANCH   6  11
BRANCH  10  13
HETATM   13  O   UNL     1       1.863   2.081   0.104  1.00  0.00    -0.354 OA
HETATM   14  C   UNL     1       3.020   2.172  -0.716  1.00  0.00     0.210 C 
ENDBRANCH  10  13
ENDBRANCH   2   5
TORSDOF 3
