REMARK  1 active torsions:
REMARK  status: ('A' for Active; 'I' for Inactive)
REMARK    1  A    between atoms: C_6  and  N_9 
ROOT
HETATM    1  N   UNL     1       3.861  -0.042  -0.013  1.00  0.00    -0.333 N 
ATOM      2  HN  UNL     1       4.333  -0.814  -0.483  1.00  0.00     0.168 HD
HETATM    3  C   UNL     1       4.451   0.811   0.536  1.00  0.00     0.353 C 
HETATM    4  O   UNL     1       5.042   1.673   1.074  1.00  0.00    -0.283 OA
ENDROOT
BRANCH   1   5
HETATM    5  C   UNL     1       2.457   0.072   0.021  1.00  0.00     0.049 A 
HETATM    6  C   UNL     1       1.692  -1.098   0.005  1.00  0.00     0.118 A 
HETATM    7  N   UNL     1       0.337  -1.148  -0.001  1.00  0.00    -0.354 N 
HETATM    8  C   UNL     1      -0.301   0.037  -0.003  1.00  0.00     0.103 A 
ATOM      9  HN  UNL     1      -0.170  -2.033  -0.004  1.00  0.00     0.166 HD
HETATM   10  C   UNL     1       0.341   1.263  -0.001  1.00  0.00     0.044 A 
HETATM   11 CL   UNL     1      -2.011  -0.065  -0.006  1.00  0.00    -0.065 Cl
HETATM   12  C   UNL     1       1.738   1.277   0.005  1.00  0.00     0.034 A 
ENDBRANCH   1   5
TORSDOF 1
