REMARK  1 active torsions:
REMARK  status: ('A' for Active; 'I' for Inactive)
REMARK    1  A    between atoms: C_1  and  N_5 
ROOT
HETATM    1  C   UNL     1       0.166   3.577  -0.586  1.00  0.00     0.353 C 
HETATM    2  N   UNL     1       0.614   2.839   0.211  1.00  0.00    -0.332 N 
ATOM      3  HN  UNL     1       1.218   3.150   0.972  1.00  0.00     0.168 HD
HETATM    4  O   UNL     1      -0.295   4.334  -1.356  1.00  0.00    -0.283 OA
ENDROOT
BRANCH   2   5
HETATM    5  C   UNL     1       0.246   1.475   0.030  1.00  0.00     0.078 A 
HETATM    6  C   UNL     1       1.262   0.490  -0.010  1.00  0.00     0.064 A 
HETATM    7  C   UNL     1       0.964  -0.876  -0.037  1.00  0.00     0.050 A 
HETATM    8 CL   UNL     1       2.936   0.937  -0.002  1.00  0.00    -0.082 Cl
HETATM    9  C   UNL     1      -0.360  -1.293  -0.034  1.00  0.00     0.037 A 
HETATM   10  C   UNL     1      -1.391  -0.357  -0.010  1.00  0.00     0.050 A 
HETATM   11 CL   UNL     1      -0.732  -2.971  -0.027  1.00  0.00    -0.084 Cl
HETATM   12  C   UNL     1      -1.091   1.008   0.035  1.00  0.00     0.064 A 
HETATM   13 CL   UNL     1      -2.447   2.081   0.150  1.00  0.00    -0.082 Cl
ENDBRANCH   2   5
TORSDOF 1
