REMARK  2 active torsions:
REMARK  status: ('A' for Active; 'I' for Inactive)
REMARK    1  A    between atoms: N_2  and  C_5 
REMARK    2  A    between atoms: C_6  and  O_7 
ROOT
HETATM    1  C   UNL     1      -0.354  -0.452  -1.340  1.00  0.00     0.353 C 
HETATM    2  N   UNL     1      -0.295   0.012  -0.265  1.00  0.00    -0.332 N 
ATOM      3  HN  UNL     1       0.240   0.857  -0.065  1.00  0.00     0.168 HD
HETATM    4  O   UNL     1      -0.430  -0.916  -2.419  1.00  0.00    -0.283 OA
ENDROOT
BRANCH   2   5
HETATM    5  C   UNL     1      -1.015  -0.680   0.733  1.00  0.00     0.068 A 
HETATM    6  C   UNL     1      -0.586  -0.673   2.078  1.00  0.00     0.094 A 
HETATM    7  C   UNL     1      -1.354  -1.319   3.065  1.00  0.00     0.039 A 
HETATM    8  C   UNL     1      -2.550  -1.961   2.755  1.00  0.00     0.003 A 
HETATM    9  C   UNL     1      -2.990  -1.979   1.441  1.00  0.00     0.002 A 
HETATM   10  C   UNL     1      -2.236  -1.346   0.447  1.00  0.00     0.032 A 
BRANCH   6  11
HETATM   11  O   UNL     1       0.537  -0.111   2.628  1.00  0.00    -0.354 OA
HETATM   12  C   UNL     1       1.393   0.694   1.838  1.00  0.00     0.210 C 
ENDBRANCH   6  11
ENDBRANCH   2   5
TORSDOF 2
