REMARK  1 active torsions:
REMARK  status: ('A' for Active; 'I' for Inactive)
REMARK    1  A    between atoms: N_2  and  C_5 
ROOT
HETATM    1  C   UNL     1      -0.219  -1.105   0.729  1.00  0.00     0.353 C 
HETATM    2  N   UNL     1      -0.302  -0.124   0.087  1.00  0.00    -0.334 N 
ATOM      3  HN  UNL     1       0.077  -0.047  -0.857  1.00  0.00     0.168 HD
HETATM    4  O   UNL     1      -0.167  -2.086   1.374  1.00  0.00    -0.283 OA
ENDROOT
BRANCH   2   5
HETATM    5  C   UNL     1      -0.972   0.941   0.735  1.00  0.00     0.040 A 
HETATM    6  C   UNL     1      -0.602   2.273   0.441  1.00  0.00    -0.034 A 
HETATM    7  C   UNL     1      -1.242   3.341   1.102  1.00  0.00     0.028 A 
HETATM    8  C   UNL     1       0.474   2.625  -0.553  1.00  0.00     0.050 C 
HETATM    9  C   UNL     1      -2.267   3.099   2.013  1.00  0.00     0.011 A 
HETATM   10  C   UNL     1      -2.680   1.800   2.271  1.00  0.00     0.021 A 
HETATM   11 BR   UNL     1      -3.107   4.543   2.894  1.00  0.00    -0.051 Br
HETATM   12  C   UNL     1      -2.043   0.734   1.632  1.00  0.00     0.031 A 
ENDBRANCH   2   5
TORSDOF 1
