REMARK  2 active torsions:
REMARK  status: ('A' for Active; 'I' for Inactive)
REMARK    1  A    between atoms: C_2  and  N_3 
REMARK    2  A    between atoms: C_7  and  C_11 
ROOT
HETATM    1  C   UNL     1       0.002   0.928  -0.803  1.00  0.00     0.353 C 
HETATM    2  N   UNL     1      -0.126  -0.017  -0.105  1.00  0.00    -0.333 N 
ATOM      3  HN  UNL     1       0.256  -0.051   0.840  1.00  0.00     0.168 HD
HETATM    4  O   UNL     1       0.071   1.887  -1.473  1.00  0.00    -0.283 OA
ENDROOT
BRANCH   2   5
HETATM    5  C   UNL     1      -0.848  -1.103  -0.671  1.00  0.00     0.046 A 
HETATM    6  C   UNL     1      -1.977  -0.967  -1.528  1.00  0.00    -0.035 A 
HETATM    7  C   UNL     1      -2.587  -2.116  -2.070  1.00  0.00     0.009 A 
HETATM    8  C   UNL     1      -2.614   0.341  -1.927  1.00  0.00     0.050 C 
HETATM    9  C   UNL     1      -2.143  -3.391  -1.748  1.00  0.00     0.001 A 
HETATM   10  C   UNL     1      -1.094  -3.542  -0.852  1.00  0.00     0.009 A 
HETATM   11  C   UNL     1      -0.455  -2.418  -0.289  1.00  0.00    -0.031 A 
BRANCH  11  12
HETATM   12  C   UNL     1       0.630  -2.689   0.741  1.00  0.00     0.036 C 
HETATM   13  C   UNL     1       2.016  -2.843   0.136  1.00  0.00     0.010 C 
ENDBRANCH  11  12
ENDBRANCH   2   5
TORSDOF 2
