
 OpenBabel02131616352D

 14 14  0  0  0  0  0  0  0  0999 V2000
    7.6792   -1.3375    0.0000 C   0  0  0  0  0  0  0  0  0  0  0  0
    7.6792   -1.9417    0.0000 C   0  0  0  0  0  0  0  0  0  0  0  0
    7.1625   -1.0375    0.0000 C   0  0  0  0  0  0  0  0  0  0  0  0
    7.1625   -2.2417    0.0000 C   0  0  0  0  0  0  0  0  0  0  0  0
    6.6417   -1.3375    0.0000 C   0  0  0  0  0  0  0  0  0  0  0  0
    6.6417   -1.9417    0.0000 C   0  0  0  0  0  0  0  0  0  0  0  0
    8.2000   -1.0292    0.0000 C   0  0  0  0  0  0  0  0  0  0  0  0
    8.1917   -0.4292    0.0000 O   0  0  0  0  0  0  0  0  0  0  0  0
    7.1542   -0.4375    0.0000 F   0  0  0  0  0  0  0  0  0  0  0  0
    8.2042   -2.2417    0.0000 F   0  0  0  0  0  0  0  0  0  0  0  0
    7.1625   -2.8417    0.0000 F   0  0  0  0  0  0  0  0  0  0  0  0
    6.1250   -1.0417    0.0000 F   0  0  0  0  0  0  0  0  0  0  0  0
    6.1250   -2.2417    0.0000 F   0  0  0  0  0  0  0  0  0  0  0  0
    8.7167   -1.3292    0.0000 Cl  0  0  0  0  0  0  0  0  0  0  0  0
  2  1  1  0  0  0  0
  3  1  2  0  0  0  0
  4  2  2  0  0  0  0
  5  3  1  0  0  0  0
  6  5  2  0  0  0  0
  6  4  1  0  0  0  0
  7  1  1  0  0  0  0
  8  7  2  0  0  0  0
  9  3  1  0  0  0  0
 10  2  1  0  0  0  0
 11  4  1  0  0  0  0
 12  5  1  0  0  0  0
 13  6  1  0  0  0  0
 14  7  1  0  0  0  0
M  END
>  <MOLFORMULA>
C7 Cl F5 O

>  <MOLWEIGHT>
2.305190000000000e+002

>  <code>
AC14712

>  <appearance>
solid

>  <purity>
97%

>  <product_name>
2,3,4,5,6-pentafluorobenzoyl chloride

>  <cansmi>
Fc1c(F)c(C(=O)Cl)c(c(c1F)F)F

>  <HBA2>
1

>  <HBD>
0

>  <logP>
2.7611

>  <TPSA>
17.07

>  <MW>
230.519

$$$$

 OpenBabel02131616352D

 19 20  0  0  0  0  0  0  0  0999 V2000
    5.9859   -3.2096    0.0000 C   0  0  0  0  0  0  0  0  0  0  0  0
    5.2769   -3.6280    0.0000 N   0  0  0  0  0  0  0  0  0  0  0  0
    4.5824   -4.8866    0.0000 C   0  0  0  0  0  0  0  0  0  0  0  0
    5.9870   -2.3925    0.0000 N   0  0  0  0  0  0  0  0  0  0  0  0
    5.2847   -4.4548    0.0000 C   0  0  0  0  0  0  0  0  0  0  0  0
    5.9675    0.0860    0.0000 C   0  0  0  0  0  0  0  0  0  0  0  0
    6.7048   -3.6144    0.0000 N   0  0  0  0  0  0  0  0  0  0  0  0
    6.7022   -1.9632    0.0000 C   0  0  0  0  0  0  0  0  0  0  0  0
    5.2682   -1.9877    0.0000 C   0  0  0  0  0  0  0  0  0  0  0  0
    5.9716   -0.7387    0.0000 C   0  0  0  0  0  0  0  0  0  0  0  0
    5.2528    0.4982    0.0000 O   0  0  0  0  0  0  0  0  0  0  0  0
    3.9371   -5.2597    0.0000 F   0  0  0  0  0  0  0  0  0  0  0  0
    3.7670   -4.5852    0.0000 F   0  0  0  0  0  0  0  0  0  0  0  0
    4.4605   -5.7313    0.0000 F   0  0  0  0  0  0  0  0  0  0  0  0
    5.2645   -1.1535    0.0000 C   0  0  0  0  0  0  0  0  0  0  0  0
    6.6884   -1.1472    0.0000 C   0  0  0  0  0  0  0  0  0  0  0  0
    6.6806    0.5117    0.0000 Cl  0  0  0  0  0  0  0  0  0  0  0  0
    6.0144   -4.8658    0.0000 C   0  0  0  0  0  0  0  0  0  0  0  0
    6.7254   -4.4438    0.0000 C   0  0  0  0  0  0  0  0  0  0  0  0
  2  1  1  0  0  0  0
  3  5  1  0  0  0  0
  4  1  1  0  0  0  0
  5  2  2  0  0  0  0
  5 18  1  0  0  0  0
  6 10  1  0  0  0  0
  7  1  2  0  0  0  0
  8  4  1  0  0  0  0
  9  4  1  0  0  0  0
 10 15  1  0  0  0  0
 11  6  2  0  0  0  0
 12  3  1  0  0  0  0
 13  3  1  0  0  0  0
 14  3  1  0  0  0  0
 15  9  1  0  0  0  0
 16  8  1  0  0  0  0
 16 10  1  0  0  0  0
 17  6  1  0  0  0  0
 18 19  2  0  0  0  0
 19  7  1  0  0  0  0
M  END
>  <MOLFORMULA>
C11 H11 Cl F3 N3 O

>  <MOLWEIGHT>
2.936749000000000e+002

>  <code>
AW01252

>  <appearance>
liquid

>  <purity>
97%

>  <product_name>
1-[4-(trifluoromethyl)pyrimidin-2-yl]piperidine-4-carbonyl chloride

>  <cansmi>
ClC(=O)C1CCN(CC1)c1nccc(n1)C(F)(F)F

>  <HBA2>
4

>  <HBD>
0

>  <logP>
2.5422

>  <TPSA>
46.09

>  <MW>
293.673

$$$$

 OpenBabel02131616352D

 13 14  0  0  0  0  0  0  0  0999 V2000
   -1.5333   -1.1791    0.0000 S   0  0  0  0  0  0  0  0  0  0  0  0
   -0.8640   -0.6967    0.0000 C   0  0  0  0  0  0  0  0  0  0  0  0
   -1.1208    0.0916    0.0000 C   0  0  0  0  0  0  0  0  0  0  0  0
   -2.2026   -0.6967    0.0000 C   0  0  0  0  0  0  0  0  0  0  0  0
   -1.9439    0.0891    0.0000 C   0  0  0  0  0  0  0  0  0  0  0  0
   -2.4945    0.7039    0.0000 C   0  0  0  0  0  0  0  0  0  0  0  0
   -3.3039    0.5342    0.0000 C   0  0  0  0  0  0  0  0  0  0  0  0
   -3.5597   -0.2558    0.0000 C   0  0  0  0  0  0  0  0  0  0  0  0
   -3.0074   -0.8672    0.0000 C   0  0  0  0  0  0  0  0  0  0  0  0
   -0.0798   -0.9528    0.0000 C   0  0  0  0  0  0  0  0  0  0  0  0
    0.0906   -1.7600    0.0000 O   0  0  0  0  0  0  0  0  0  0  0  0
    0.5342   -0.4016    0.0000 Cl  0  0  0  0  0  0  0  0  0  0  0  0
   -0.6372    0.7600    0.0000 Cl  0  0  0  0  0  0  0  0  0  0  0  0
  1  2  1  0  0  0  0
  2  3  2  0  0  0  0
  2 10  1  0  0  0  0
  3  5  1  0  0  0  0
  3 13  1  0  0  0  0
  4  1  1  0  0  0  0
  4  5  2  0  0  0  0
  5  6  1  0  0  0  0
  6  7  2  0  0  0  0
  7  8  1  0  0  0  0
  8  9  2  0  0  0  0
  9  4  1  0  0  0  0
 10 11  2  0  0  0  0
 10 12  1  0  0  0  0
M  END
>  <MOLFORMULA>
C9 H4 Cl2 O S

>  <MOLWEIGHT>
2.311016000000000e+002

>  <code>
BTB00300

>  <appearance>
solid

>  <purity>
97%

>  <product_name>
3-chlorobenzo[b]thiophene-2-carbonyl chloride

>  <cansmi>
ClC(=O)c1sc2c(c1Cl)cccc2

>  <HBA2>
2

>  <HBD>
0

>  <logP>
3.9337

>  <TPSA>
45.31

>  <MW>
231.098

$$$$

 OpenBabel02131616352D

 16 17  0  0  0  0  0  0  0  0999 V2000
    0.0000    0.7708    0.0000 C   0  0  0  0  0  0  0  0  0  0  0  0
    0.0000    2.3125    0.0000 C   0  0  0  0  0  0  0  0  0  0  0  0
    1.3292    3.0833    0.0000 C   0  0  0  0  0  0  0  0  0  0  0  0
    1.3292    0.0000    0.0000 O   0  0  0  0  0  0  0  0  0  0  0  0
   -1.3375    0.0000    0.0000 N   0  0  0  0  0  0  0  0  0  0  0  0
    1.3292    4.6167    0.0000 O   0  0  0  0  0  0  0  0  0  0  0  0
    2.6667    2.3125    0.0000 Cl  0  0  0  0  0  0  0  0  0  0  0  0
    1.3292   -1.5417    0.0000 C   0  0  0  0  0  0  0  0  0  0  0  0
   -1.3375    3.0833    0.0000 C   0  0  0  0  0  0  0  0  0  0  0  0
   -2.6708    0.7708    0.0000 C   0  0  0  0  0  0  0  0  0  0  0  0
    0.0000   -2.3042    0.0000 C   0  0  0  0  0  0  0  0  0  0  0  0
    2.6667   -2.3042    0.0000 C   0  0  0  0  0  0  0  0  0  0  0  0
   -2.6708    2.3125    0.0000 C   0  0  0  0  0  0  0  0  0  0  0  0
    0.0000   -3.8417    0.0000 C   0  0  0  0  0  0  0  0  0  0  0  0
    2.6625   -3.8417    0.0000 C   0  0  0  0  0  0  0  0  0  0  0  0
    1.3292   -4.6167    0.0000 C   0  0  0  0  0  0  0  0  0  0  0  0
  2  1  1  0  0  0  0
  3  2  1  0  0  0  0
  4  1  1  0  0  0  0
  5  1  2  0  0  0  0
  6  3  2  0  0  0  0
  7  3  1  0  0  0  0
  8  4  1  0  0  0  0
  9  2  2  0  0  0  0
  9 13  1  0  0  0  0
 10  5  1  0  0  0  0
 11  8  2  0  0  0  0
 12  8  1  0  0  0  0
 13 10  2  0  0  0  0
 14 11  1  0  0  0  0
 14 16  2  0  0  0  0
 15 12  2  0  0  0  0
 16 15  1  0  0  0  0
M  END
>  <MOLFORMULA>
C12 H8 Cl N O2

>  <MOLWEIGHT>
2.336532000000000e+002

>  <code>
BTB03046

>  <appearance>
solid

>  <purity>
TECH

>  <product_name>
2-phenoxypyridine-3-carbonyl chloride

>  <cansmi>
ClC(=O)c1cccnc1Oc1ccccc1

>  <HBA2>
3

>  <HBD>
0

>  <logP>
3.2529

>  <TPSA>
39.19

>  <MW>
233.65

$$$$

 OpenBabel02131616352D

 13 13  0  0  0  0  0  0  0  0999 V2000
   -1.3250    0.0000    0.0000 C   0  0  0  0  0  0  0  0  0  0  0  0
    0.0042    0.7708    0.0000 C   0  0  0  0  0  0  0  0  0  0  0  0
   -1.3250   -1.5375    0.0000 C   0  0  0  0  0  0  0  0  0  0  0  0
   -2.6625   -2.3042    0.0000 N   0  0  0  0  0  0  0  0  0  0  0  0
    0.0042    2.3083    0.0000 O   0  0  0  0  0  0  0  0  0  0  0  0
    0.0042   -2.3042    0.0000 S   0  0  0  0  0  0  0  0  0  0  0  0
    1.3375    0.0000    0.0000 Cl  0  0  0  0  0  0  0  0  0  0  0  0
   -2.6625    0.7708    0.0000 C   0  0  0  0  0  0  0  0  0  0  0  0
   -3.9958   -1.5375    0.0000 C   0  0  0  0  0  0  0  0  0  0  0  0
    1.3250   -1.5250    0.0000 C   0  0  0  0  0  0  0  0  0  0  0  0
   -3.9958    0.0000    0.0000 C   0  0  0  0  0  0  0  0  0  0  0  0
    2.6667   -2.2792    0.0000 C   0  0  0  0  0  0  0  0  0  0  0  0
    3.9917   -1.4917    0.0000 C   0  0  0  0  0  0  0  0  0  0  0  0
  2  1  1  0  0  0  0
  3  1  1  0  0  0  0
  4  3  2  0  0  0  0
  4  9  1  0  0  0  0
  5  2  2  0  0  0  0
  6  3  1  0  0  0  0
  7  2  1  0  0  0  0
  8  1  2  0  0  0  0
  9 11  2  0  0  0  0
 10  6  1  0  0  0  0
 11  8  1  0  0  0  0
 12 10  1  0  0  0  0
 13 12  1  0  0  0  0
M  END
>  <MOLFORMULA>
C9 H10 Cl N O S

>  <MOLWEIGHT>
2.157030000000000e+002

>  <code>
BTB06371

>  <appearance>
solid

>  <purity>
97%

>  <product_name>
2-(propylthio)pyridine-3-carbonyl chloride

>  <cansmi>
CCCSc1ncccc1C(=O)Cl

>  <HBA2>
3

>  <HBD>
0

>  <logP>
2.9627

>  <TPSA>
55.26

>  <MW>
215.7

$$$$

 OpenBabel02131616352D

 12 12  0  0  0  0  0  0  0  0999 V2000
   -0.6625    0.0000    0.0000 C   0  0  0  0  0  0  0  0  0  0  0  0
    0.6667    0.7708    0.0000 C   0  0  0  0  0  0  0  0  0  0  0  0
   -0.6625   -1.5375    0.0000 C   0  0  0  0  0  0  0  0  0  0  0  0
   -2.0000   -2.3042    0.0000 N   0  0  0  0  0  0  0  0  0  0  0  0
    0.6667    2.3125    0.0000 O   0  0  0  0  0  0  0  0  0  0  0  0
    0.6667   -2.3042    0.0000 S   0  0  0  0  0  0  0  0  0  0  0  0
    2.0042    0.0000    0.0000 Cl  0  0  0  0  0  0  0  0  0  0  0  0
   -2.0000    0.7708    0.0000 C   0  0  0  0  0  0  0  0  0  0  0  0
   -3.3333   -1.5375    0.0000 C   0  0  0  0  0  0  0  0  0  0  0  0
    1.9917   -1.5250    0.0000 C   0  0  0  0  0  0  0  0  0  0  0  0
   -3.3333    0.0000    0.0000 C   0  0  0  0  0  0  0  0  0  0  0  0
    3.3292   -2.2792    0.0000 C   0  0  0  0  0  0  0  0  0  0  0  0
  2  1  1  0  0  0  0
  3  1  1  0  0  0  0
  4  3  2  0  0  0  0
  4  9  1  0  0  0  0
  5  2  2  0  0  0  0
  6  3  1  0  0  0  0
  7  2  1  0  0  0  0
  8  1  2  0  0  0  0
  9 11  2  0  0  0  0
 10  6  1  0  0  0  0
 11  8  1  0  0  0  0
 12 10  1  0  0  0  0
M  END
>  <MOLFORMULA>
C8 H8 Cl N O S

>  <MOLWEIGHT>
2.016762000000000e+002

>  <code>
BTB06382

>  <appearance>
solid

>  <purity>
97%

>  <product_name>
2-(ethylthio)pyridine-3-carbonyl chloride

>  <cansmi>
CCSc1ncccc1C(=O)Cl

>  <HBA2>
3

>  <HBD>
0

>  <logP>
2.5726

>  <TPSA>
55.26

>  <MW>
201.673

$$$$

 OpenBabel02131616352D

 17 18  0  0  0  0  0  0  0  0999 V2000
    0.0042    1.5250    0.0000 C   0  0  0  0  0  0  0  0  0  0  0  0
    0.0042    3.0833    0.0000 C   0  0  0  0  0  0  0  0  0  0  0  0
    1.3167    3.8375    0.0000 C   0  0  0  0  0  0  0  0  0  0  0  0
    1.3417    0.7458    0.0000 S   0  0  0  0  0  0  0  0  0  0  0  0
   -1.3333    0.7458    0.0000 N   0  0  0  0  0  0  0  0  0  0  0  0
    1.2917    5.3292    0.0000 O   0  0  0  0  0  0  0  0  0  0  0  0
    1.3417   -0.7625    0.0000 C   0  0  0  0  0  0  0  0  0  0  0  0
    2.6042    3.0583    0.0000 Cl  0  0  0  0  0  0  0  0  0  0  0  0
    1.3167   -3.8250    0.0000 C   0  0  0  0  0  0  0  0  0  0  0  0
   -1.3333    3.8583    0.0000 C   0  0  0  0  0  0  0  0  0  0  0  0
    0.0250   -1.5042    0.0000 C   0  0  0  0  0  0  0  0  0  0  0  0
    2.6625   -1.5250    0.0000 C   0  0  0  0  0  0  0  0  0  0  0  0
    0.0250   -3.0750    0.0000 C   0  0  0  0  0  0  0  0  0  0  0  0
    2.6625   -3.0250    0.0000 C   0  0  0  0  0  0  0  0  0  0  0  0
   -2.6708    1.5250    0.0000 C   0  0  0  0  0  0  0  0  0  0  0  0
    1.3042   -5.3292    0.0000 C   0  0  0  0  0  0  0  0  0  0  0  0
   -2.6708    3.0833    0.0000 C   0  0  0  0  0  0  0  0  0  0  0  0
  2  1  2  0  0  0  0
  3  2  1  0  0  0  0
  4  1  1  0  0  0  0
  5  1  1  0  0  0  0
  6  3  2  0  0  0  0
  7  4  1  0  0  0  0
  8  3  1  0  0  0  0
  9 14  1  0  0  0  0
 10  2  1  0  0  0  0
 10 17  2  0  0  0  0
 11  7  2  0  0  0  0
 12  7  1  0  0  0  0
 13 11  1  0  0  0  0
 13  9  2  0  0  0  0
 14 12  2  0  0  0  0
 15  5  2  0  0  0  0
 16  9  1  0  0  0  0
 17 15  1  0  0  0  0
M  END
>  <MOLFORMULA>
C13 H10 Cl N O S

>  <MOLWEIGHT>
2.637470000000000e+002

>  <code>
BTB08737

>  <appearance>
solid

>  <purity>
97%

>  <product_name>
2-[(4-methylphenyl)thio]pyridine-3-carbonyl chloride

>  <cansmi>
Cc1ccc(cc1)Sc1ncccc1C(=O)Cl

>  <HBA2>
3

>  <HBD>
0

>  <logP>
3.9202

>  <TPSA>
55.26

>  <MW>
263.743

$$$$

 OpenBabel02131616352D

 17 18  0  0  0  0  0  0  0  0999 V2000
    0.0042    1.5000    0.0000 C   0  0  0  0  0  0  0  0  0  0  0  0
    0.0042    3.0458    0.0000 C   0  0  0  0  0  0  0  0  0  0  0  0
    1.3292    3.8125    0.0000 C   0  0  0  0  0  0  0  0  0  0  0  0
    1.3292    0.7208    0.0000 S   0  0  0  0  0  0  0  0  0  0  0  0
   -1.3333    0.7208    0.0000 N   0  0  0  0  0  0  0  0  0  0  0  0
    1.3292    5.3375    0.0000 O   0  0  0  0  0  0  0  0  0  0  0  0
    1.3292   -0.7792    0.0000 C   0  0  0  0  0  0  0  0  0  0  0  0
    2.6375    3.0458    0.0000 Cl  0  0  0  0  0  0  0  0  0  0  0  0
    1.3167   -3.8167    0.0000 C   0  0  0  0  0  0  0  0  0  0  0  0
    1.3042   -5.3375    0.0000 Cl  0  0  0  0  0  0  0  0  0  0  0  0
   -1.3333    3.8125    0.0000 C   0  0  0  0  0  0  0  0  0  0  0  0
    2.6500   -1.5417    0.0000 C   0  0  0  0  0  0  0  0  0  0  0  0
    0.0250   -1.5292    0.0000 C   0  0  0  0  0  0  0  0  0  0  0  0
    2.6500   -3.0167    0.0000 C   0  0  0  0  0  0  0  0  0  0  0  0
    0.0250   -3.0750    0.0000 C   0  0  0  0  0  0  0  0  0  0  0  0
   -2.6583    1.5000    0.0000 C   0  0  0  0  0  0  0  0  0  0  0  0
   -2.6583    3.0458    0.0000 C   0  0  0  0  0  0  0  0  0  0  0  0
  2  1  2  0  0  0  0
  3  2  1  0  0  0  0
  4  1  1  0  0  0  0
  5  1  1  0  0  0  0
  6  3  2  0  0  0  0
  7  4  1  0  0  0  0
  8  3  1  0  0  0  0
  9 15  2  0  0  0  0
 10  9  1  0  0  0  0
 11  2  1  0  0  0  0
 11 17  2  0  0  0  0
 12  7  1  0  0  0  0
 13  7  2  0  0  0  0
 14 12  2  0  0  0  0
 14  9  1  0  0  0  0
 15 13  1  0  0  0  0
 16  5  2  0  0  0  0
 17 16  1  0  0  0  0
M  END
>  <MOLFORMULA>
C12 H7 Cl2 N O S

>  <MOLWEIGHT>
2.841653000000000e+002

>  <code>
BTB08738

>  <appearance>
solid

>  <purity>
95%

>  <product_name>
2-[(4-chlorophenyl)thio]pyridine-3-carbonyl chloride

>  <cansmi>
Clc1ccc(cc1)Sc1ncccc1C(=O)Cl

>  <HBA2>
3

>  <HBD>
0

>  <logP>
4.2652

>  <TPSA>
55.26

>  <MW>
284.161

$$$$

 OpenBabel02131616352D

 17 18  0  0  0  0  0  0  0  0999 V2000
    0.0000    1.5083    0.0000 C   0  0  0  0  0  0  0  0  0  0  0  0
    0.0000    3.0583    0.0000 C   0  0  0  0  0  0  0  0  0  0  0  0
    1.3250    3.8333    0.0000 C   0  0  0  0  0  0  0  0  0  0  0  0
    1.3250    0.7333    0.0000 O   0  0  0  0  0  0  0  0  0  0  0  0
   -1.3458    0.7333    0.0000 N   0  0  0  0  0  0  0  0  0  0  0  0
    1.3250    5.3542    0.0000 O   0  0  0  0  0  0  0  0  0  0  0  0
    1.3250   -0.8000    0.0000 C   0  0  0  0  0  0  0  0  0  0  0  0
    2.6250    3.0583    0.0000 Cl  0  0  0  0  0  0  0  0  0  0  0  0
    1.3417   -3.8417    0.0000 C   0  0  0  0  0  0  0  0  0  0  0  0
    1.2875   -5.3542    0.0000 Cl  0  0  0  0  0  0  0  0  0  0  0  0
   -1.3458    3.8333    0.0000 C   0  0  0  0  0  0  0  0  0  0  0  0
    2.6417   -1.5250    0.0000 C   0  0  0  0  0  0  0  0  0  0  0  0
    0.0125   -1.5667    0.0000 C   0  0  0  0  0  0  0  0  0  0  0  0
    2.6750   -3.0542    0.0000 C   0  0  0  0  0  0  0  0  0  0  0  0
    0.0667   -3.1250    0.0000 C   0  0  0  0  0  0  0  0  0  0  0  0
   -2.6750    1.5083    0.0000 C   0  0  0  0  0  0  0  0  0  0  0  0
   -2.6750    3.0583    0.0000 C   0  0  0  0  0  0  0  0  0  0  0  0
  2  1  2  0  0  0  0
  3  2  1  0  0  0  0
  4  1  1  0  0  0  0
  5  1  1  0  0  0  0
  6  3  2  0  0  0  0
  7  4  1  0  0  0  0
  8  3  1  0  0  0  0
  9 15  2  0  0  0  0
 10  9  1  0  0  0  0
 11  2  1  0  0  0  0
 11 17  2  0  0  0  0
 12  7  1  0  0  0  0
 13  7  2  0  0  0  0
 14 12  2  0  0  0  0
 14  9  1  0  0  0  0
 15 13  1  0  0  0  0
 16  5  2  0  0  0  0
 17 16  1  0  0  0  0
M  END
>  <MOLFORMULA>
C12 H7 Cl2 N O2

>  <MOLWEIGHT>
2.680983000000000e+002

>  <code>
BTB08739

>  <appearance>
solid

>  <purity>
95%

>  <product_name>
2-(4-chlorophenoxy)pyridine-3-carbonyl chloride

>  <cansmi>
Clc1ccc(cc1)Oc1ncccc1C(=O)Cl

>  <HBA2>
3

>  <HBD>
0

>  <logP>
3.9063

>  <TPSA>
39.19

>  <MW>
268.095

$$$$

 OpenBabel02131616352D

 12 12  0  0  0  0  0  0  0  0999 V2000
    3.3292    0.7708    0.0000 C   0  0  0  0  0  0  0  0  0  0  0  0
    2.0000    0.0000    0.0000 C   0  0  0  0  0  0  0  0  0  0  0  0
    3.3292    2.3125    0.0000 O   0  0  0  0  0  0  0  0  0  0  0  0
    2.0000   -1.5375    0.0000 C   0  0  0  0  0  0  0  0  0  0  0  0
    0.6667    0.7708    0.0000 C   0  0  0  0  0  0  0  0  0  0  0  0
    4.6667    0.0000    0.0000 Cl  0  0  0  0  0  0  0  0  0  0  0  0
    0.6667   -2.3042    0.0000 C   0  0  0  0  0  0  0  0  0  0  0  0
   -0.6708    0.0000    0.0000 C   0  0  0  0  0  0  0  0  0  0  0  0
   -0.6708   -1.5375    0.0000 C   0  0  0  0  0  0  0  0  0  0  0  0
   -2.0083   -2.3042    0.0000 C   0  0  0  0  0  0  0  0  0  0  0  0
   -3.3375   -1.5375    0.0000 C   0  0  0  0  0  0  0  0  0  0  0  0
   -4.6708   -2.3042    0.0000 C   0  0  0  0  0  0  0  0  0  0  0  0
  2  1  1  0  0  0  0
  3  1  2  0  0  0  0
  4  2  1  0  0  0  0
  5  2  2  0  0  0  0
  6  1  1  0  0  0  0
  7  4  2  0  0  0  0
  7  9  1  0  0  0  0
  8  5  1  0  0  0  0
  9  8  2  0  0  0  0
 10  9  1  0  0  0  0
 11 10  1  0  0  0  0
 12 11  1  0  0  0  0
M  END
>  <MOLFORMULA>
C10 H11 Cl O

>  <MOLWEIGHT>
1.826489000000000e+002

>  <code>
BTB09875

>  <appearance>
liquid

>  <purity>
95%

>  <product_name>
4-propylbenzene-1-carbonyl chloride

>  <cansmi>
CCCc1ccc(cc1)C(=O)Cl

>  <HBA2>
1

>  <HBD>
0

>  <logP>
3.0181

>  <TPSA>
17.07

>  <MW>
182.647

$$$$

 OpenBabel02131616352D

 11 11  0  0  0  0  0  0  0  0999 V2000
    2.6542    0.7708    0.0000 C   0  0  0  0  0  0  0  0  0  0  0  0
    1.3250    0.0000    0.0000 C   0  0  0  0  0  0  0  0  0  0  0  0
    2.6542    2.3125    0.0000 O   0  0  0  0  0  0  0  0  0  0  0  0
    1.3250   -1.5375    0.0000 C   0  0  0  0  0  0  0  0  0  0  0  0
    0.0042    0.7708    0.0000 C   0  0  0  0  0  0  0  0  0  0  0  0
    3.9917    0.0083    0.0000 Cl  0  0  0  0  0  0  0  0  0  0  0  0
    0.0042   -2.3042    0.0000 C   0  0  0  0  0  0  0  0  0  0  0  0
   -1.3333    0.0000    0.0000 C   0  0  0  0  0  0  0  0  0  0  0  0
   -1.3333   -1.5375    0.0000 C   0  0  0  0  0  0  0  0  0  0  0  0
   -2.6708   -2.3042    0.0000 C   0  0  0  0  0  0  0  0  0  0  0  0
   -4.0000   -1.5375    0.0000 C   0  0  0  0  0  0  0  0  0  0  0  0
  2  1  1  0  0  0  0
  3  1  2  0  0  0  0
  4  2  1  0  0  0  0
  5  2  2  0  0  0  0
  6  1  1  0  0  0  0
  7  4  2  0  0  0  0
  7  9  1  0  0  0  0
  8  5  1  0  0  0  0
  9  8  2  0  0  0  0
 10  9  1  0  0  0  0
 11 10  1  0  0  0  0
M  END
>  <MOLFORMULA>
C9 H9 Cl O

>  <MOLWEIGHT>
1.686221000000000e+002

>  <code>
BTB10319

>  <appearance>
liquid

>  <purity>
97%

>  <product_name>
4-ethylbenzene-1-carbonyl chloride

>  <cansmi>
CCc1ccc(cc1)C(=O)Cl

>  <HBA2>
1

>  <HBD>
0

>  <logP>
2.628

>  <TPSA>
17.07

>  <MW>
168.62

$$$$

 OpenBabel02131616352D

 15 16  0  0  0  0  0  0  0  0999 V2000
    9.0167    1.7250    0.0000 C   0  0  0  0  0  0  0  0  0  0  0  0
    8.5667    1.4583    0.0000 S   0  0  0  0  0  0  0  0  0  0  0  0
    8.1125    2.2583    0.0000 N   0  0  0  0  0  0  0  0  0  0  0  0
    8.1125    1.7250    0.0000 C   0  0  0  0  0  0  0  0  0  0  0  0
    9.0167    2.2500    0.0000 C   0  0  0  0  0  0  0  0  0  0  0  0
    9.4750    1.4625    0.0000 C   0  0  0  0  0  0  0  0  0  0  0  0
    7.6542    1.4625    0.0000 C   0  0  0  0  0  0  0  0  0  0  0  0
    9.4750    0.9375    0.0000 O   0  0  0  0  0  0  0  0  0  0  0  0
    9.9292    1.7250    0.0000 Cl  0  0  0  0  0  0  0  0  0  0  0  0
    9.5375    2.5583    0.0000 C   0  0  0  0  0  0  0  0  0  0  0  0
    7.6542    0.9333    0.0000 C   0  0  0  0  0  0  0  0  0  0  0  0
    7.1917    1.7333    0.0000 C   0  0  0  0  0  0  0  0  0  0  0  0
    6.7375    1.4708    0.0000 C   0  0  0  0  0  0  0  0  0  0  0  0
    7.1917    0.6708    0.0000 C   0  0  0  0  0  0  0  0  0  0  0  0
    6.7292    0.9375    0.0000 C   0  0  0  0  0  0  0  0  0  0  0  0
  2  1  1  0  0  0  0
  3  5  1  0  0  0  0
  4  2  1  0  0  0  0
  4  3  2  0  0  0  0
  5  1  2  0  0  0  0
  6  1  1  0  0  0  0
  7  4  1  0  0  0  0
  8  6  2  0  0  0  0
  9  6  1  0  0  0  0
 10  5  1  0  0  0  0
 11  7  1  0  0  0  0
 12  7  2  0  0  0  0
 13 12  1  0  0  0  0
 14 11  2  0  0  0  0
 15 13  2  0  0  0  0
 15 14  1  0  0  0  0
M  END
>  <MOLFORMULA>
C11 H8 Cl N O S

>  <MOLWEIGHT>
2.377092000000000e+002

>  <code>
CC00041

>  <appearance>
solid

>  <purity>
97%

>  <product_name>
4-methyl-2-phenyl-1,3-thiazole-5-carbonyl chloride

>  <cansmi>
ClC(=O)c1sc(nc1C)c1ccccc1

>  <HBA2>
3

>  <HBD>
0

>  <logP>
3.4975

>  <TPSA>
58.2

>  <MW>
237.705

$$$$

 OpenBabel02131616352D

 16 17  0  0  0  0  0  0  0  0999 V2000
   -1.5083   -2.4708    0.0000 N   0  0  0  0  0  0  0  0  0  0  0  0
   -0.8390   -1.9883    0.0000 C   0  0  0  0  0  0  0  0  0  0  0  0
   -1.0958   -1.2000    0.0000 C   0  0  0  0  0  0  0  0  0  0  0  0
   -1.9208   -1.2000    0.0000 C   0  0  0  0  0  0  0  0  0  0  0  0
   -2.1776   -1.9883    0.0000 N   0  0  0  0  0  0  0  0  0  0  0  0
   -1.5083   -3.2958    0.0000 C   0  0  0  0  0  0  0  0  0  0  0  0
   -2.2251   -3.7064    0.0000 C   0  0  0  0  0  0  0  0  0  0  0  0
   -2.2255   -4.5306    0.0000 C   0  0  0  0  0  0  0  0  0  0  0  0
   -1.5105   -4.9440    0.0000 C   0  0  0  0  0  0  0  0  0  0  0  0
   -0.7936   -4.5270    0.0000 C   0  0  0  0  0  0  0  0  0  0  0  0
   -0.7968   -3.7042    0.0000 C   0  0  0  0  0  0  0  0  0  0  0  0
   -0.0548   -2.2444    0.0000 C   0  0  0  0  0  0  0  0  0  0  0  0
   -0.6111   -0.5324    0.0000 C   0  0  0  0  0  0  0  0  0  0  0  0
    0.2094   -0.6183    0.0000 Cl  0  0  0  0  0  0  0  0  0  0  0  0
   -0.9470    0.2212    0.0000 O   0  0  0  0  0  0  0  0  0  0  0  0
   -1.5094   -5.7690    0.0000 Cl  0  0  0  0  0  0  0  0  0  0  0  0
  1  6  1  0  0  0  0
  1  2  1  0  0  0  0
  2 12  1  0  0  0  0
  2  3  2  0  0  0  0
  3  4  1  0  0  0  0
  3 13  1  0  0  0  0
  4  5  2  0  0  0  0
  5  1  1  0  0  0  0
  6  7  2  0  0  0  0
  7  8  1  0  0  0  0
  8  9  2  0  0  0  0
  9 10  1  0  0  0  0
  9 16  1  0  0  0  0
 10 11  2  0  0  0  0
 11  6  1  0  0  0  0
 13 14  1  0  0  0  0
 13 15  2  0  0  0  0
M  END
>  <MOLFORMULA>
C11 H8 Cl2 N2 O

>  <MOLWEIGHT>
2.551032000000000e+002

>  <code>
CC00081

>  <appearance>
solid

>  <purity>
97%

>  <product_name>
1-(4-chlorophenyl)-5-methyl-1H-pyrazole-4-carbonyl chloride

>  <cansmi>
Clc1ccc(cc1)n1ncc(c1C)C(=O)Cl

>  <HBA2>
3

>  <HBD>
0

>  <logP>
3.2131

>  <TPSA>
34.89

>  <MW>
255.1

$$$$

 OpenBabel02131616352D

 16 17  0  0  0  0  0  0  0  0999 V2000
   -1.3500   -1.8125    0.0000 N   0  0  0  0  0  0  0  0  0  0  0  0
   -0.6807   -1.3300    0.0000 C   0  0  0  0  0  0  0  0  0  0  0  0
   -0.9375   -0.5417    0.0000 C   0  0  0  0  0  0  0  0  0  0  0  0
   -1.7625   -0.5417    0.0000 C   0  0  0  0  0  0  0  0  0  0  0  0
   -2.0193   -1.3300    0.0000 N   0  0  0  0  0  0  0  0  0  0  0  0
   -1.3500   -2.6375    0.0000 C   0  0  0  0  0  0  0  0  0  0  0  0
   -2.0668   -3.0481    0.0000 C   0  0  0  0  0  0  0  0  0  0  0  0
   -2.0672   -3.8723    0.0000 C   0  0  0  0  0  0  0  0  0  0  0  0
   -1.3522   -4.2857    0.0000 C   0  0  0  0  0  0  0  0  0  0  0  0
   -0.6353   -3.8687    0.0000 C   0  0  0  0  0  0  0  0  0  0  0  0
   -0.6385   -3.0459    0.0000 C   0  0  0  0  0  0  0  0  0  0  0  0
    0.1035   -1.5861    0.0000 C   0  0  0  0  0  0  0  0  0  0  0  0
   -0.4528    0.1259    0.0000 C   0  0  0  0  0  0  0  0  0  0  0  0
    0.3677    0.0400    0.0000 Cl  0  0  0  0  0  0  0  0  0  0  0  0
   -0.7887    0.8795    0.0000 O   0  0  0  0  0  0  0  0  0  0  0  0
   -1.3511   -5.1107    0.0000 F   0  0  0  0  0  0  0  0  0  0  0  0
  1  6  1  0  0  0  0
  1  2  1  0  0  0  0
  2 12  1  0  0  0  0
  2  3  2  0  0  0  0
  3  4  1  0  0  0  0
  3 13  1  0  0  0  0
  4  5  2  0  0  0  0
  5  1  1  0  0  0  0
  6  7  2  0  0  0  0
  7  8  1  0  0  0  0
  8  9  2  0  0  0  0
  9 10  1  0  0  0  0
  9 16  1  0  0  0  0
 10 11  2  0  0  0  0
 11  6  1  0  0  0  0
 13 14  1  0  0  0  0
 13 15  2  0  0  0  0
M  END
>  <MOLFORMULA>
C11 H8 Cl F N2 O

>  <MOLWEIGHT>
2.386482000000000e+002

>  <code>
CC00119

>  <appearance>
solid

>  <purity>
97%

>  <product_name>
1-(4-fluorophenyl)-5-methyl-1H-pyrazole-4-carbonyl chloride

>  <cansmi>
Fc1ccc(cc1)n1ncc(c1C)C(=O)Cl

>  <HBA2>
3

>  <HBD>
0

>  <logP>
2.6988

>  <TPSA>
34.89

>  <MW>
238.645

$$$$

 OpenBabel02131616352D

 14 15  0  0  0  0  0  0  0  0999 V2000
   13.3000   -4.8292    0.0000 C   0  0  0  0  0  0  0  0  0  0  0  0
   12.7792   -5.1417    0.0000 C   0  0  0  0  0  0  0  0  0  0  0  0
   13.2917   -4.2292    0.0000 C   0  0  0  0  0  0  0  0  0  0  0  0
   12.7917   -5.7417    0.0000 C   0  0  0  0  0  0  0  0  0  0  0  0
   12.3042   -4.7750    0.0000 O   0  0  0  0  0  0  0  0  0  0  0  0
   12.3292   -6.1292    0.0000 O   0  0  0  0  0  0  0  0  0  0  0  0
   12.7667   -3.9417    0.0000 O   0  0  0  0  0  0  0  0  0  0  0  0
   13.8042   -3.9250    0.0000 Cl  0  0  0  0  0  0  0  0  0  0  0  0
   13.8250   -5.1250    0.0000 C   0  0  0  0  0  0  0  0  0  0  0  0
   11.4667   -5.4667    0.0000 C   0  0  0  0  0  0  0  0  0  0  0  0
   11.7167   -4.9167    0.0000 C   0  0  0  0  0  0  0  0  0  0  0  0
   13.8375   -5.7292    0.0000 C   0  0  0  0  0  0  0  0  0  0  0  0
   11.7417   -6.0042    0.0000 C   0  0  0  0  0  0  0  0  0  0  0  0
   13.3167   -6.0375    0.0000 C   0  0  0  0  0  0  0  0  0  0  0  0
  2  1  1  0  0  0  0
  3  1  1  0  0  0  0
  4  2  2  0  0  0  0
  5  2  1  0  0  0  0
  6  4  1  0  0  0  0
  7  3  2  0  0  0  0
  8  3  1  0  0  0  0
  9  1  2  0  0  0  0
 10 11  1  0  0  0  0
 10 13  1  0  0  0  0
 11  5  1  0  0  0  0
 12  9  1  0  0  0  0
 13  6  1  0  0  0  0
 14 12  2  0  0  0  0
 14  4  1  0  0  0  0
M  END
>  <MOLFORMULA>
C10 H9 Cl O3

>  <MOLWEIGHT>
2.126311000000000e+002

>  <code>
CC00402

>  <appearance>
solid

>  <purity>
97%

>  <product_name>
3,4-dihydro-2H-1,5-benzodioxepine-6-carbonyl chloride

>  <cansmi>
ClC(=O)c1cccc2c1OCCCO2

>  <HBA2>
3

>  <HBD>
0

>  <logP>
2.2269

>  <TPSA>
35.53

>  <MW>
212.63

$$$$

 OpenBabel02131616352D

 15 16  0  0  0  0  0  0  0  0999 V2000
   -0.8292   -2.9875    0.0000 O   0  0  0  0  0  0  0  0  0  0  0  0
   -0.1599   -2.5050    0.0000 C   0  0  0  0  0  0  0  0  0  0  0  0
   -0.4167   -1.7167    0.0000 C   0  0  0  0  0  0  0  0  0  0  0  0
   -1.2417   -1.7167    0.0000 C   0  0  0  0  0  0  0  0  0  0  0  0
   -1.4985   -2.5050    0.0000 N   0  0  0  0  0  0  0  0  0  0  0  0
   -1.7263   -1.0491    0.0000 C   0  0  0  0  0  0  0  0  0  0  0  0
   -1.3900   -0.2981    0.0000 C   0  0  0  0  0  0  0  0  0  0  0  0
   -1.8740    0.3691    0.0000 C   0  0  0  0  0  0  0  0  0  0  0  0
   -2.6954    0.2835    0.0000 C   0  0  0  0  0  0  0  0  0  0  0  0
   -3.0306   -0.4750    0.0000 C   0  0  0  0  0  0  0  0  0  0  0  0
   -2.5446   -1.1390    0.0000 C   0  0  0  0  0  0  0  0  0  0  0  0
    0.6244   -2.7611    0.0000 C   0  0  0  0  0  0  0  0  0  0  0  0
    0.0680   -1.0491    0.0000 C   0  0  0  0  0  0  0  0  0  0  0  0
    0.8885   -1.1350    0.0000 Cl  0  0  0  0  0  0  0  0  0  0  0  0
   -0.2678   -0.2955    0.0000 O   0  0  0  0  0  0  0  0  0  0  0  0
  1  2  1  0  0  0  0
  2  3  2  0  0  0  0
  2 12  1  0  0  0  0
  3  4  1  0  0  0  0
  3 13  1  0  0  0  0
  4  6  1  0  0  0  0
  4  5  2  0  0  0  0
  5  1  1  0  0  0  0
  6  7  2  0  0  0  0
  7  8  1  0  0  0  0
  8  9  2  0  0  0  0
  9 10  1  0  0  0  0
 10 11  2  0  0  0  0
 11  6  1  0  0  0  0
 13 14  1  0  0  0  0
 13 15  2  0  0  0  0
M  END
>  <MOLFORMULA>
C11 H8 Cl N O2

>  <MOLWEIGHT>
2.216422000000000e+002

>  <code>
CC00502

>  <appearance>
solid

>  <purity>
90%

>  <product_name>
5-methyl-3-phenylisoxazole-4-carbonyl chloride

>  <cansmi>
ClC(=O)c1c(C)onc1c1ccccc1

>  <HBA2>
3

>  <HBD>
0

>  <logP>
3.029

>  <TPSA>
43.1

>  <MW>
221.64

$$$$

 OpenBabel02131616352D

 10 10  0  0  0  0  0  0  0  0999 V2000
   -2.0167   -1.7666    0.0000 O   0  0  0  0  0  0  0  0  0  0  0  0
   -1.3474   -1.2842    0.0000 C   0  0  0  0  0  0  0  0  0  0  0  0
   -1.6042   -0.4959    0.0000 C   0  0  0  0  0  0  0  0  0  0  0  0
   -2.4292   -0.4959    0.0000 C   0  0  0  0  0  0  0  0  0  0  0  0
   -2.6860   -1.2842    0.0000 N   0  0  0  0  0  0  0  0  0  0  0  0
   -2.9138    0.1718    0.0000 C   0  0  0  0  0  0  0  0  0  0  0  0
   -0.5631   -1.5403    0.0000 C   0  0  0  0  0  0  0  0  0  0  0  0
   -1.1195    0.1718    0.0000 C   0  0  0  0  0  0  0  0  0  0  0  0
   -0.2990    0.0858    0.0000 Cl  0  0  0  0  0  0  0  0  0  0  0  0
   -1.4553    0.9253    0.0000 O   0  0  0  0  0  0  0  0  0  0  0  0
  1  2  1  0  0  0  0
  2  7  1  0  0  0  0
  2  3  2  0  0  0  0
  3  8  1  0  0  0  0
  3  4  1  0  0  0  0
  4  6  1  0  0  0  0
  4  5  2  0  0  0  0
  5  1  1  0  0  0  0
  8  9  1  0  0  0  0
  8 10  2  0  0  0  0
M  END
>  <MOLFORMULA>
C6 H6 Cl N O2

>  <MOLWEIGHT>
1.595714000000000e+002

>  <code>
CC00602

>  <appearance>
liquid

>  <purity>
97%

>  <product_name>
3,5-dimethylisoxazole-4-carbonyl chloride

>  <cansmi>
ClC(=O)c1c(C)noc1C

>  <HBA2>
3

>  <HBD>
0

>  <logP>
1.6704

>  <TPSA>
43.1

>  <MW>
159.57

$$$$

 OpenBabel02131616352D

 13 13  0  0  0  0  0  0  0  0999 V2000
   -1.1500   -1.7333    0.0000 O   0  0  0  0  0  0  0  0  0  0  0  0
   -0.4807   -1.2509    0.0000 C   0  0  0  0  0  0  0  0  0  0  0  0
   -0.7375   -0.4667    0.0000 C   0  0  0  0  0  0  0  0  0  0  0  0
   -1.5584   -0.4667    0.0000 C   0  0  0  0  0  0  0  0  0  0  0  0
   -1.8152   -1.2509    0.0000 C   0  0  0  0  0  0  0  0  0  0  0  0
   -2.5952   -1.5070    0.0000 C   0  0  0  0  0  0  0  0  0  0  0  0
    0.2994   -1.5070    0.0000 C   0  0  0  0  0  0  0  0  0  0  0  0
   -0.2570    0.1968    0.0000 C   0  0  0  0  0  0  0  0  0  0  0  0
    0.5593    0.1108    0.0000 Cl  0  0  0  0  0  0  0  0  0  0  0  0
   -0.5886    0.9461    0.0000 O   0  0  0  0  0  0  0  0  0  0  0  0
    1.0875   -1.7167    0.0000 F   0  0  0  0  0  0  0  0  0  0  0  0
    1.0875   -1.1042    0.0000 F   0  0  0  0  0  0  0  0  0  0  0  0
    0.7000   -2.2125    0.0000 F   0  0  0  0  0  0  0  0  0  0  0  0
  1  2  1  0  0  0  0
  2  7  1  0  0  0  0
  2  3  2  0  0  0  0
  3  8  1  0  0  0  0
  3  4  1  0  0  0  0
  4  5  2  0  0  0  0
  5  1  1  0  0  0  0
  5  6  1  0  0  0  0
  7 11  1  0  0  0  0
  7 12  1  0  0  0  0
  7 13  1  0  0  0  0
  8  9  1  0  0  0  0
  8 10  2  0  0  0  0
M  END
>  <MOLFORMULA>
C7 H4 Cl F3 O2

>  <MOLWEIGHT>
2.125536000000000e+002

>  <code>
CC00702

>  <appearance>
liquid

>  <purity>
97%

>  <product_name>
5-methyl-2-(trifluoromethyl)furan-3-carbonyl chloride

>  <cansmi>
Cc1cc(c(o1)C(F)(F)F)C(=O)Cl

>  <HBA2>
2

>  <HBD>
0

>  <logP>
2.9858

>  <TPSA>
30.21

>  <MW>
212.554

$$$$

 OpenBabel02131616352D

 12 13  0  0  0  0  0  0  0  0999 V2000
    6.4000   -2.0959    0.0000 C   0  0  0  0  0  0  0  0  0  0  0  0
    5.7250   -2.4875    0.0000 C   0  0  0  0  0  0  0  0  0  0  0  0
    5.0417   -2.1042    0.0000 C   0  0  0  0  0  0  0  0  0  0  0  0
    6.3958   -1.3084    0.0000 O   0  0  0  0  0  0  0  0  0  0  0  0
    5.7250   -3.2750    0.0000 C   0  0  0  0  0  0  0  0  0  0  0  0
    5.0417   -3.6667    0.0000 C   0  0  0  0  0  0  0  0  0  0  0  0
    7.0917   -2.4709    0.0000 Cl  0  0  0  0  0  0  0  0  0  0  0  0
    4.3709   -3.2750    0.0000 C   0  0  0  0  0  0  0  0  0  0  0  0
    4.3666   -2.5001    0.0000 C   0  0  0  0  0  0  0  0  0  0  0  0
    3.6283   -2.2646    0.0000 C   0  0  0  0  0  0  0  0  0  0  0  0
    3.1761   -2.8941    0.0000 C   0  0  0  0  0  0  0  0  0  0  0  0
    3.6352   -3.5185    0.0000 O   0  0  0  0  0  0  0  0  0  0  0  0
  2  1  1  0  0  0  0
  3  2  2  0  0  0  0
  4  1  2  0  0  0  0
  5  2  1  0  0  0  0
  6  5  2  0  0  0  0
  7  1  1  0  0  0  0
  8  9  2  0  0  0  0
  8  6  1  0  0  0  0
  9  3  1  0  0  0  0
  9 10  1  0  0  0  0
 10 11  1  0  0  0  0
 11 12  1  0  0  0  0
 12  8  1  0  0  0  0
M  END
>  <MOLFORMULA>
C9 H7 Cl O2

>  <MOLWEIGHT>
1.826053000000000e+002

>  <code>
CC00802

>  <appearance>
liquid

>  <purity>
95%

>  <product_name>
2,3-dihydro-1-benzofuran-5-carbonyl chloride

>  <cansmi>
ClC(=O)c1ccc2c(c1)CCO2

>  <HBA2>
2

>  <HBD>
0

>  <logP>
2.0005

>  <TPSA>
26.3

>  <MW>
182.604

$$$$

 OpenBabel02131616352D

 12 13  0  0  0  0  0  0  0  0999 V2000
    5.6874   -2.4169    0.0000 C   0  0  0  0  0  0  0  0  0  0  0  0
    6.4101   -2.8250    0.0000 C   0  0  0  0  0  0  0  0  0  0  0  0
    6.4110   -3.6537    0.0000 C   0  0  0  0  0  0  0  0  0  0  0  0
    5.6921   -4.0724    0.0000 C   0  0  0  0  0  0  0  0  0  0  0  0
    5.6842   -1.5836    0.0000 C   0  0  0  0  0  0  0  0  0  0  0  0
    4.9588   -1.1654    0.0000 O   0  0  0  0  0  0  0  0  0  0  0  0
    6.3981   -1.1599    0.0000 Cl  0  0  0  0  0  0  0  0  0  0  0  0
    4.9730   -2.8298    0.0000 C   0  0  0  0  0  0  0  0  0  0  0  0
    4.9832   -3.6585    0.0000 C   0  0  0  0  0  0  0  0  0  0  0  0
    4.1947   -3.9227    0.0000 C   0  0  0  0  0  0  0  0  0  0  0  0
    3.7047   -3.2554    0.0000 C   0  0  0  0  0  0  0  0  0  0  0  0
    4.1850   -2.5812    0.0000 O   0  0  0  0  0  0  0  0  0  0  0  0
  1  5  1  0  0  0  0
  1  2  2  0  0  0  0
  2  3  1  0  0  0  0
  3  4  2  0  0  0  0
  4  9  1  0  0  0  0
  5  6  2  0  0  0  0
  5  7  1  0  0  0  0
  8  9  2  0  0  0  0
  8  1  1  0  0  0  0
  9 10  1  0  0  0  0
 10 11  1  0  0  0  0
 11 12  1  0  0  0  0
 12  8  1  0  0  0  0
M  END
>  <MOLFORMULA>
C9 H7 Cl O2

>  <MOLWEIGHT>
1.826053000000000e+002

>  <code>
CC00902

>  <appearance>
Solid

>  <purity>
95%

>  <product_name>
2,3-dihydro-1-benzofuran-7-carbonyl chloride

>  <cansmi>
ClC(=O)c1cccc2c1OCC2

>  <HBA2>
2

>  <HBD>
0

>  <logP>
2.0005

>  <TPSA>
26.3

>  <MW>
182.604

$$$$

 OpenBabel02131616352D

 10 10  0  0  0  0  0  0  0  0999 V2000
   -2.1625   -1.1625    0.0000 O   0  0  0  0  0  0  0  0  0  0  0  0
   -1.4932   -0.6800    0.0000 C   0  0  0  0  0  0  0  0  0  0  0  0
   -1.7500    0.1083    0.0000 C   0  0  0  0  0  0  0  0  0  0  0  0
   -2.5750    0.1083    0.0000 C   0  0  0  0  0  0  0  0  0  0  0  0
   -2.8318   -0.6800    0.0000 C   0  0  0  0  0  0  0  0  0  0  0  0
   -3.6160   -0.9361    0.0000 C   0  0  0  0  0  0  0  0  0  0  0  0
   -0.7090   -0.9361    0.0000 C   0  0  0  0  0  0  0  0  0  0  0  0
   -1.2653    0.7759    0.0000 C   0  0  0  0  0  0  0  0  0  0  0  0
   -0.4448    0.6900    0.0000 Cl  0  0  0  0  0  0  0  0  0  0  0  0
   -1.6012    1.5295    0.0000 O   0  0  0  0  0  0  0  0  0  0  0  0
  1  2  1  0  0  0  0
  2  7  1  0  0  0  0
  2  3  2  0  0  0  0
  3  8  1  0  0  0  0
  3  4  1  0  0  0  0
  4  5  2  0  0  0  0
  5  1  1  0  0  0  0
  5  6  1  0  0  0  0
  8  9  1  0  0  0  0
  8 10  2  0  0  0  0
M  END
>  <MOLFORMULA>
C7 H7 Cl O2

>  <MOLWEIGHT>
1.585833000000000e+002

>  <code>
CC01102

>  <appearance>
liquid

>  <purity>
97%

>  <product_name>
2,5-dimethylfuran-3-carbonyl chloride

>  <cansmi>
Cc1oc(c(c1)C(=O)Cl)C

>  <HBA2>
2

>  <HBD>
0

>  <logP>
2.2754

>  <TPSA>
30.21

>  <MW>
158.582

$$$$

 OpenBabel02131616352D

 13 14  0  0  0  0  0  0  0  0999 V2000
    6.2042   -1.7292    0.0000 C   0  0  0  0  0  0  0  0  0  0  0  0
    5.6875   -2.0292    0.0000 C   0  0  0  0  0  0  0  0  0  0  0  0
    4.6500   -2.0292    0.0000 C   0  0  0  0  0  0  0  0  0  0  0  0
    5.1667   -1.7292    0.0000 C   0  0  0  0  0  0  0  0  0  0  0  0
    4.6500   -2.6292    0.0000 C   0  0  0  0  0  0  0  0  0  0  0  0
    4.1292   -1.7292    0.0000 O   0  0  0  0  0  0  0  0  0  0  0  0
    4.1292   -2.9292    0.0000 O   0  0  0  0  0  0  0  0  0  0  0  0
    6.2042   -1.1292    0.0000 O   0  0  0  0  0  0  0  0  0  0  0  0
    5.6875   -2.6292    0.0000 C   0  0  0  0  0  0  0  0  0  0  0  0
    5.1667   -2.9292    0.0000 C   0  0  0  0  0  0  0  0  0  0  0  0
    6.7292   -2.0250    0.0000 Cl  0  0  0  0  0  0  0  0  0  0  0  0
    3.6125   -2.0292    0.0000 C   0  0  0  0  0  0  0  0  0  0  0  0
    3.6042   -2.6292    0.0000 C   0  0  0  0  0  0  0  0  0  0  0  0
  2  1  1  0  0  0  0
  3  4  1  0  0  0  0
  3  5  2  0  0  0  0
  4  2  2  0  0  0  0
  5 10  1  0  0  0  0
  6  3  1  0  0  0  0
  7  5  1  0  0  0  0
  8  1  2  0  0  0  0
  9  2  1  0  0  0  0
 10  9  2  0  0  0  0
 11  1  1  0  0  0  0
 12  6  1  0  0  0  0
 12 13  1  0  0  0  0
 13  7  1  0  0  0  0
M  END
>  <MOLFORMULA>
C9 H7 Cl O3

>  <MOLWEIGHT>
1.986043000000000e+002

>  <code>
CC01302

>  <appearance>
solid

>  <purity>
97%

>  <product_name>
2,3-dihydro-1,4-benzodioxine-6-carbonyl chloride

>  <cansmi>
ClC(=O)c1ccc2c(c1)OCCO2

>  <HBA2>
3

>  <HBD>
0

>  <logP>
1.8368

>  <TPSA>
35.53

>  <MW>
198.603

$$$$

 OpenBabel02131616352D

 13 14  0  0  0  0  0  0  0  0999 V2000
    3.6292   -3.6458    0.0000 C   0  0  0  0  0  0  0  0  0  0  0  0
    3.6292   -2.8125    0.0000 C   0  0  0  0  0  0  0  0  0  0  0  0
    4.3287   -2.4000    0.0000 O   0  0  0  0  0  0  0  0  0  0  0  0
    5.0532   -2.8125    0.0000 C   0  0  0  0  0  0  0  0  0  0  0  0
    5.0532   -3.6458    0.0000 C   0  0  0  0  0  0  0  0  0  0  0  0
    4.3287   -4.0500    0.0000 O   0  0  0  0  0  0  0  0  0  0  0  0
    5.7623   -2.3973    0.0000 C   0  0  0  0  0  0  0  0  0  0  0  0
    6.4787   -2.8107    0.0000 C   0  0  0  0  0  0  0  0  0  0  0  0
    6.4758   -3.6453    0.0000 C   0  0  0  0  0  0  0  0  0  0  0  0
    5.7605   -4.0544    0.0000 C   0  0  0  0  0  0  0  0  0  0  0  0
    5.7606   -1.5682    0.0000 C   0  0  0  0  0  0  0  0  0  0  0  0
    5.0401   -1.1612    0.0000 O   0  0  0  0  0  0  0  0  0  0  0  0
    6.4752   -1.1584    0.0000 Cl  0  0  0  0  0  0  0  0  0  0  0  0
  1  2  1  0  0  0  0
  1  6  1  0  0  0  0
  2  3  1  0  0  0  0
  3  4  1  0  0  0  0
  4  7  1  0  0  0  0
  4  5  2  0  0  0  0
  5  6  1  0  0  0  0
  7  8  2  0  0  0  0
  7 11  1  0  0  0  0
  8  9  1  0  0  0  0
  9 10  2  0  0  0  0
 10  5  1  0  0  0  0
 11 12  2  0  0  0  0
 11 13  1  0  0  0  0
M  END
>  <MOLFORMULA>
C9 H7 Cl O3

>  <MOLWEIGHT>
1.986043000000000e+002

>  <code>
CC01402

>  <appearance>
solid

>  <purity>
97%

>  <product_name>
2,3-dihydro-1,4-benzodioxine-5-carbonyl chloride

>  <cansmi>
ClC(=O)c1cccc2c1OCCO2

>  <HBA2>
3

>  <HBD>
0

>  <logP>
1.8368

>  <TPSA>
35.53

>  <MW>
198.603

$$$$

 OpenBabel02131616352D

 13 14  0  0  0  0  0  0  0  0999 V2000
    3.2250   -3.3667    0.0000 C   0  0  3  0  0  0  0  0  0  0  0  0
    2.7042   -3.0667    0.0000 O   0  0  0  0  0  0  0  0  0  0  0  0
    3.7417   -3.0667    0.0000 C   0  0  0  0  0  0  0  0  0  0  0  0
    2.7042   -4.2750    0.0000 O   0  0  0  0  0  0  0  0  0  0  0  0
    2.1792   -3.3667    0.0000 C   0  0  0  0  0  0  0  0  0  0  0  0
    3.2250   -3.9750    0.0000 C   0  0  0  0  0  0  0  0  0  0  0  0
    2.1792   -3.9750    0.0000 C   0  0  0  0  0  0  0  0  0  0  0  0
    3.7417   -2.4667    0.0000 O   0  0  0  0  0  0  0  0  0  0  0  0
    4.2667   -3.3667    0.0000 Cl  0  0  0  0  0  0  0  0  0  0  0  0
    1.6625   -3.0667    0.0000 C   0  0  0  0  0  0  0  0  0  0  0  0
    1.6625   -4.2750    0.0000 C   0  0  0  0  0  0  0  0  0  0  0  0
    1.1417   -3.3750    0.0000 C   0  0  0  0  0  0  0  0  0  0  0  0
    1.1417   -3.9750    0.0000 C   0  0  0  0  0  0  0  0  0  0  0  0
  2  1  1  0  0  0  0
  3  1  1  0  0  0  0
  4  6  1  0  0  0  0
  5  2  1  0  0  0  0
  5  7  1  0  0  0  0
  6  1  1  0  0  0  0
  7  4  1  0  0  0  0
  8  3  2  0  0  0  0
  9  3  1  0  0  0  0
 10  5  2  0  0  0  0
 11  7  2  0  0  0  0
 12 10  1  0  0  0  0
 12 13  2  0  0  0  0
 13 11  1  0  0  0  0
M  END
>  <MOLFORMULA>
C9 H7 Cl O3

>  <MOLWEIGHT>
1.986043000000000e+002

>  <code>
CC01502

>  <appearance>
solid

>  <purity>
95%

>  <product_name>
2,3-dihydro-1,4-benzodioxine-2-carbonyl chloride

>  <cansmi>
ClC(=O)C1COc2c(O1)cccc2

>  <HBA2>
3

>  <HBD>
0

>  <logP>
1.5918

>  <TPSA>
35.53

>  <MW>
198.603

$$$$

 OpenBabel02131616352D

 12 13  0  0  0  0  0  0  0  0999 V2000
    6.3750   -2.1000    0.0000 C   0  0  0  0  0  0  0  0  0  0  0  0
    5.6833   -2.5042    0.0000 C   0  0  0  0  0  0  0  0  0  0  0  0
    4.9750   -2.1000    0.0000 C   0  0  0  0  0  0  0  0  0  0  0  0
    6.3750   -1.2917    0.0000 O   0  0  0  0  0  0  0  0  0  0  0  0
    5.6833   -3.3125    0.0000 C   0  0  0  0  0  0  0  0  0  0  0  0
    4.9750   -3.7125    0.0000 C   0  0  0  0  0  0  0  0  0  0  0  0
    7.0750   -2.5042    0.0000 Cl  0  0  0  0  0  0  0  0  0  0  0  0
    4.2875   -3.3001    0.0000 C   0  0  0  0  0  0  0  0  0  0  0  0
    4.2875   -2.5042    0.0000 C   0  0  0  0  0  0  0  0  0  0  0  0
    3.5305   -2.2582    0.0000 O   0  0  0  0  0  0  0  0  0  0  0  0
    3.0627   -2.9021    0.0000 C   0  0  0  0  0  0  0  0  0  0  0  0
    3.5305   -3.5459    0.0000 O   0  0  0  0  0  0  0  0  0  0  0  0
  2  1  1  0  0  0  0
  3  2  1  0  0  0  0
  4  1  2  0  0  0  0
  5  2  2  0  0  0  0
  6  5  1  0  0  0  0
  7  1  1  0  0  0  0
  8  9  1  0  0  0  0
  8  6  2  0  0  0  0
  9  3  2  0  0  0  0
  9 10  1  0  0  0  0
 10 11  1  0  0  0  0
 11 12  1  0  0  0  0
 12  8  1  0  0  0  0
M  END
>  <MOLFORMULA>
C8 H5 Cl O3

>  <MOLWEIGHT>
1.845775000000000e+002

>  <code>
CC01602

>  <appearance>
solid

>  <purity>
97%

>  <product_name>
1,3-benzodioxole-5-carbonyl chloride

>  <cansmi>
ClC(=O)c1ccc2c(c1)OCO2

>  <HBA2>
3

>  <HBD>
0

>  <logP>
1.7943

>  <TPSA>
35.53

>  <MW>
184.577

$$$$

 OpenBabel02131616352D

  8  8  0  0  0  0  0  0  0  0999 V2000
   -1.1000   -1.8583    0.0000 O   0  0  0  0  0  0  0  0  0  0  0  0
   -0.4307   -1.3758    0.0000 C   0  0  0  0  0  0  0  0  0  0  0  0
   -0.6875   -0.5875    0.0000 C   0  0  0  0  0  0  0  0  0  0  0  0
   -1.5125   -0.5875    0.0000 C   0  0  0  0  0  0  0  0  0  0  0  0
   -1.7693   -1.3758    0.0000 C   0  0  0  0  0  0  0  0  0  0  0  0
   -0.2028    0.0801    0.0000 C   0  0  0  0  0  0  0  0  0  0  0  0
    0.6177   -0.0058    0.0000 Cl  0  0  0  0  0  0  0  0  0  0  0  0
   -0.5387    0.8336    0.0000 O   0  0  0  0  0  0  0  0  0  0  0  0
  1  2  1  0  0  0  0
  2  3  2  0  0  0  0
  3  4  1  0  0  0  0
  3  6  1  0  0  0  0
  4  5  2  0  0  0  0
  5  1  1  0  0  0  0
  6  7  1  0  0  0  0
  6  8  2  0  0  0  0
M  END
>  <MOLFORMULA>
C5 H3 Cl O2

>  <MOLWEIGHT>
1.305297000000000e+002

>  <code>
CC02102

>  <appearance>
liquid

>  <purity>
97%

>  <product_name>
3-furoyl chloride

>  <cansmi>
ClC(=O)c1cocc1

>  <HBA2>
2

>  <HBD>
0

>  <logP>
1.6586

>  <TPSA>
30.21

>  <MW>
130.529

$$$$

 OpenBabel02131616352D

 14 15  0  0  0  0  0  0  0  0999 V2000
    4.0509   -2.5379    0.0000 C   0  0  0  0  0  0  0  0  0  0  0  0
    5.4334   -2.6041    0.0000 S   0  0  0  0  0  0  0  0  0  0  0  0
    6.1068   -2.1174    0.0000 C   0  0  0  0  0  0  0  0  0  0  0  0
    5.8500   -1.3291    0.0000 C   0  0  0  0  0  0  0  0  0  0  0  0
    5.0209   -1.3291    0.0000 C   0  0  0  0  0  0  0  0  0  0  0  0
    4.7599   -2.1174    0.0000 C   0  0  0  0  0  0  0  0  0  0  0  0
    6.9042   -2.3333    0.0000 C   0  0  0  0  0  0  0  0  0  0  0  0
    7.4912   -1.7452    0.0000 Cl  0  0  0  0  0  0  0  0  0  0  0  0
    7.1185   -3.1342    0.0000 O   0  0  0  0  0  0  0  0  0  0  0  0
    3.3329   -2.1244    0.0000 N   0  0  0  0  0  0  0  0  0  0  0  0
    2.6203   -2.5442    0.0000 C   0  0  0  0  0  0  0  0  0  0  0  0
    2.6259   -3.3714    0.0000 C   0  0  0  0  0  0  0  0  0  0  0  0
    3.3500   -3.7771    0.0000 C   0  0  0  0  0  0  0  0  0  0  0  0
    4.0598   -3.3591    0.0000 C   0  0  0  0  0  0  0  0  0  0  0  0
  1  6  1  0  0  0  0
  1 10  2  0  0  0  0
  2  3  1  0  0  0  0
  3  7  1  0  0  0  0
  3  4  2  0  0  0  0
  4  5  1  0  0  0  0
  5  6  2  0  0  0  0
  6  2  1  0  0  0  0
  7  8  1  0  0  0  0
  7  9  2  0  0  0  0
 10 11  1  0  0  0  0
 11 12  2  0  0  0  0
 12 13  1  0  0  0  0
 13 14  2  0  0  0  0
 14  1  1  0  0  0  0
M  END
>  <MOLFORMULA>
C10 H6 Cl N O S

>  <MOLWEIGHT>
2.236824000000000e+002

>  <code>
CC02202

>  <appearance>
solid

>  <purity>
97%

>  <product_name>
5-(2-pyridinyl)-2-thiophenecarbonyl chloride

>  <cansmi>
ClC(=O)c1ccc(s1)c1ccccn1

>  <HBA2>
3

>  <HBD>
0

>  <logP>
3.1891

>  <TPSA>
58.2

>  <MW>
223.679

$$$$

 OpenBabel02131616352D

  9  9  0  0  0  0  0  0  0  0999 V2000
   -3.4542   -0.0499    0.0000 S   0  0  0  0  0  0  0  0  0  0  0  0
   -2.7849    0.4325    0.0000 C   0  0  0  0  0  0  0  0  0  0  0  0
   -3.0417    1.2208    0.0000 C   0  0  0  0  0  0  0  0  0  0  0  0
   -3.8667    1.2208    0.0000 N   0  0  0  0  0  0  0  0  0  0  0  0
   -4.1235    0.4325    0.0000 N   0  0  0  0  0  0  0  0  0  0  0  0
   -2.5570    1.8885    0.0000 C   0  0  0  0  0  0  0  0  0  0  0  0
   -2.0006    0.1764    0.0000 C   0  0  0  0  0  0  0  0  0  0  0  0
   -1.8303   -0.6308    0.0000 O   0  0  0  0  0  0  0  0  0  0  0  0
   -1.3867    0.7276    0.0000 Cl  0  0  0  0  0  0  0  0  0  0  0  0
  1  2  1  0  0  0  0
  2  7  1  0  0  0  0
  2  3  2  0  0  0  0
  3  4  1  0  0  0  0
  3  6  1  0  0  0  0
  4  5  2  0  0  0  0
  5  1  1  0  0  0  0
  7  8  2  0  0  0  0
  7  9  1  0  0  0  0
M  END
>  <MOLFORMULA>
C4 H3 Cl N2 O S

>  <MOLWEIGHT>
1.625997000000000e+002

>  <code>
CC02302

>  <appearance>
liquid

>  <purity>
90%

>  <product_name>
4-methyl-1,2,3-thiadiazole-5-carbonyl chloride

>  <cansmi>
ClC(=O)c1snnc1C

>  <HBA2>
4

>  <HBD>
0

>  <logP>
1.2255

>  <TPSA>
71.09

>  <MW>
162.597

$$$$

 OpenBabel02131616352D

  9  9  0  0  0  0  0  0  0  0999 V2000
   -1.4125    0.0250    0.0000 N   0  0  0  0  0  0  0  0  0  0  0  0
   -0.7432    0.5075    0.0000 C   0  0  0  0  0  0  0  0  0  0  0  0
   -1.0000    1.2958    0.0000 C   0  0  0  0  0  0  0  0  0  0  0  0
   -1.8250    1.2958    0.0000 C   0  0  0  0  0  0  0  0  0  0  0  0
   -2.0818    0.5075    0.0000 C   0  0  0  0  0  0  0  0  0  0  0  0
   -1.4125   -0.8000    0.0000 C   0  0  0  0  0  0  0  0  0  0  0  0
    0.0410    0.2514    0.0000 C   0  0  0  0  0  0  0  0  0  0  0  0
    0.2114   -0.5558    0.0000 O   0  0  0  0  0  0  0  0  0  0  0  0
    0.6550    0.8025    0.0000 Cl  0  0  0  0  0  0  0  0  0  0  0  0
  1  6  1  0  0  0  0
  1  2  1  0  0  0  0
  2  7  1  0  0  0  0
  2  3  2  0  0  0  0
  3  4  1  0  0  0  0
  4  5  2  0  0  0  0
  5  1  1  0  0  0  0
  7  8  2  0  0  0  0
  7  9  1  0  0  0  0
M  END
>  <MOLFORMULA>
C6 H6 Cl N O

>  <MOLWEIGHT>
1.435724000000000e+002

>  <code>
CC02702

>  <appearance>
liquid

>  <purity>
97%

>  <product_name>
1-methyl-1H-pyrrole-2-carbonyl chloride

>  <cansmi>
ClC(=O)c1cccn1C

>  <HBA2>
2

>  <HBD>
0

>  <logP>
1.4041

>  <TPSA>
22

>  <MW>
143.571

$$$$

 OpenBabel02131616352D

 21 23  0  0  0  0  0  0  0  0999 V2000
   -1.9876   -1.3572    0.0000 C   0  0  0  0  0  0  0  0  0  0  0  0
   -2.5393   -0.7410    0.0000 C   0  0  0  0  0  0  0  0  0  0  0  0
   -2.2775    0.0472    0.0000 C   0  0  0  0  0  0  0  0  0  0  0  0
   -1.4702    0.2127    0.0000 C   0  0  0  0  0  0  0  0  0  0  0  0
   -0.0944   -0.4004    0.0000 C   0  0  0  0  0  0  0  0  0  0  0  0
    0.1612   -1.1887    0.0000 C   0  0  0  0  0  0  0  0  0  0  0  0
   -0.5094   -1.6754    0.0000 N   0  0  0  0  0  0  0  0  0  0  0  0
   -1.1796   -1.1879    0.0000 C   0  0  0  0  0  0  0  0  0  0  0  0
   -0.9231   -0.3999    0.0000 C   0  0  0  0  0  0  0  0  0  0  0  0
   -0.5099   -2.5004    0.0000 S   0  0  0  0  0  0  0  0  0  0  0  0
    0.2043   -2.9133    0.0000 C   0  0  0  0  0  0  0  0  0  0  0  0
   -0.7608   -3.2833    0.0000 O   0  0  0  0  0  0  0  0  0  0  0  0
   -1.2912   -2.2408    0.0000 O   0  0  0  0  0  0  0  0  0  0  0  0
    0.9159   -2.4967    0.0000 C   0  0  0  0  0  0  0  0  0  0  0  0
    1.6296   -2.9089    0.0000 C   0  0  0  0  0  0  0  0  0  0  0  0
    1.6296   -3.7348    0.0000 C   0  0  0  0  0  0  0  0  0  0  0  0
    0.9099   -4.1467    0.0000 C   0  0  0  0  0  0  0  0  0  0  0  0
    0.1990   -3.7321    0.0000 C   0  0  0  0  0  0  0  0  0  0  0  0
    0.3909    0.2668    0.0000 C   0  0  0  0  0  0  0  0  0  0  0  0
    1.2113    0.1800    0.0000 Cl  0  0  0  0  0  0  0  0  0  0  0  0
    0.0558    1.0206    0.0000 O   0  0  0  0  0  0  0  0  0  0  0  0
  1  2  2  0  0  0  0
  2  3  1  0  0  0  0
  3  4  2  0  0  0  0
  4  9  1  0  0  0  0
  5  6  2  0  0  0  0
  5 19  1  0  0  0  0
  6  7  1  0  0  0  0
  7 10  1  0  0  0  0
  7  8  1  0  0  0  0
  8  9  2  0  0  0  0
  8  1  1  0  0  0  0
  9  5  1  0  0  0  0
 10 11  1  0  0  0  0
 10 12  2  0  0  0  0
 10 13  2  0  0  0  0
 11 14  2  0  0  0  0
 14 15  1  0  0  0  0
 15 16  2  0  0  0  0
 16 17  1  0  0  0  0
 17 18  2  0  0  0  0
 18 11  1  0  0  0  0
 19 20  1  0  0  0  0
 19 21  2  0  0  0  0
M  END
>  <MOLFORMULA>
C15 H10 Cl N O3 S

>  <MOLWEIGHT>
3.197670000000000e+002

>  <code>
CC03102

>  <appearance>
solid

>  <purity>
97%

>  <product_name>
1-(phenylsulfonyl)-1H-indole-3-carbonyl chloride

>  <cansmi>
ClC(=O)c1cn(c2c1cccc2)S(=O)(=O)c1ccccc1

>  <HBA2>
4

>  <HBD>
0

>  <logP>
4.3381

>  <TPSA>
64.52

>  <MW>
319.763

$$$$

 OpenBabel02131616352D

 21 23  0  0  0  0  0  0  0  0999 V2000
   -3.6334    0.5470    0.0000 C   0  0  0  0  0  0  0  0  0  0  0  0
   -4.1851    1.1632    0.0000 C   0  0  0  0  0  0  0  0  0  0  0  0
   -3.9233    1.9514    0.0000 C   0  0  0  0  0  0  0  0  0  0  0  0
   -3.1160    2.1169    0.0000 C   0  0  0  0  0  0  0  0  0  0  0  0
   -1.7402    1.5038    0.0000 C   0  0  0  0  0  0  0  0  0  0  0  0
   -1.4846    0.7155    0.0000 C   0  0  0  0  0  0  0  0  0  0  0  0
   -2.1552    0.2288    0.0000 N   0  0  0  0  0  0  0  0  0  0  0  0
   -2.8254    0.7163    0.0000 C   0  0  0  0  0  0  0  0  0  0  0  0
   -2.5689    1.5043    0.0000 C   0  0  0  0  0  0  0  0  0  0  0  0
   -2.1557   -0.5962    0.0000 S   0  0  0  0  0  0  0  0  0  0  0  0
   -1.4415   -1.0091    0.0000 C   0  0  0  0  0  0  0  0  0  0  0  0
   -2.4066   -1.3791    0.0000 O   0  0  0  0  0  0  0  0  0  0  0  0
   -2.9370   -0.3366    0.0000 O   0  0  0  0  0  0  0  0  0  0  0  0
   -0.7299   -0.5925    0.0000 C   0  0  0  0  0  0  0  0  0  0  0  0
   -0.0162   -1.0047    0.0000 C   0  0  0  0  0  0  0  0  0  0  0  0
   -0.0162   -1.8306    0.0000 C   0  0  0  0  0  0  0  0  0  0  0  0
   -0.7359   -2.2425    0.0000 C   0  0  0  0  0  0  0  0  0  0  0  0
   -1.4468   -1.8279    0.0000 C   0  0  0  0  0  0  0  0  0  0  0  0
   -0.7001    0.4601    0.0000 C   0  0  0  0  0  0  0  0  0  0  0  0
   -0.5290   -0.3470    0.0000 O   0  0  0  0  0  0  0  0  0  0  0  0
   -0.0867    1.0118    0.0000 Cl  0  0  0  0  0  0  0  0  0  0  0  0
  1  2  2  0  0  0  0
  2  3  1  0  0  0  0
  3  4  2  0  0  0  0
  4  9  1  0  0  0  0
  5  6  2  0  0  0  0
  6  7  1  0  0  0  0
  6 19  1  0  0  0  0
  7  8  1  0  0  0  0
  7 10  1  0  0  0  0
  8  1  1  0  0  0  0
  8  9  2  0  0  0  0
  9  5  1  0  0  0  0
 10 11  1  0  0  0  0
 10 12  2  0  0  0  0
 10 13  2  0  0  0  0
 11 14  2  0  0  0  0
 14 15  1  0  0  0  0
 15 16  2  0  0  0  0
 16 17  1  0  0  0  0
 17 18  2  0  0  0  0
 18 11  1  0  0  0  0
 19 20  2  0  0  0  0
 19 21  1  0  0  0  0
M  END
>  <MOLFORMULA>
C15 H10 Cl N O3 S

>  <MOLWEIGHT>
3.197670000000000e+002

>  <code>
CC03302

>  <appearance>
solid

>  <purity>
97%

>  <product_name>
1-(phenylsulfonyl)-1H-indole-2-carbonyl chloride

>  <cansmi>
ClC(=O)c1cc2c(n1S(=O)(=O)c1ccccc1)cccc2

>  <HBA2>
4

>  <HBD>
0

>  <logP>
4.3381

>  <TPSA>
64.52

>  <MW>
319.763

$$$$

 OpenBabel02131616352D

  9  9  0  0  0  0  0  0  0  0999 V2000
    3.6236   -3.4292    0.0000 C   0  0  0  0  0  0  0  0  0  0  0  0
    3.6224   -2.6018    0.0000 C   0  0  0  0  0  0  0  0  0  0  0  0
    4.3372   -2.1889    0.0000 N   0  0  0  0  0  0  0  0  0  0  0  0
    5.0537   -2.6023    0.0000 C   0  0  0  0  0  0  0  0  0  0  0  0
    5.0508   -3.4328    0.0000 C   0  0  0  0  0  0  0  0  0  0  0  0
    4.3354   -3.8419    0.0000 N   0  0  0  0  0  0  0  0  0  0  0  0
    5.7699   -2.1911    0.0000 C   0  0  0  0  0  0  0  0  0  0  0  0
    5.7714   -1.3661    0.0000 O   0  0  0  0  0  0  0  0  0  0  0  0
    6.4804   -2.6049    0.0000 Cl  0  0  0  0  0  0  0  0  0  0  0  0
  1  2  2  0  0  0  0
  2  3  1  0  0  0  0
  3  4  2  0  0  0  0
  4  5  1  0  0  0  0
  4  7  1  0  0  0  0
  5  6  2  0  0  0  0
  6  1  1  0  0  0  0
  7  8  2  0  0  0  0
  7  9  1  0  0  0  0
M  END
>  <MOLFORMULA>
C5 H3 Cl N2 O

>  <MOLWEIGHT>
1.425447000000000e+002

>  <code>
CC03402

>  <appearance>
Solid

>  <purity>
TECH

>  <product_name>
2-pyrazinecarbonyl chloride

>  <cansmi>
ClC(=O)c1cnccn1

>  <HBA2>
3

>  <HBD>
0

>  <logP>
0.8556

>  <TPSA>
42.85

>  <MW>
142.543

$$$$

 OpenBabel02131616352D

 13 14  0  0  0  0  0  0  0  0999 V2000
    5.7709   -2.5958    0.0000 C   0  0  0  0  0  0  0  0  0  0  0  0
    5.0500   -2.1833    0.0000 N   0  0  0  0  0  0  0  0  0  0  0  0
    6.4875   -2.1833    0.0000 C   0  0  0  0  0  0  0  0  0  0  0  0
    5.0500   -3.8500    0.0000 N   0  0  0  0  0  0  0  0  0  0  0  0
    4.3292   -2.5958    0.0000 C   0  0  0  0  0  0  0  0  0  0  0  0
    5.7709   -3.4292    0.0000 C   0  0  0  0  0  0  0  0  0  0  0  0
    4.3292   -3.4292    0.0000 C   0  0  0  0  0  0  0  0  0  0  0  0
    6.4875   -1.3583    0.0000 O   0  0  0  0  0  0  0  0  0  0  0  0
    7.2000   -2.5958    0.0000 Cl  0  0  0  0  0  0  0  0  0  0  0  0
    3.6167   -2.1833    0.0000 C   0  0  0  0  0  0  0  0  0  0  0  0
    3.6167   -3.8417    0.0000 C   0  0  0  0  0  0  0  0  0  0  0  0
    2.9000   -2.5958    0.0000 C   0  0  0  0  0  0  0  0  0  0  0  0
    2.9000   -3.4292    0.0000 C   0  0  0  0  0  0  0  0  0  0  0  0
  2  1  2  0  0  0  0
  3  1  1  0  0  0  0
  4  6  2  0  0  0  0
  5  2  1  0  0  0  0
  5  7  1  0  0  0  0
  6  1  1  0  0  0  0
  7  4  1  0  0  0  0
  8  3  2  0  0  0  0
  9  3  1  0  0  0  0
 10  5  2  0  0  0  0
 11  7  2  0  0  0  0
 12 10  1  0  0  0  0
 12 13  2  0  0  0  0
 13 11  1  0  0  0  0
M  END
>  <MOLFORMULA>
C9 H5 Cl N2 O

>  <MOLWEIGHT>
1.926045000000000e+002

>  <code>
CC03502

>  <appearance>
solid

>  <purity>
97%

>  <product_name>
2-quinoxalinecarbonyl chloride

>  <cansmi>
ClC(=O)c1cnc2c(n1)cccc2

>  <HBA2>
3

>  <HBD>
0

>  <logP>
2.0088

>  <TPSA>
42.85

>  <MW>
192.602

$$$$

 OpenBabel02131616352D

 10  9  0  0  0  0  0  0  0  0999 V2000
    1.4917    0.7167    0.0000 Cl  0  0  0  0  0  0  0  0  0  0  0  0
   -0.0083   -0.1291    0.0000 S   0  0  0  0  0  0  0  0  0  0  0  0
    0.6610    0.3533    0.0000 C   0  0  0  0  0  0  0  0  0  0  0  0
    0.4042    1.1416    0.0000 C   0  0  0  0  0  0  0  0  0  0  0  0
   -0.4208    1.1416    0.0000 N   0  0  0  0  0  0  0  0  0  0  0  0
   -0.6776    0.3533    0.0000 C   0  0  0  0  0  0  0  0  0  0  0  0
   -1.4619    0.0972    0.0000 C   0  0  0  0  0  0  0  0  0  0  0  0
    0.8888    1.8093    0.0000 C   0  0  0  0  0  0  0  0  0  0  0  0
    1.7093    1.7233    0.0000 Cl  0  0  0  0  0  0  0  0  0  0  0  0
    0.5530    2.5628    0.0000 O   0  0  0  0  0  0  0  0  0  0  0  0
  2  3  1  0  0  0  0
  3  4  2  0  0  0  0
  4  5  1  0  0  0  0
  4  8  1  0  0  0  0
  5  6  2  0  0  0  0
  6  2  1  0  0  0  0
  6  7  1  0  0  0  0
  8  9  1  0  0  0  0
  8 10  2  0  0  0  0
M  END
>  <MOLFORMULA>
C5 H4 Cl N O S . Cl H

>  <MOLWEIGHT>
1.980725000000000e+002

>  <code>
CC05702

>  <appearance>
Solid

>  <purity>
95%

>  <product_name>
2-methyl-1,3-thiazole-4-carbonyl chloride hydrochloride

>  <cansmi>
Cc1nc(cs1)C(=O)Cl.Cl

>  <HBA2>
3

>  <HBD>
1

>  <logP>
2.6325

>  <TPSA>
58.2

>  <MW>
198.07

$$$$

 OpenBabel02131616352D

 12 13  0  0  0  0  0  0  0  0999 V2000
    3.3041   -1.5333    0.0000 C   0  0  0  0  0  0  0  0  0  0  0  0
    3.0539   -2.3220    0.0000 C   0  0  0  0  0  0  0  0  0  0  0  0
    3.6112   -2.9309    0.0000 C   0  0  0  0  0  0  0  0  0  0  0  0
    4.1071   -1.3541    0.0000 C   0  0  0  0  0  0  0  0  0  0  0  0
    5.0924   -3.2334    0.0000 S   0  0  0  0  0  0  0  0  0  0  0  0
    5.7598   -2.7396    0.0000 C   0  0  0  0  0  0  0  0  0  0  0  0
    5.4963   -1.9523    0.0000 N   0  0  0  0  0  0  0  0  0  0  0  0
    4.6662   -1.9596    0.0000 C   0  0  0  0  0  0  0  0  0  0  0  0
    4.4165   -2.7513    0.0000 C   0  0  0  0  0  0  0  0  0  0  0  0
    6.5466   -2.9877    0.0000 C   0  0  0  0  0  0  0  0  0  0  0  0
    6.7251   -3.7932    0.0000 O   0  0  0  0  0  0  0  0  0  0  0  0
    7.1548   -2.4304    0.0000 Cl  0  0  0  0  0  0  0  0  0  0  0  0
  1  2  2  0  0  0  0
  2  3  1  0  0  0  0
  3  9  2  0  0  0  0
  4  1  1  0  0  0  0
  5  6  1  0  0  0  0
  6  7  2  0  0  0  0
  6 10  1  0  0  0  0
  7  8  1  0  0  0  0
  8  4  2  0  0  0  0
  8  9  1  0  0  0  0
  9  5  1  0  0  0  0
 10 11  2  0  0  0  0
 10 12  1  0  0  0  0
M  END
>  <MOLFORMULA>
C8 H4 Cl N O S

>  <MOLWEIGHT>
1.976446000000000e+002

>  <code>
CC06002

>  <appearance>
solid

>  <purity>
90%

>  <product_name>
1,3-benzothiazole-2-carbonyl chloride

>  <cansmi>
ClC(=O)c1nc2c(s1)cccc2

>  <HBA2>
3

>  <HBD>
0

>  <logP>
2.6753

>  <TPSA>
58.2

>  <MW>
197.641

$$$$

 OpenBabel02131616352D

 13 14  0  0  0  0  0  0  0  0999 V2000
    4.7653   -2.3853    0.0000 C   0  0  0  0  0  0  0  0  0  0  0  0
    4.5328   -3.1811    0.0000 C   0  0  0  0  0  0  0  0  0  0  0  0
    5.2166   -3.6479    0.0000 N   0  0  0  0  0  0  0  0  0  0  0  0
    5.8719   -3.1384    0.0000 N   0  0  0  0  0  0  0  0  0  0  0  0
    5.5968   -2.3613    0.0000 C   0  0  0  0  0  0  0  0  0  0  0  0
    3.3860   -1.9906    0.0000 C   0  0  0  0  0  0  0  0  0  0  0  0
    3.1556   -2.7895    0.0000 C   0  0  0  0  0  0  0  0  0  0  0  0
    3.7329   -3.3846    0.0000 C   0  0  0  0  0  0  0  0  0  0  0  0
    4.1903   -1.7832    0.0000 C   0  0  0  0  0  0  0  0  0  0  0  0
    5.2405   -4.4795    0.0000 C   0  0  0  0  0  0  0  0  0  0  0  0
    6.0637   -1.6775    0.0000 C   0  0  0  0  0  0  0  0  0  0  0  0
    6.8931   -1.7334    0.0000 Cl  0  0  0  0  0  0  0  0  0  0  0  0
    5.7044   -0.9256    0.0000 O   0  0  0  0  0  0  0  0  0  0  0  0
  1  9  2  0  0  0  0
  1  2  1  0  0  0  0
  2  3  1  0  0  0  0
  3  4  1  0  0  0  0
  3 10  1  0  0  0  0
  4  5  2  0  0  0  0
  5  1  1  0  0  0  0
  5 11  1  0  0  0  0
  6  7  2  0  0  0  0
  7  8  1  0  0  0  0
  8  2  2  0  0  0  0
  9  6  1  0  0  0  0
 11 12  1  0  0  0  0
 11 13  2  0  0  0  0
M  END
>  <MOLFORMULA>
C9 H7 Cl N2 O

>  <MOLWEIGHT>
1.946203000000000e+002

>  <code>
CC06302

>  <appearance>
Solid

>  <purity>
97%

>  <product_name>
1-methyl-1H-indazole-3-carbonyl chloride

>  <cansmi>
ClC(=O)c1nn(c2c1cccc2)C

>  <HBA2>
3

>  <HBD>
0

>  <logP>
1.9523

>  <TPSA>
34.89

>  <MW>
194.618

$$$$

 OpenBabel02131616352D

 12 13  0  0  0  0  0  0  0  0999 V2000
   -3.5257    2.0571    0.0000 C   0  0  0  0  0  0  0  0  0  0  0  0
   -3.7811    1.2701    0.0000 C   0  0  0  0  0  0  0  0  0  0  0  0
   -3.2277    0.6575    0.0000 C   0  0  0  0  0  0  0  0  0  0  0  0
   -2.7215    2.2311    0.0000 C   0  0  0  0  0  0  0  0  0  0  0  0
   -1.7485    0.3455    0.0000 O   0  0  0  0  0  0  0  0  0  0  0  0
   -1.0779    0.8349    0.0000 C   0  0  0  0  0  0  0  0  0  0  0  0
   -1.3363    1.6238    0.0000 C   0  0  0  0  0  0  0  0  0  0  0  0
   -2.1664    1.6220    0.0000 C   0  0  0  0  0  0  0  0  0  0  0  0
   -2.4213    0.8319    0.0000 C   0  0  0  0  0  0  0  0  0  0  0  0
   -0.2928    0.5816    0.0000 C   0  0  0  0  0  0  0  0  0  0  0  0
   -0.1195   -0.2249    0.0000 O   0  0  0  0  0  0  0  0  0  0  0  0
    0.3191    1.1350    0.0000 Cl  0  0  0  0  0  0  0  0  0  0  0  0
  1  2  1  0  0  0  0
  2  3  2  0  0  0  0
  3  9  1  0  0  0  0
  4  1  2  0  0  0  0
  5  6  1  0  0  0  0
  6  7  2  0  0  0  0
  6 10  1  0  0  0  0
  7  8  1  0  0  0  0
  8  4  1  0  0  0  0
  8  9  2  0  0  0  0
  9  5  1  0  0  0  0
 10 11  2  0  0  0  0
 10 12  1  0  0  0  0
M  END
>  <MOLFORMULA>
C9 H5 Cl O2

>  <MOLWEIGHT>
1.805895000000000e+002

>  <code>
CC06602

>  <appearance>
solid

>  <purity>
97%

>  <product_name>
1-benzofuran-2-carbonyl chloride

>  <cansmi>
ClC(=O)c1cc2c(o1)cccc2

>  <HBA2>
2

>  <HBD>
0

>  <logP>
2.8118

>  <TPSA>
30.21

>  <MW>
180.588

$$$$

 OpenBabel02131616352D

 12 13  0  0  0  0  0  0  0  0999 V2000
    0.0209    1.0583    0.0000 C   0  0  0  0  0  0  0  0  0  0  0  0
   -0.6583    0.6708    0.0000 C   0  0  0  0  0  0  0  0  0  0  0  0
   -1.3375    1.0583    0.0000 C   0  0  0  0  0  0  0  0  0  0  0  0
    0.0209    1.8500    0.0000 O   0  0  0  0  0  0  0  0  0  0  0  0
   -0.6583   -0.1208    0.0000 C   0  0  0  0  0  0  0  0  0  0  0  0
   -1.3458   -0.5000    0.0000 C   0  0  0  0  0  0  0  0  0  0  0  0
    0.7084    0.6708    0.0000 Cl  0  0  0  0  0  0  0  0  0  0  0  0
   -2.7591    0.9304    0.0000 C   0  0  0  0  0  0  0  0  0  0  0  0
   -3.2301    0.2941    0.0000 C   0  0  0  0  0  0  0  0  0  0  0  0
   -2.7704   -0.3505    0.0000 O   0  0  0  0  0  0  0  0  0  0  0  0
   -2.0153   -0.1126    0.0000 C   0  0  0  0  0  0  0  0  0  0  0  0
   -2.0083    0.6791    0.0000 C   0  0  0  0  0  0  0  0  0  0  0  0
  2  1  1  0  0  0  0
  3  2  2  0  0  0  0
  4  1  2  0  0  0  0
  5  2  1  0  0  0  0
  6  5  2  0  0  0  0
  7  1  1  0  0  0  0
  8  9  2  0  0  0  0
  9 10  1  0  0  0  0
 10 11  1  0  0  0  0
 11 12  2  0  0  0  0
 11  6  1  0  0  0  0
 12  3  1  0  0  0  0
 12  8  1  0  0  0  0
M  END
>  <MOLFORMULA>
C9 H5 Cl O2

>  <MOLWEIGHT>
1.805895000000000e+002

>  <code>
CC07102

>  <appearance>
solid

>  <purity>
90%

>  <product_name>
1-benzofuran-5-carbonyl chloride

>  <cansmi>
ClC(=O)c1ccc2c(c1)cco2

>  <HBA2>
2

>  <HBD>
0

>  <logP>
2.8118

>  <TPSA>
30.21

>  <MW>
180.588

$$$$

 OpenBabel02131616352D

 19 20  0  0  0  0  0  0  0  0999 V2000
    5.7558   -2.9942    0.0000 C   0  0  0  0  0  0  0  0  0  0  0  0
    5.7595   -2.1636    0.0000 N   0  0  0  0  0  0  0  0  0  0  0  0
    5.7500    0.3254    0.0000 C   0  0  0  0  0  0  0  0  0  0  0  0
    5.0399   -3.4081    0.0000 O   0  0  0  0  0  0  0  0  0  0  0  0
    6.4700   -3.4071    0.0000 O   0  0  0  0  0  0  0  0  0  0  0  0
    5.7484   -0.5015    0.0000 C   0  0  0  0  0  0  0  0  0  0  0  0
    6.4733   -1.7533    0.0000 C   0  0  0  0  0  0  0  0  0  0  0  0
    5.0309   -1.7423    0.0000 C   0  0  0  0  0  0  0  0  0  0  0  0
    5.0322    0.7405    0.0000 O   0  0  0  0  0  0  0  0  0  0  0  0
    5.0304   -0.9190    0.0000 C   0  0  0  0  0  0  0  0  0  0  0  0
    6.4734   -0.9207    0.0000 C   0  0  0  0  0  0  0  0  0  0  0  0
    6.4679    0.7429    0.0000 Cl  0  0  0  0  0  0  0  0  0  0  0  0
    5.0362   -4.2386    0.0000 C   0  0  0  0  0  0  0  0  0  0  0  0
    4.3183   -4.6561    0.0000 C   0  0  0  0  0  0  0  0  0  0  0  0
    3.5897   -4.2348    0.0000 C   0  0  0  0  0  0  0  0  0  0  0  0
    4.3125   -5.4902    0.0000 C   0  0  0  0  0  0  0  0  0  0  0  0
    3.6029   -5.8933    0.0000 C   0  0  0  0  0  0  0  0  0  0  0  0
    2.8696   -4.6559    0.0000 C   0  0  0  0  0  0  0  0  0  0  0  0
    2.8721   -5.4756    0.0000 C   0  0  0  0  0  0  0  0  0  0  0  0
  2  1  1  0  0  0  0
  3  6  1  0  0  0  0
  4  1  1  0  0  0  0
  5  1  2  0  0  0  0
  6 10  1  0  0  0  0
  6 11  1  0  0  0  0
  7  2  1  0  0  0  0
  8  2  1  0  0  0  0
  9  3  2  0  0  0  0
 10  8  1  0  0  0  0
 11  7  1  0  0  0  0
 12  3  1  0  0  0  0
 13  4  1  0  0  0  0
 14 13  1  0  0  0  0
 15 14  2  0  0  0  0
 16 14  1  0  0  0  0
 17 16  2  0  0  0  0
 18 15  1  0  0  0  0
 19 17  1  0  0  0  0
 19 18  2  0  0  0  0
M  END
>  <MOLFORMULA>
C14 H16 Cl N O3

>  <MOLWEIGHT>
2.817374000000000e+002

>  <code>
CC07502

>  <appearance>
liquid

>  <purity>
95%

>  <product_name>
benzyl 4-(chlorocarbonyl)tetrahydro-1(2H)-pyridinecarboxylate

>  <cansmi>
O=C(N1CCC(CC1)C(=O)Cl)OCc1ccccc1

>  <HBA2>
4

>  <HBD>
0

>  <logP>
2.7385

>  <TPSA>
46.61

>  <MW>
281.735

$$$$

 OpenBabel02131616352D

 12 13  0  0  0  0  0  0  0  0999 V2000
   -1.8880   -0.9032    0.0000 C   0  0  0  0  0  0  0  0  0  0  0  0
   -1.1639   -0.5004    0.0000 C   0  0  0  0  0  0  0  0  0  0  0  0
   -1.1586    0.3303    0.0000 C   0  0  0  0  0  0  0  0  0  0  0  0
   -1.8732    0.7541    0.0000 C   0  0  0  0  0  0  0  0  0  0  0  0
   -1.8646    1.5833    0.0000 C   0  0  0  0  0  0  0  0  0  0  0  0
   -1.1469    1.9877    0.0000 Cl  0  0  0  0  0  0  0  0  0  0  0  0
   -2.5820    1.9996    0.0000 O   0  0  0  0  0  0  0  0  0  0  0  0
   -2.5993   -0.4870    0.0000 C   0  0  0  0  0  0  0  0  0  0  0  0
   -2.5920    0.3418    0.0000 C   0  0  0  0  0  0  0  0  0  0  0  0
   -3.3761    0.6074    0.0000 N   0  0  0  0  0  0  0  0  0  0  0  0
   -3.8715   -0.0593    0.0000 S   0  0  0  0  0  0  0  0  0  0  0  0
   -3.3921   -0.7345    0.0000 N   0  0  0  0  0  0  0  0  0  0  0  0
  1  2  2  0  0  0  0
  2  3  1  0  0  0  0
  3  4  2  0  0  0  0
  4  5  1  0  0  0  0
  5  6  1  0  0  0  0
  5  7  2  0  0  0  0
  8  9  1  0  0  0  0
  8  1  1  0  0  0  0
  9  4  1  0  0  0  0
  9 10  2  0  0  0  0
 10 11  1  0  0  0  0
 11 12  1  0  0  0  0
 12  8  2  0  0  0  0
M  END
>  <MOLFORMULA>
C7 H3 Cl N2 O S

>  <MOLWEIGHT>
1.986327000000000e+002

>  <code>
CC09102

>  <appearance>
solid

>  <purity>
95%

>  <product_name>
2,1,3-benzothiadiazole-4-carbonyl chloride

>  <cansmi>
ClC(=O)c1cccc2c1nsn2

>  <HBA2>
4

>  <HBD>
0

>  <logP>
2.0703

>  <TPSA>
71.09

>  <MW>
198.63

$$$$

 OpenBabel02131616352D

 12 13  0  0  0  0  0  0  0  0999 V2000
   -1.4422   -0.2491    0.0000 C   0  0  0  0  0  0  0  0  0  0  0  0
   -0.7181    0.1538    0.0000 C   0  0  0  0  0  0  0  0  0  0  0  0
   -0.7128    0.9845    0.0000 C   0  0  0  0  0  0  0  0  0  0  0  0
   -1.4274    1.4083    0.0000 C   0  0  0  0  0  0  0  0  0  0  0  0
   -2.1535    0.1672    0.0000 C   0  0  0  0  0  0  0  0  0  0  0  0
   -2.1462    0.9960    0.0000 C   0  0  0  0  0  0  0  0  0  0  0  0
   -2.9303    1.2616    0.0000 N   0  0  0  0  0  0  0  0  0  0  0  0
   -3.4257    0.5949    0.0000 S   0  0  0  0  0  0  0  0  0  0  0  0
   -2.9463   -0.0803    0.0000 N   0  0  0  0  0  0  0  0  0  0  0  0
    0.0054    1.3905    0.0000 C   0  0  0  0  0  0  0  0  0  0  0  0
    0.7161    0.9716    0.0000 Cl  0  0  0  0  0  0  0  0  0  0  0  0
    0.0129    2.2155    0.0000 O   0  0  0  0  0  0  0  0  0  0  0  0
  1  2  2  0  0  0  0
  2  3  1  0  0  0  0
  3 10  1  0  0  0  0
  3  4  2  0  0  0  0
  5  1  1  0  0  0  0
  5  6  1  0  0  0  0
  6  4  1  0  0  0  0
  6  7  2  0  0  0  0
  7  8  1  0  0  0  0
  8  9  1  0  0  0  0
  9  5  2  0  0  0  0
 10 11  1  0  0  0  0
 10 12  2  0  0  0  0
M  END
>  <MOLFORMULA>
C7 H3 Cl N2 O S

>  <MOLWEIGHT>
1.986327000000000e+002

>  <code>
CC09202

>  <appearance>
solid

>  <purity>
90%

>  <product_name>
2,1,3-benzothiadiazole-5-carbonyl chloride

>  <cansmi>
ClC(=O)c1ccc2c(c1)nsn2

>  <HBA2>
4

>  <HBD>
0

>  <logP>
2.0703

>  <TPSA>
71.09

>  <MW>
198.63

$$$$

 OpenBabel02131616352D

 12 13  0  0  0  0  0  0  0  0999 V2000
   -2.5794   -0.2277    0.0000 C   0  0  0  0  0  0  0  0  0  0  0  0
   -1.8630    0.1856    0.0000 C   0  0  0  0  0  0  0  0  0  0  0  0
   -1.8658    1.0162    0.0000 C   0  0  0  0  0  0  0  0  0  0  0  0
   -2.5812    1.4253    0.0000 C   0  0  0  0  0  0  0  0  0  0  0  0
   -3.2942    0.1852    0.0000 C   0  0  0  0  0  0  0  0  0  0  0  0
   -3.2930    1.0141    0.0000 C   0  0  0  0  0  0  0  0  0  0  0  0
   -4.0810    1.2714    0.0000 N   0  0  0  0  0  0  0  0  0  0  0  0
   -4.5692    0.6015    0.0000 N   0  0  0  0  0  0  0  0  0  0  0  0
   -4.0830   -0.0697    0.0000 S   0  0  0  0  0  0  0  0  0  0  0  0
   -1.1529    1.4314    0.0000 C   0  0  0  0  0  0  0  0  0  0  0  0
   -0.4369    1.0216    0.0000 Cl  0  0  0  0  0  0  0  0  0  0  0  0
   -1.1560    2.2564    0.0000 O   0  0  0  0  0  0  0  0  0  0  0  0
  1  2  2  0  0  0  0
  2  3  1  0  0  0  0
  3  4  2  0  0  0  0
  3 10  1  0  0  0  0
  4  6  1  0  0  0  0
  5  1  1  0  0  0  0
  5  6  2  0  0  0  0
  6  7  1  0  0  0  0
  7  8  2  0  0  0  0
  8  9  1  0  0  0  0
  9  5  1  0  0  0  0
 10 11  1  0  0  0  0
 10 12  2  0  0  0  0
M  END
>  <MOLFORMULA>
C7 H3 Cl N2 O S

>  <MOLWEIGHT>
1.986327000000000e+002

>  <code>
CC09402

>  <appearance>
solid

>  <purity>
95%

>  <product_name>
1,2,3-benzothiadiazole-5-carbonyl chloride

>  <cansmi>
ClC(=O)c1ccc2c(c1)nns2

>  <HBA2>
4

>  <HBD>
0

>  <logP>
2.0703

>  <TPSA>
71.09

>  <MW>
198.63

$$$$

 OpenBabel02131616352D

  8  8  0  0  0  0  0  0  0  0999 V2000
   -0.1958    0.0584    0.0000 S   0  0  0  0  0  0  0  0  0  0  0  0
    0.4735    0.5408    0.0000 C   0  0  0  0  0  0  0  0  0  0  0  0
    0.2167    1.3291    0.0000 N   0  0  0  0  0  0  0  0  0  0  0  0
   -0.6083    1.3291    0.0000 C   0  0  0  0  0  0  0  0  0  0  0  0
   -0.8651    0.5408    0.0000 C   0  0  0  0  0  0  0  0  0  0  0  0
    1.2577    0.2847    0.0000 C   0  0  0  0  0  0  0  0  0  0  0  0
    1.4280   -0.5225    0.0000 O   0  0  0  0  0  0  0  0  0  0  0  0
    1.8716    0.8359    0.0000 Cl  0  0  0  0  0  0  0  0  0  0  0  0
  1  2  1  0  0  0  0
  2  6  1  0  0  0  0
  2  3  2  0  0  0  0
  3  4  1  0  0  0  0
  4  5  2  0  0  0  0
  5  1  1  0  0  0  0
  6  7  2  0  0  0  0
  6  8  1  0  0  0  0
M  END
>  <MOLFORMULA>
C4 H2 Cl N O S

>  <MOLWEIGHT>
1.475848000000000e+002

>  <code>
CC09502

>  <appearance>
Solid

>  <purity>
90%

>  <product_name>
1,3-thiazole-2-carbonyl chloride

>  <cansmi>
ClC(=O)c1nccs1

>  <HBA2>
3

>  <HBD>
0

>  <logP>
1.5221

>  <TPSA>
58.2

>  <MW>
147.583

$$$$

 OpenBabel02131616352D

 12 13  0  0  0  0  0  0  0  0999 V2000
   -2.0419   -1.3819    0.0000 C   0  0  0  0  0  0  0  0  0  0  0  0
   -1.3255   -0.9685    0.0000 C   0  0  0  0  0  0  0  0  0  0  0  0
   -1.3283   -0.1380    0.0000 C   0  0  0  0  0  0  0  0  0  0  0  0
   -2.0437    0.2711    0.0000 C   0  0  0  0  0  0  0  0  0  0  0  0
   -2.7567   -0.9690    0.0000 C   0  0  0  0  0  0  0  0  0  0  0  0
   -2.7555   -0.1401    0.0000 C   0  0  0  0  0  0  0  0  0  0  0  0
   -3.5435    0.1173    0.0000 N   0  0  0  0  0  0  0  0  0  0  0  0
   -4.0317   -0.5526    0.0000 O   0  0  0  0  0  0  0  0  0  0  0  0
   -3.5455   -1.2239    0.0000 N   0  0  0  0  0  0  0  0  0  0  0  0
   -0.6154    0.2772    0.0000 C   0  0  0  0  0  0  0  0  0  0  0  0
    0.1006   -0.1326    0.0000 Cl  0  0  0  0  0  0  0  0  0  0  0  0
   -0.6185    1.1022    0.0000 O   0  0  0  0  0  0  0  0  0  0  0  0
  1  2  2  0  0  0  0
  2  3  1  0  0  0  0
  3 10  1  0  0  0  0
  3  4  2  0  0  0  0
  4  6  1  0  0  0  0
  5  6  1  0  0  0  0
  5  1  1  0  0  0  0
  6  7  2  0  0  0  0
  7  8  1  0  0  0  0
  8  9  1  0  0  0  0
  9  5  2  0  0  0  0
 10 11  1  0  0  0  0
 10 12  2  0  0  0  0
M  END
>  <MOLFORMULA>
C7 H3 Cl N2 O2

>  <MOLWEIGHT>
1.825657000000000e+002

>  <code>
CC09702

>  <appearance>
solid

>  <purity>
95%

>  <product_name>
2,1,3-benzoxadiazole-5-carbonyl chloride

>  <cansmi>
ClC(=O)c1ccc2c(c1)non2

>  <HBA2>
4

>  <HBD>
0

>  <logP>
1.6018

>  <TPSA>
55.99

>  <MW>
182.564

$$$$

 OpenBabel02131616352D

  9  9  0  0  0  0  0  0  0  0999 V2000
    4.3599   -3.5480    0.0000 O   0  0  0  0  0  0  0  0  0  0  0  0
    3.6857   -3.0649    0.0000 C   0  0  0  0  0  0  0  0  0  0  0  0
    3.9482   -2.2758    0.0000 N   0  0  0  0  0  0  0  0  0  0  0  0
    4.7661   -2.2814    0.0000 C   0  0  0  0  0  0  0  0  0  0  0  0
    5.0256   -3.0643    0.0000 C   0  0  0  0  0  0  0  0  0  0  0  0
    5.2514   -1.6142    0.0000 C   0  0  0  0  0  0  0  0  0  0  0  0
    5.8110   -3.3169    0.0000 C   0  0  0  0  0  0  0  0  0  0  0  0
    5.9849   -4.1234    0.0000 O   0  0  0  0  0  0  0  0  0  0  0  0
    6.4224   -2.7631    0.0000 Cl  0  0  0  0  0  0  0  0  0  0  0  0
  1  2  1  0  0  0  0
  2  3  2  0  0  0  0
  3  4  1  0  0  0  0
  4  5  2  0  0  0  0
  4  6  1  0  0  0  0
  5  1  1  0  0  0  0
  5  7  1  0  0  0  0
  7  8  2  0  0  0  0
  7  9  1  0  0  0  0
M  END
>  <MOLFORMULA>
C5 H4 Cl N O2

>  <MOLWEIGHT>
1.455446000000000e+002

>  <code>
CC10002

>  <appearance>
Liquid

>  <purity>
97%

>  <product_name>
4-Methyloxazole-5-carbonyl chloride

>  <cansmi>
Cc1ncoc1C(=O)Cl

>  <HBA2>
3

>  <HBD>
0

>  <logP>
1.362

>  <TPSA>
43.1

>  <MW>
145.544

$$$$

 OpenBabel02131616352D

  8  8  0  0  0  0  0  0  0  0999 V2000
   -2.0667   -0.1291    0.0000 O   0  0  0  0  0  0  0  0  0  0  0  0
   -1.3974    0.3533    0.0000 C   0  0  0  0  0  0  0  0  0  0  0  0
   -1.6542    1.1416    0.0000 C   0  0  0  0  0  0  0  0  0  0  0  0
   -2.4792    1.1416    0.0000 C   0  0  0  0  0  0  0  0  0  0  0  0
   -2.7360    0.3533    0.0000 N   0  0  0  0  0  0  0  0  0  0  0  0
   -0.6131    0.0972    0.0000 C   0  0  0  0  0  0  0  0  0  0  0  0
   -0.4428   -0.7100    0.0000 O   0  0  0  0  0  0  0  0  0  0  0  0
    0.0008    0.6484    0.0000 Cl  0  0  0  0  0  0  0  0  0  0  0  0
  1  2  1  0  0  0  0
  2  6  1  0  0  0  0
  2  3  2  0  0  0  0
  3  4  1  0  0  0  0
  4  5  2  0  0  0  0
  5  1  1  0  0  0  0
  6  7  2  0  0  0  0
  6  8  1  0  0  0  0
M  END
>  <MOLFORMULA>
C4 H2 Cl N O2

>  <MOLWEIGHT>
1.315178000000000e+002

>  <code>
CC10302

>  <appearance>
liquid

>  <purity>
90%

>  <product_name>
isoxazole-5-carbonyl chloride

>  <cansmi>
ClC(=O)c1ccno1

>  <HBA2>
3

>  <HBD>
0

>  <logP>
1.0536

>  <TPSA>
43.1

>  <MW>
131.517

$$$$

 OpenBabel02131616352D

  9  9  0  0  0  0  0  0  0  0999 V2000
   -1.4583   -2.1042    0.0000 O   0  0  0  0  0  0  0  0  0  0  0  0
   -0.7890   -1.6217    0.0000 N   0  0  0  0  0  0  0  0  0  0  0  0
   -1.0458   -0.8334    0.0000 C   0  0  0  0  0  0  0  0  0  0  0  0
   -1.8708   -0.8334    0.0000 C   0  0  0  0  0  0  0  0  0  0  0  0
   -2.1276   -1.6217    0.0000 C   0  0  0  0  0  0  0  0  0  0  0  0
   -2.9118   -1.8778    0.0000 C   0  0  0  0  0  0  0  0  0  0  0  0
   -0.5611   -0.1658    0.0000 C   0  0  0  0  0  0  0  0  0  0  0  0
    0.2594   -0.2517    0.0000 Cl  0  0  0  0  0  0  0  0  0  0  0  0
   -0.8970    0.5878    0.0000 O   0  0  0  0  0  0  0  0  0  0  0  0
  1  2  1  0  0  0  0
  2  3  2  0  0  0  0
  3  4  1  0  0  0  0
  3  7  1  0  0  0  0
  4  5  2  0  0  0  0
  5  1  1  0  0  0  0
  5  6  1  0  0  0  0
  7  8  1  0  0  0  0
  7  9  2  0  0  0  0
M  END
>  <MOLFORMULA>
C5 H4 Cl N O2

>  <MOLWEIGHT>
1.455446000000000e+002

>  <code>
CC10402

>  <appearance>
solid

>  <purity>
97%

>  <product_name>
5-methylisoxazole-3-carbonyl chloride

>  <cansmi>
Cc1cc(no1)C(=O)Cl

>  <HBA2>
3

>  <HBD>
0

>  <logP>
1.362

>  <TPSA>
43.1

>  <MW>
145.544

$$$$

 OpenBabel02131616352D

 14 15  0  0  0  0  0  0  0  0999 V2000
   -1.5000    0.6583    0.0000 S   0  0  0  0  0  0  0  0  0  0  0  0
   -0.8307    1.1408    0.0000 C   0  0  0  0  0  0  0  0  0  0  0  0
   -1.0875    1.9291    0.0000 C   0  0  0  0  0  0  0  0  0  0  0  0
   -1.9125    1.9291    0.0000 C   0  0  0  0  0  0  0  0  0  0  0  0
   -2.1693    1.1408    0.0000 C   0  0  0  0  0  0  0  0  0  0  0  0
   -2.9535    0.8847    0.0000 C   0  0  0  0  0  0  0  0  0  0  0  0
   -0.0464    0.8847    0.0000 C   0  0  0  0  0  0  0  0  0  0  0  0
    0.1239    0.0775    0.0000 O   0  0  0  0  0  0  0  0  0  0  0  0
    0.5675    1.4358    0.0000 Cl  0  0  0  0  0  0  0  0  0  0  0  0
   -3.5639    1.4372    0.0000 C   0  0  0  0  0  0  0  0  0  0  0  0
   -4.3475    1.1817    0.0000 C   0  0  0  0  0  0  0  0  0  0  0  0
   -4.5185    0.3737    0.0000 C   0  0  0  0  0  0  0  0  0  0  0  0
   -3.8996   -0.1783    0.0000 C   0  0  0  0  0  0  0  0  0  0  0  0
   -3.1184    0.0802    0.0000 C   0  0  0  0  0  0  0  0  0  0  0  0
  1  2  1  0  0  0  0
  2  7  1  0  0  0  0
  2  3  2  0  0  0  0
  3  4  1  0  0  0  0
  4  5  2  0  0  0  0
  5  1  1  0  0  0  0
  5  6  1  0  0  0  0
  6 10  2  0  0  0  0
  7  8  2  0  0  0  0
  7  9  1  0  0  0  0
 10 11  1  0  0  0  0
 11 12  2  0  0  0  0
 12 13  1  0  0  0  0
 13 14  2  0  0  0  0
 14  6  1  0  0  0  0
M  END
>  <MOLFORMULA>
C11 H7 Cl O S

>  <MOLWEIGHT>
2.226943000000000e+002

>  <code>
CC10502

>  <appearance>
solid

>  <purity>
95%

>  <product_name>
5-phenyl-2-thiophenecarbonyl chloride

>  <cansmi>
ClC(=O)c1ccc(s1)c1ccccc1

>  <HBA2>
2

>  <HBD>
0

>  <logP>
3.7941

>  <TPSA>
45.31

>  <MW>
222.691

$$$$

 OpenBabel02131616352D

 13 14  0  0  0  0  0  0  0  0999 V2000
   -1.9750   -0.3292    0.0000 S   0  0  0  0  0  0  0  0  0  0  0  0
   -1.3057    0.1533    0.0000 C   0  0  0  0  0  0  0  0  0  0  0  0
   -1.5625    0.9416    0.0000 C   0  0  0  0  0  0  0  0  0  0  0  0
   -2.3875    0.9416    0.0000 N   0  0  0  0  0  0  0  0  0  0  0  0
   -2.6443    0.1533    0.0000 C   0  0  0  0  0  0  0  0  0  0  0  0
   -3.4285   -0.1028    0.0000 C   0  0  0  0  0  0  0  0  0  0  0  0
   -4.0989    0.3846    0.0000 C   0  0  0  0  0  0  0  0  0  0  0  0
   -4.7656   -0.1013    0.0000 C   0  0  0  0  0  0  0  0  0  0  0  0
   -4.5095   -0.8856    0.0000 C   0  0  0  0  0  0  0  0  0  0  0  0
   -3.6845   -0.8842    0.0000 S   0  0  0  0  0  0  0  0  0  0  0  0
   -1.0778    1.6092    0.0000 C   0  0  0  0  0  0  0  0  0  0  0  0
   -0.2573    1.5233    0.0000 Cl  0  0  0  0  0  0  0  0  0  0  0  0
   -1.4136    2.3628    0.0000 O   0  0  0  0  0  0  0  0  0  0  0  0
  1  2  1  0  0  0  0
  2  3  2  0  0  0  0
  3  4  1  0  0  0  0
  3 11  1  0  0  0  0
  4  5  2  0  0  0  0
  5  1  1  0  0  0  0
  5  6  1  0  0  0  0
  6  7  2  0  0  0  0
  7  8  1  0  0  0  0
  8  9  2  0  0  0  0
  9 10  1  0  0  0  0
 10  6  1  0  0  0  0
 11 12  1  0  0  0  0
 11 13  2  0  0  0  0
M  END
>  <MOLFORMULA>
C8 H4 Cl N O S2

>  <MOLWEIGHT>
2.297106000000000e+002

>  <code>
CC11502

>  <appearance>
solid

>  <purity>
97%

>  <product_name>
2-(2-thienyl)-1,3-thiazole-4-carbonyl chloride

>  <cansmi>
ClC(=O)c1csc(n1)c1cccs1

>  <HBA2>
4

>  <HBD>
0

>  <logP>
3.2506

>  <TPSA>
86.44

>  <MW>
229.706

$$$$

 OpenBabel02131616352D

 13 14  0  0  0  0  0  0  0  0999 V2000
    5.6917    2.3750    0.0000 C   0  0  0  0  0  0  0  0  0  0  0  0
    5.1750    2.0708    0.0000 C   0  0  0  0  0  0  0  0  0  0  0  0
    4.6500    2.3708    0.0000 C   0  0  0  0  0  0  0  0  0  0  0  0
    4.1292    2.0625    0.0000 C   0  0  0  0  0  0  0  0  0  0  0  0
    3.6042    2.3625    0.0000 N   0  0  0  0  0  0  0  0  0  0  0  0
    3.6042    1.1583    0.0000 N   0  0  0  0  0  0  0  0  0  0  0  0
    4.1292    1.4583    0.0000 C   0  0  0  0  0  0  0  0  0  0  0  0
    5.6875    2.9833    0.0000 O   0  0  0  0  0  0  0  0  0  0  0  0
    5.1792    1.4625    0.0000 C   0  0  0  0  0  0  0  0  0  0  0  0
    4.6542    1.1583    0.0000 C   0  0  0  0  0  0  0  0  0  0  0  0
    6.2125    2.0833    0.0000 Cl  0  0  0  0  0  0  0  0  0  0  0  0
    3.0917    2.0625    0.0000 C   0  0  0  0  0  0  0  0  0  0  0  0
    3.0917    1.4583    0.0000 C   0  0  0  0  0  0  0  0  0  0  0  0
  2  1  1  0  0  0  0
  3  2  2  0  0  0  0
  4  3  1  0  0  0  0
  5  4  2  0  0  0  0
  6  7  2  0  0  0  0
  7 10  1  0  0  0  0
  7  4  1  0  0  0  0
  8  1  2  0  0  0  0
  9  2  1  0  0  0  0
 10  9  2  0  0  0  0
 11  1  1  0  0  0  0
 12  5  1  0  0  0  0
 13  6  1  0  0  0  0
 13 12  2  0  0  0  0
M  END
>  <MOLFORMULA>
C9 H5 Cl N2 O

>  <MOLWEIGHT>
1.926045000000000e+002

>  <code>
CC11702

>  <appearance>
solid

>  <purity>
97%

>  <product_name>
6-quinoxalinecarbonyl chloride

>  <cansmi>
ClC(=O)c1ccc2c(c1)nccn2

>  <HBA2>
3

>  <HBD>
0

>  <logP>
2.0088

>  <TPSA>
42.85

>  <MW>
192.602

$$$$

 OpenBabel02131616352D

 14 15  0  0  0  0  0  0  0  0999 V2000
    4.0292   -1.6959    0.0000 C   0  0  0  0  0  0  0  0  0  0  0  0
    6.7500   -3.2709    0.0000 C   0  0  0  0  0  0  0  0  0  0  0  0
    4.7125   -2.0875    0.0000 C   0  0  0  0  0  0  0  0  0  0  0  0
    6.0750   -2.8750    0.0000 C   0  0  0  0  0  0  0  0  0  0  0  0
    6.7500   -4.0542    0.0000 O   0  0  0  0  0  0  0  0  0  0  0  0
    5.3917   -3.2709    0.0000 C   0  0  0  0  0  0  0  0  0  0  0  0
    6.0625   -2.0875    0.0000 C   0  0  0  0  0  0  0  0  0  0  0  0
    4.7042   -2.8750    0.0000 C   0  0  0  0  0  0  0  0  0  0  0  0
    5.3833   -1.6959    0.0000 C   0  0  0  0  0  0  0  0  0  0  0  0
    7.4333   -2.8750    0.0000 Cl  0  0  0  0  0  0  0  0  0  0  0  0
    3.9444   -0.9129    0.0000 C   0  0  0  0  0  0  0  0  0  0  0  0
    3.1735   -0.7516    0.0000 C   0  0  0  0  0  0  0  0  0  0  0  0
    2.7818   -1.4349    0.0000 C   0  0  0  0  0  0  0  0  0  0  0  0
    3.3107   -2.0185    0.0000 S   0  0  0  0  0  0  0  0  0  0  0  0
  1 11  2  0  0  0  0
  2  4  1  0  0  0  0
  3  1  1  0  0  0  0
  4  6  2  0  0  0  0
  4  7  1  0  0  0  0
  5  2  2  0  0  0  0
  6  8  1  0  0  0  0
  7  9  2  0  0  0  0
  8  3  2  0  0  0  0
  9  3  1  0  0  0  0
 10  2  1  0  0  0  0
 11 12  1  0  0  0  0
 12 13  2  0  0  0  0
 13 14  1  0  0  0  0
 14  1  1  0  0  0  0
M  END
>  <MOLFORMULA>
C11 H7 Cl O S

>  <MOLWEIGHT>
2.226943000000000e+002

>  <code>
CC12002

>  <appearance>
solid

>  <purity>
97%

>  <product_name>
4-(2-thienyl)benzoyl chloride

>  <cansmi>
ClC(=O)c1ccc(cc1)c1cccs1

>  <HBA2>
2

>  <HBD>
0

>  <logP>
3.7941

>  <TPSA>
45.31

>  <MW>
222.691

$$$$

 OpenBabel02131616352D

 12 13  0  0  0  0  0  0  0  0999 V2000
    4.1467   -4.7955    0.0000 C   0  0  0  0  0  0  0  0  0  0  0  0
    3.8707   -5.5755    0.0000 C   0  0  0  0  0  0  0  0  0  0  0  0
    4.4078   -6.2024    0.0000 C   0  0  0  0  0  0  0  0  0  0  0  0
    4.9551   -4.6426    0.0000 C   0  0  0  0  0  0  0  0  0  0  0  0
    5.8783   -6.5532    0.0000 S   0  0  0  0  0  0  0  0  0  0  0  0
    6.5615   -6.0815    0.0000 C   0  0  0  0  0  0  0  0  0  0  0  0
    6.3239   -5.2861    0.0000 C   0  0  0  0  0  0  0  0  0  0  0  0
    5.4941   -5.2661    0.0000 C   0  0  0  0  0  0  0  0  0  0  0  0
    5.2186   -6.0493    0.0000 C   0  0  0  0  0  0  0  0  0  0  0  0
    7.3398   -6.3553    0.0000 C   0  0  0  0  0  0  0  0  0  0  0  0
    7.4918   -7.1662    0.0000 O   0  0  0  0  0  0  0  0  0  0  0  0
    7.9659   -5.8181    0.0000 Cl  0  0  0  0  0  0  0  0  0  0  0  0
  1  2  1  0  0  0  0
  2  3  2  0  0  0  0
  3  9  1  0  0  0  0
  4  1  2  0  0  0  0
  5  6  1  0  0  0  0
  6  7  2  0  0  0  0
  6 10  1  0  0  0  0
  7  8  1  0  0  0  0
  8  4  1  0  0  0  0
  8  9  2  0  0  0  0
  9  5  1  0  0  0  0
 10 11  2  0  0  0  0
 10 12  1  0  0  0  0
M  END
>  <MOLFORMULA>
C9 H5 Cl O S

>  <MOLWEIGHT>
1.966565000000000e+002

>  <code>
CC12202

>  <appearance>
solid

>  <purity>
97%

>  <product_name>
benzo[b]thiophene-2-carbonyl chloride

>  <cansmi>
ClC(=O)c1cc2c(s1)cccc2

>  <HBA2>
2

>  <HBD>
0

>  <logP>
3.2803

>  <TPSA>
45.31

>  <MW>
196.653

$$$$

 OpenBabel02131616352D

 12 13  0  0  0  0  0  0  0  0999 V2000
    0.6417   -1.7625    0.0000 S   0  0  0  0  0  0  0  0  0  0  0  0
    1.3110   -1.2800    0.0000 C   0  0  0  0  0  0  0  0  0  0  0  0
    1.0542   -0.4917    0.0000 C   0  0  0  0  0  0  0  0  0  0  0  0
   -0.0276   -1.2800    0.0000 C   0  0  0  0  0  0  0  0  0  0  0  0
    0.2311   -0.4943    0.0000 C   0  0  0  0  0  0  0  0  0  0  0  0
   -0.3195    0.1205    0.0000 C   0  0  0  0  0  0  0  0  0  0  0  0
   -1.1289   -0.0492    0.0000 C   0  0  0  0  0  0  0  0  0  0  0  0
   -1.3847   -0.8391    0.0000 C   0  0  0  0  0  0  0  0  0  0  0  0
   -0.8324   -1.4506    0.0000 C   0  0  0  0  0  0  0  0  0  0  0  0
    1.5378    0.1767    0.0000 C   0  0  0  0  0  0  0  0  0  0  0  0
    2.3585    0.0920    0.0000 Cl  0  0  0  0  0  0  0  0  0  0  0  0
    1.2008    0.9297    0.0000 O   0  0  0  0  0  0  0  0  0  0  0  0
  1  2  1  0  0  0  0
  2  3  2  0  0  0  0
  3  5  1  0  0  0  0
  3 10  1  0  0  0  0
  4  1  1  0  0  0  0
  4  5  2  0  0  0  0
  5  6  1  0  0  0  0
  6  7  2  0  0  0  0
  7  8  1  0  0  0  0
  8  9  2  0  0  0  0
  9  4  1  0  0  0  0
 10 11  1  0  0  0  0
 10 12  2  0  0  0  0
M  END
>  <MOLFORMULA>
C9 H5 Cl O S

>  <MOLWEIGHT>
1.966565000000000e+002

>  <code>
CC12302

>  <appearance>
Solid

>  <purity>
90%

>  <product_name>
1-benzothiophene-3-carbonyl chloride

>  <cansmi>
ClC(=O)c1csc2c1cccc2

>  <HBA2>
2

>  <HBD>
0

>  <logP>
3.2803

>  <TPSA>
45.31

>  <MW>
196.653

$$$$

 OpenBabel02131616352D

 10 10  0  0  0  0  0  0  0  0999 V2000
   -2.6583   -1.9667    0.0000 N   0  0  0  0  0  0  0  0  0  0  0  0
   -1.9890   -1.4842    0.0000 C   0  0  0  0  0  0  0  0  0  0  0  0
   -2.2458   -0.6959    0.0000 C   0  0  0  0  0  0  0  0  0  0  0  0
   -3.0708   -0.6959    0.0000 C   0  0  0  0  0  0  0  0  0  0  0  0
   -3.3276   -1.4842    0.0000 N   0  0  0  0  0  0  0  0  0  0  0  0
   -3.5555   -0.0283    0.0000 C   0  0  0  0  0  0  0  0  0  0  0  0
   -2.6583   -2.7917    0.0000 C   0  0  0  0  0  0  0  0  0  0  0  0
   -1.2048   -1.7403    0.0000 C   0  0  0  0  0  0  0  0  0  0  0  0
   -1.0344   -2.5475    0.0000 O   0  0  0  0  0  0  0  0  0  0  0  0
   -0.5908   -1.1892    0.0000 Cl  0  0  0  0  0  0  0  0  0  0  0  0
  1  7  1  0  0  0  0
  1  2  1  0  0  0  0
  2  3  2  0  0  0  0
  2  8  1  0  0  0  0
  3  4  1  0  0  0  0
  4  6  1  0  0  0  0
  4  5  2  0  0  0  0
  5  1  1  0  0  0  0
  8  9  2  0  0  0  0
  8 10  1  0  0  0  0
M  END
>  <MOLFORMULA>
C6 H7 Cl N2 O

>  <MOLWEIGHT>
1.585873000000000e+002

>  <code>
CC12502

>  <appearance>
liquid

>  <purity>
97%

>  <product_name>
1,3-dimethyl-1H-pyrazole-5-carbonyl chloride

>  <cansmi>
Cn1nc(cc1C(=O)Cl)C

>  <HBA2>
3

>  <HBD>
0

>  <logP>
1.1075

>  <TPSA>
34.89

>  <MW>
158.586

$$$$

 OpenBabel02131616352D

 10 10  0  0  0  0  0  0  0  0999 V2000
   -1.7042   -1.4208    0.0000 N   0  0  0  0  0  0  0  0  0  0  0  0
   -1.0349   -0.9384    0.0000 N   0  0  0  0  0  0  0  0  0  0  0  0
   -1.2917   -0.1501    0.0000 C   0  0  0  0  0  0  0  0  0  0  0  0
   -2.1167   -0.1501    0.0000 C   0  0  0  0  0  0  0  0  0  0  0  0
   -2.3735   -0.9384    0.0000 C   0  0  0  0  0  0  0  0  0  0  0  0
   -1.7042   -2.2458    0.0000 C   0  0  0  0  0  0  0  0  0  0  0  0
   -3.1577   -1.1945    0.0000 C   0  0  0  0  0  0  0  0  0  0  0  0
   -0.8070    0.5176    0.0000 C   0  0  0  0  0  0  0  0  0  0  0  0
    0.0135    0.4316    0.0000 Cl  0  0  0  0  0  0  0  0  0  0  0  0
   -1.1429    1.2711    0.0000 O   0  0  0  0  0  0  0  0  0  0  0  0
  1  6  1  0  0  0  0
  1  2  1  0  0  0  0
  2  3  2  0  0  0  0
  3  8  1  0  0  0  0
  3  4  1  0  0  0  0
  4  5  2  0  0  0  0
  5  1  1  0  0  0  0
  5  7  1  0  0  0  0
  8  9  1  0  0  0  0
  8 10  2  0  0  0  0
M  END
>  <MOLFORMULA>
C6 H7 Cl N2 O

>  <MOLWEIGHT>
1.585873000000000e+002

>  <code>
CC12602

>  <appearance>
solid

>  <purity>
97%

>  <product_name>
1,5-dimethyl-1H-pyrazole-3-carbonyl chloride

>  <cansmi>
ClC(=O)c1nn(c(c1)C)C

>  <HBA2>
3

>  <HBD>
0

>  <logP>
1.1075

>  <TPSA>
34.89

>  <MW>
158.586

$$$$

 OpenBabel02131616352D

  8  8  0  0  0  0  0  0  0  0999 V2000
   -1.5959   -1.6667    0.0000 S   0  0  0  0  0  0  0  0  0  0  0  0
   -0.9266   -1.1843    0.0000 C   0  0  0  0  0  0  0  0  0  0  0  0
   -1.1834   -0.3960    0.0000 C   0  0  0  0  0  0  0  0  0  0  0  0
   -2.0084   -0.3960    0.0000 C   0  0  0  0  0  0  0  0  0  0  0  0
   -2.2652   -1.1843    0.0000 C   0  0  0  0  0  0  0  0  0  0  0  0
   -0.6987    0.2717    0.0000 C   0  0  0  0  0  0  0  0  0  0  0  0
    0.1218    0.1857    0.0000 Cl  0  0  0  0  0  0  0  0  0  0  0  0
   -1.0345    1.0252    0.0000 O   0  0  0  0  0  0  0  0  0  0  0  0
  1  2  1  0  0  0  0
  2  3  2  0  0  0  0
  3  4  1  0  0  0  0
  3  6  1  0  0  0  0
  4  5  2  0  0  0  0
  5  1  1  0  0  0  0
  6  7  1  0  0  0  0
  6  8  2  0  0  0  0
M  END
>  <MOLFORMULA>
C5 H3 Cl O S

>  <MOLWEIGHT>
1.465967000000000e+002

>  <code>
CC13102

>  <appearance>
liquid

>  <purity>
97%

>  <product_name>
3-thiophenecarbonyl chloride

>  <cansmi>
ClC(=O)c1cscc1

>  <HBA2>
2

>  <HBD>
0

>  <logP>
2.1271

>  <TPSA>
45.31

>  <MW>
146.595

$$$$

 OpenBabel02131616352D

 14 15  0  0  0  0  0  0  0  0999 V2000
   -2.0375   -1.5167    0.0000 C   0  0  0  0  0  0  0  0  0  0  0  0
   -2.5583   -1.8167    0.0000 C   0  0  0  0  0  0  0  0  0  0  0  0
   -3.5958   -1.8167    0.0000 C   0  0  0  0  0  0  0  0  0  0  0  0
   -3.0750   -1.5167    0.0000 C   0  0  0  0  0  0  0  0  0  0  0  0
   -3.5958   -2.4167    0.0000 C   0  0  0  0  0  0  0  0  0  0  0  0
   -4.0958   -1.4167    0.0000 O   0  0  0  0  0  0  0  0  0  0  0  0
   -4.0583   -2.8167    0.0000 O   0  0  0  0  0  0  0  0  0  0  0  0
   -2.0375   -0.9167    0.0000 O   0  0  0  0  0  0  0  0  0  0  0  0
   -2.5583   -2.4167    0.0000 C   0  0  0  0  0  0  0  0  0  0  0  0
   -3.0750   -2.7167    0.0000 C   0  0  0  0  0  0  0  0  0  0  0  0
   -1.5208   -1.8167    0.0000 Cl  0  0  0  0  0  0  0  0  0  0  0  0
   -4.9458   -2.1417    0.0000 C   0  0  0  0  0  0  0  0  0  0  0  0
   -4.6958   -1.5792    0.0000 C   0  0  0  0  0  0  0  0  0  0  0  0
   -4.6458   -2.7042    0.0000 C   0  0  0  0  0  0  0  0  0  0  0  0
  2  1  1  0  0  0  0
  3  4  2  0  0  0  0
  4  2  1  0  0  0  0
  5 10  2  0  0  0  0
  5  3  1  0  0  0  0
  6  3  1  0  0  0  0
  7  5  1  0  0  0  0
  8  1  2  0  0  0  0
  9  2  2  0  0  0  0
 10  9  1  0  0  0  0
 11  1  1  0  0  0  0
 12 13  1  0  0  0  0
 13  6  1  0  0  0  0
 14  7  1  0  0  0  0
 14 12  1  0  0  0  0
M  END
>  <MOLFORMULA>
C10 H9 Cl O3

>  <MOLWEIGHT>
2.126311000000000e+002

>  <code>
CC13202

>  <appearance>
Solid

>  <purity>
95%

>  <product_name>
3,4-dihydro-2H-1,5-benzodioxepine-7-carbonyl chloride

>  <cansmi>
ClC(=O)c1ccc2c(c1)OCCCO2

>  <HBA2>
3

>  <HBD>
0

>  <logP>
2.2269

>  <TPSA>
35.53

>  <MW>
212.63

$$$$

 OpenBabel02131616352D

 14 15  0  0  0  0  0  0  0  0999 V2000
   12.2167   -2.6875    0.0000 C   0  0  0  0  0  0  0  0  0  0  0  0
   12.2167   -2.0917    0.0000 C   0  0  0  0  0  0  0  0  0  0  0  0
   11.6958   -2.9917    0.0000 N   0  0  0  0  0  0  0  0  0  0  0  0
   13.7708   -1.7875    0.0000 C   0  0  0  0  0  0  0  0  0  0  0  0
   13.2500   -2.0875    0.0000 C   0  0  0  0  0  0  0  0  0  0  0  0
   12.7333   -1.7917    0.0000 C   0  0  0  0  0  0  0  0  0  0  0  0
   12.7333   -2.9875    0.0000 C   0  0  0  0  0  0  0  0  0  0  0  0
   11.6958   -1.7917    0.0000 O   0  0  0  0  0  0  0  0  0  0  0  0
   13.2542   -2.6875    0.0000 C   0  0  0  0  0  0  0  0  0  0  0  0
   13.7667   -1.1875    0.0000 O   0  0  0  0  0  0  0  0  0  0  0  0
   14.2917   -2.0833    0.0000 Cl  0  0  0  0  0  0  0  0  0  0  0  0
   11.1792   -2.0917    0.0000 C   0  0  0  0  0  0  0  0  0  0  0  0
   11.1792   -2.6917    0.0000 C   0  0  0  0  0  0  0  0  0  0  0  0
   11.6958   -3.5917    0.0000 C   0  0  0  0  0  0  0  0  0  0  0  0
  2  1  2  0  0  0  0
  3  1  1  0  0  0  0
  4  5  1  0  0  0  0
  5  9  1  0  0  0  0
  5  6  2  0  0  0  0
  6  2  1  0  0  0  0
  7  1  1  0  0  0  0
  8  2  1  0  0  0  0
  9  7  2  0  0  0  0
 10  4  2  0  0  0  0
 11  4  1  0  0  0  0
 12 13  1  0  0  0  0
 12  8  1  0  0  0  0
 13  3  1  0  0  0  0
 14  3  1  0  0  0  0
M  END
>  <MOLFORMULA>
C10 H10 Cl N O2

>  <MOLWEIGHT>
2.116470000000000e+002

>  <code>
CC13502

>  <appearance>
solid

>  <purity>
TECH

>  <product_name>
4-methyl-3,4-dihydro-2H-1,4-benzoxazine-7-carbonyl chloride

>  <cansmi>
CN1CCOc2c1ccc(c2)C(=O)Cl

>  <HBA2>
3

>  <HBD>
0

>  <logP>
1.9592

>  <TPSA>
29.54

>  <MW>
211.645

$$$$

 OpenBabel02131616352D

 14 14  0  0  0  0  0  0  0  0999 V2000
    6.5514   -5.9875    0.0000 C   0  0  0  0  0  0  0  0  0  0  0  0
    6.5526   -6.8148    0.0000 C   0  0  0  0  0  0  0  0  0  0  0  0
    5.8378   -7.2277    0.0000 C   0  0  0  0  0  0  0  0  0  0  0  0
    5.8396   -5.5747    0.0000 C   0  0  0  0  0  0  0  0  0  0  0  0
    4.3343   -7.0702    0.0000 N   0  0  0  0  0  0  0  0  0  0  0  0
    3.8465   -6.3984    0.0000 C   0  0  0  0  0  0  0  0  0  0  0  0
    4.3348   -5.7270    0.0000 N   0  0  0  0  0  0  0  0  0  0  0  0
    5.1242   -5.9838    0.0000 C   0  0  0  0  0  0  0  0  0  0  0  0
    5.1239   -6.8140    0.0000 C   0  0  0  0  0  0  0  0  0  0  0  0
    7.2660   -5.5751    0.0000 C   0  0  0  0  0  0  0  0  0  0  0  0
    7.2662   -4.7501    0.0000 O   0  0  0  0  0  0  0  0  0  0  0  0
    7.9804   -5.9878    0.0000 Cl  0  0  0  0  0  0  0  0  0  0  0  0
    4.0791   -7.8547    0.0000 C   0  0  0  0  0  0  0  0  0  0  0  0
    6.0583   -8.0792    0.0000 Cl  0  0  0  0  0  0  0  0  0  0  0  0
  1 10  1  0  0  0  0
  1  2  1  0  0  0  0
  2  3  2  0  0  0  0
  3  9  1  0  0  0  0
  4  1  2  0  0  0  0
  5  6  1  0  0  0  0
  5 13  1  0  0  0  0
  6  7  2  0  0  0  0
  7  8  1  0  0  0  0
  8  4  1  0  0  0  0
  8  9  2  0  0  0  0
  9  5  1  0  0  0  0
 10 11  2  0  0  0  0
 10 12  1  0  0  0  0
M  END
>  <MOLFORMULA>
C9 H7 Cl N2 O . Cl H

>  <MOLWEIGHT>
2.310812000000000e+002

>  <code>
CC13652

>  <appearance>
Solid

>  <purity>
90%

>  <product_name>
1-methyl-1H-benzimidazole-5-carbonyl chloride hydrochloride

>  <cansmi>
ClC(=O)c1ccc2c(c1)ncn2C.Cl

>  <HBA2>
3

>  <HBD>
1

>  <logP>
2.7543

>  <TPSA>
34.89

>  <MW>
231.079

$$$$

 OpenBabel02131616352D

 14 15  0  0  0  0  0  0  0  0999 V2000
    5.8500   -3.5666    0.0000 O   0  0  0  0  0  0  0  0  0  0  0  0
    6.5193   -3.0842    0.0000 N   0  0  0  0  0  0  0  0  0  0  0  0
    6.2625   -2.2959    0.0000 C   0  0  0  0  0  0  0  0  0  0  0  0
    5.4375   -2.2959    0.0000 C   0  0  0  0  0  0  0  0  0  0  0  0
    5.1807   -3.0842    0.0000 C   0  0  0  0  0  0  0  0  0  0  0  0
    6.7472   -1.6282    0.0000 C   0  0  0  0  0  0  0  0  0  0  0  0
    7.5677   -1.7142    0.0000 Cl  0  0  0  0  0  0  0  0  0  0  0  0
    6.4113   -0.8747    0.0000 O   0  0  0  0  0  0  0  0  0  0  0  0
    4.3965   -3.3403    0.0000 C   0  0  0  0  0  0  0  0  0  0  0  0
    3.7261   -2.8528    0.0000 N   0  0  0  0  0  0  0  0  0  0  0  0
    3.0594   -3.3388    0.0000 C   0  0  0  0  0  0  0  0  0  0  0  0
    3.3155   -4.1231    0.0000 S   0  0  0  0  0  0  0  0  0  0  0  0
    4.1405   -4.1217    0.0000 C   0  0  0  0  0  0  0  0  0  0  0  0
    2.2744   -3.0850    0.0000 C   0  0  0  0  0  0  0  0  0  0  0  0
  1  2  1  0  0  0  0
  2  3  2  0  0  0  0
  3  4  1  0  0  0  0
  3  6  1  0  0  0  0
  4  5  2  0  0  0  0
  5  9  1  0  0  0  0
  5  1  1  0  0  0  0
  6  7  1  0  0  0  0
  6  8  2  0  0  0  0
  9 10  1  0  0  0  0
 10 11  2  0  0  0  0
 11 12  1  0  0  0  0
 11 14  1  0  0  0  0
 12 13  1  0  0  0  0
 13  9  2  0  0  0  0
M  END
>  <MOLFORMULA>
C8 H5 Cl N2 O2 S

>  <MOLWEIGHT>
2.286585000000000e+002

>  <code>
CC14002

>  <appearance>
solid

>  <purity>
97%

>  <product_name>
5-(2-methyl-1,3-thiazol-4-yl)-3-isoxazolecarbonyl chloride

>  <cansmi>
Cc1scc(n1)c1onc(c1)C(=O)Cl

>  <HBA2>
5

>  <HBD>
0

>  <logP>
2.4855

>  <TPSA>
84.23

>  <MW>
228.656

$$$$

 OpenBabel02131616352D

 13 14  0  0  0  0  0  0  0  0999 V2000
   -0.2750   -4.6500    0.0000 S   0  0  0  0  0  0  0  0  0  0  0  0
   -0.7958   -4.9542    0.0000 C   0  0  0  0  0  0  0  0  0  0  0  0
    0.2417   -4.9500    0.0000 C   0  0  0  0  0  0  0  0  0  0  0  0
   -1.3125   -4.6542    0.0000 C   0  0  0  0  0  0  0  0  0  0  0  0
    0.7625   -4.6500    0.0000 C   0  0  0  0  0  0  0  0  0  0  0  0
    0.2417   -5.5500    0.0000 C   0  0  0  0  0  0  0  0  0  0  0  0
   -0.7958   -5.5542    0.0000 C   0  0  0  0  0  0  0  0  0  0  0  0
   -1.8333   -4.9542    0.0000 S   0  0  0  0  0  0  0  0  0  0  0  0
   -1.3083   -4.0542    0.0000 C   0  0  0  0  0  0  0  0  0  0  0  0
   -2.3458   -4.6500    0.0000 C   0  0  0  0  0  0  0  0  0  0  0  0
    0.7625   -4.0500    0.0000 O   0  0  0  0  0  0  0  0  0  0  0  0
   -2.3458   -4.0500    0.0000 C   0  0  0  0  0  0  0  0  0  0  0  0
    1.2792   -4.9500    0.0000 Cl  0  0  0  0  0  0  0  0  0  0  0  0
  2  1  1  0  0  0  0
  3  1  1  0  0  0  0
  4  2  1  0  0  0  0
  5  3  1  0  0  0  0
  6  3  2  0  0  0  0
  7  2  2  0  0  0  0
  7  6  1  0  0  0  0
  8  4  1  0  0  0  0
  9  4  2  0  0  0  0
 10  8  1  0  0  0  0
 10 12  2  0  0  0  0
 11  5  2  0  0  0  0
 12  9  1  0  0  0  0
 13  5  1  0  0  0  0
M  END
>  <MOLFORMULA>
C9 H5 Cl O S2

>  <MOLWEIGHT>
2.287225000000000e+002

>  <code>
CC14602

>  <appearance>
solid

>  <purity>
97%

>  <product_name>
2,2'-bithiophene-5-carbonyl chloride

>  <cansmi>
ClC(=O)c1ccc(s1)c1cccs1

>  <HBA2>
3

>  <HBD>
0

>  <logP>
3.8556

>  <TPSA>
73.55

>  <MW>
228.718

$$$$

 OpenBabel02131616352D

 15 16  0  0  0  0  0  0  0  0999 V2000
   -1.6708   -0.7917    0.0000 O   0  0  0  0  0  0  0  0  0  0  0  0
   -1.0015   -0.3092    0.0000 C   0  0  0  0  0  0  0  0  0  0  0  0
   -1.2583    0.4791    0.0000 C   0  0  0  0  0  0  0  0  0  0  0  0
   -2.0833    0.4791    0.0000 C   0  0  0  0  0  0  0  0  0  0  0  0
   -2.3401   -0.3092    0.0000 C   0  0  0  0  0  0  0  0  0  0  0  0
   -0.2173   -0.5653    0.0000 C   0  0  0  0  0  0  0  0  0  0  0  0
   -3.1243   -0.5653    0.0000 C   0  0  0  0  0  0  0  0  0  0  0  0
   -3.7347   -0.0128    0.0000 C   0  0  0  0  0  0  0  0  0  0  0  0
   -4.5183   -0.2683    0.0000 C   0  0  0  0  0  0  0  0  0  0  0  0
   -4.6893   -1.0763    0.0000 C   0  0  0  0  0  0  0  0  0  0  0  0
   -4.0704   -1.6283    0.0000 C   0  0  0  0  0  0  0  0  0  0  0  0
   -3.2892   -1.3698    0.0000 C   0  0  0  0  0  0  0  0  0  0  0  0
   -0.7736    1.1467    0.0000 C   0  0  0  0  0  0  0  0  0  0  0  0
    0.0469    1.0608    0.0000 Cl  0  0  0  0  0  0  0  0  0  0  0  0
   -1.1095    1.9003    0.0000 O   0  0  0  0  0  0  0  0  0  0  0  0
  1  2  1  0  0  0  0
  2  3  2  0  0  0  0
  2  6  1  0  0  0  0
  3  4  1  0  0  0  0
  3 13  1  0  0  0  0
  4  5  2  0  0  0  0
  5  1  1  0  0  0  0
  5  7  1  0  0  0  0
  7  8  2  0  0  0  0
  8  9  1  0  0  0  0
  9 10  2  0  0  0  0
 10 11  1  0  0  0  0
 11 12  2  0  0  0  0
 12  7  1  0  0  0  0
 13 14  1  0  0  0  0
 13 15  2  0  0  0  0
M  END
>  <MOLFORMULA>
C12 H9 Cl O2

>  <MOLWEIGHT>
2.206541000000000e+002

>  <code>
CC14902

>  <appearance>
solid

>  <purity>
97%

>  <product_name>
2-methyl-5-phenylfuran-3-carbonyl chloride

>  <cansmi>
ClC(=O)c1cc(oc1C)c1ccccc1

>  <HBA2>
2

>  <HBD>
0

>  <logP>
3.634

>  <TPSA>
30.21

>  <MW>
220.652

$$$$

 OpenBabel02131616352D

 15 16  0  0  0  0  0  0  0  0999 V2000
   -2.2667   -0.1583    0.0000 N   0  0  0  0  0  0  0  0  0  0  0  0
   -1.5974    0.3242    0.0000 N   0  0  0  0  0  0  0  0  0  0  0  0
   -1.8542    1.1125    0.0000 C   0  0  0  0  0  0  0  0  0  0  0  0
   -2.6792    1.1125    0.0000 C   0  0  0  0  0  0  0  0  0  0  0  0
   -2.9360    0.3242    0.0000 N   0  0  0  0  0  0  0  0  0  0  0  0
   -3.1638    1.7801    0.0000 C   0  0  0  0  0  0  0  0  0  0  0  0
   -1.3695    1.7801    0.0000 C   0  0  0  0  0  0  0  0  0  0  0  0
   -0.5490    1.6942    0.0000 Cl  0  0  0  0  0  0  0  0  0  0  0  0
   -1.7053    2.5336    0.0000 O   0  0  0  0  0  0  0  0  0  0  0  0
   -2.2667   -0.9833    0.0000 C   0  0  0  0  0  0  0  0  0  0  0  0
   -2.9835   -1.3939    0.0000 C   0  0  0  0  0  0  0  0  0  0  0  0
   -2.9838   -2.2182    0.0000 C   0  0  0  0  0  0  0  0  0  0  0  0
   -2.2688   -2.6315    0.0000 C   0  0  0  0  0  0  0  0  0  0  0  0
   -1.5520   -2.2146    0.0000 C   0  0  0  0  0  0  0  0  0  0  0  0
   -1.5552   -1.3917    0.0000 C   0  0  0  0  0  0  0  0  0  0  0  0
  1  2  1  0  0  0  0
  1 10  1  0  0  0  0
  2  3  2  0  0  0  0
  3  4  1  0  0  0  0
  3  7  1  0  0  0  0
  4  6  1  0  0  0  0
  4  5  2  0  0  0  0
  5  1  1  0  0  0  0
  7  8  1  0  0  0  0
  7  9  2  0  0  0  0
 10 11  2  0  0  0  0
 11 12  1  0  0  0  0
 12 13  2  0  0  0  0
 13 14  1  0  0  0  0
 14 15  2  0  0  0  0
 15 10  1  0  0  0  0
M  END
>  <MOLFORMULA>
C10 H8 Cl N3 O

>  <MOLWEIGHT>
2.216462000000000e+002

>  <code>
CC16202

>  <appearance>
solid

>  <purity>
97%

>  <product_name>
5-methyl-2-phenyl-2H-1,2,3-triazole-4-carbonyl chloride

>  <cansmi>
ClC(=O)c1nn(nc1C)c1ccccc1

>  <HBA2>
4

>  <HBD>
0

>  <logP>
1.9547

>  <TPSA>
47.78

>  <MW>
221.643

$$$$

 OpenBabel02131616352D

 14 15  0  0  0  0  0  0  0  0999 V2000
    7.6909   -6.8179    0.0000 C   0  0  0  0  0  0  0  0  0  0  0  0
    5.5324   -5.5839    0.0000 C   0  0  0  0  0  0  0  0  0  0  0  0
    6.9712   -6.4034    0.0000 C   0  0  0  0  0  0  0  0  0  0  0  0
    8.4070   -6.3997    0.0000 Cl  0  0  0  0  0  0  0  0  0  0  0  0
    5.5298   -6.4056    0.0000 C   0  0  0  0  0  0  0  0  0  0  0  0
    6.2484   -5.1657    0.0000 C   0  0  0  0  0  0  0  0  0  0  0  0
    6.9618   -5.5694    0.0000 C   0  0  0  0  0  0  0  0  0  0  0  0
    6.2552   -6.8216    0.0000 C   0  0  0  0  0  0  0  0  0  0  0  0
    7.6940   -7.6412    0.0000 O   0  0  0  0  0  0  0  0  0  0  0  0
    4.8193   -5.1754    0.0000 C   0  0  0  0  0  0  0  0  0  0  0  0
    4.7324   -4.3606    0.0000 N   0  0  0  0  0  0  0  0  0  0  0  0
    3.9290   -4.1922    0.0000 N   0  0  0  0  0  0  0  0  0  0  0  0
    3.5184   -4.9018    0.0000 S   0  0  0  0  0  0  0  0  0  0  0  0
    4.0691   -5.5105    0.0000 C   0  0  0  0  0  0  0  0  0  0  0  0
  1  3  1  0  0  0  0
  2 10  1  0  0  0  0
  3  8  2  0  0  0  0
  3  7  1  0  0  0  0
  4  1  1  0  0  0  0
  5  2  2  0  0  0  0
  6  2  1  0  0  0  0
  7  6  2  0  0  0  0
  8  5  1  0  0  0  0
  9  1  2  0  0  0  0
 10 11  1  0  0  0  0
 11 12  2  0  0  0  0
 12 13  1  0  0  0  0
 13 14  1  0  0  0  0
 14 10  2  0  0  0  0
M  END
>  <MOLFORMULA>
C9 H5 Cl N2 O S

>  <MOLWEIGHT>
2.246705000000000e+002

>  <code>
CC16402

>  <appearance>
solid

>  <purity>
97%

>  <product_name>
4-(1,2,3-thiadiazol-4-yl)benzoyl chloride

>  <cansmi>
ClC(=O)c1ccc(cc1)c1csnn1

>  <HBA2>
4

>  <HBD>
0

>  <logP>
2.5841

>  <TPSA>
71.09

>  <MW>
224.667

$$$$

 OpenBabel02131616352D

 15 16  0  0  0  0  0  0  0  0999 V2000
   -3.6333   -2.1042    0.0000 C   0  0  0  0  0  0  0  0  0  0  0  0
   -2.6000   -1.5042    0.0000 C   0  0  0  0  0  0  0  0  0  0  0  0
   -3.1208   -2.4042    0.0000 N   0  0  0  0  0  0  0  0  0  0  0  0
   -4.1583   -2.4042    0.0000 N   0  0  0  0  0  0  0  0  0  0  0  0
   -2.0833   -1.2042    0.0000 C   0  0  0  0  0  0  0  0  0  0  0  0
   -2.6000   -2.1042    0.0000 C   0  0  0  0  0  0  0  0  0  0  0  0
   -3.1208   -1.2042    0.0000 C   0  0  0  0  0  0  0  0  0  0  0  0
   -3.6375   -1.5042    0.0000 C   0  0  0  0  0  0  0  0  0  0  0  0
   -2.0833   -0.6042    0.0000 O   0  0  0  0  0  0  0  0  0  0  0  0
   -5.1875   -3.0042    0.0000 O   0  0  0  0  0  0  0  0  0  0  0  0
   -1.5583   -1.5042    0.0000 Cl  0  0  0  0  0  0  0  0  0  0  0  0
   -4.6750   -2.1042    0.0000 C   0  0  0  0  0  0  0  0  0  0  0  0
   -4.1583   -3.0042    0.0000 C   0  0  0  0  0  0  0  0  0  0  0  0
   -5.1875   -2.4042    0.0000 C   0  0  0  0  0  0  0  0  0  0  0  0
   -4.6750   -3.3042    0.0000 C   0  0  0  0  0  0  0  0  0  0  0  0
  2  7  1  0  0  0  0
  2  6  2  0  0  0  0
  3  1  2  0  0  0  0
  4  1  1  0  0  0  0
  5  2  1  0  0  0  0
  6  3  1  0  0  0  0
  7  8  2  0  0  0  0
  8  1  1  0  0  0  0
  9  5  2  0  0  0  0
 10 15  1  0  0  0  0
 10 14  1  0  0  0  0
 11  5  1  0  0  0  0
 12  4  1  0  0  0  0
 13  4  1  0  0  0  0
 14 12  1  0  0  0  0
 15 13  1  0  0  0  0
M  END
>  <MOLFORMULA>
C10 H11 Cl N2 O2

>  <MOLWEIGHT>
2.266619000000000e+002

>  <code>
CC17502

>  <appearance>
solid

>  <purity>
90%

>  <product_name>
6-morpholinonicotinoyl chloride

>  <cansmi>
ClC(=O)c1ccc(nc1)N1CCOCC1

>  <HBA2>
4

>  <HBD>
0

>  <logP>
1.3622

>  <TPSA>
42.43

>  <MW>
226.66

$$$$

 OpenBabel02131616352D

 14 15  0  0  0  0  0  0  0  0999 V2000
   -2.9750  -14.5375    0.0000 C   0  0  0  0  0  0  0  0  0  0  0  0
   -3.9208  -14.5417    0.0000 N   0  0  0  0  0  0  0  0  0  0  0  0
   -2.0333  -14.5417    0.0000 S   0  0  0  0  0  0  0  0  0  0  0  0
   -2.5042  -14.2625    0.0000 C   0  0  0  0  0  0  0  0  0  0  0  0
   -1.5625  -14.2583    0.0000 C   0  0  0  0  0  0  0  0  0  0  0  0
   -2.9750  -15.0833    0.0000 C   0  0  0  0  0  0  0  0  0  0  0  0
   -3.9167  -15.0875    0.0000 C   0  0  0  0  0  0  0  0  0  0  0  0
   -3.4458  -15.3625    0.0000 S   0  0  0  0  0  0  0  0  0  0  0  0
   -2.5042  -13.7167    0.0000 C   0  0  0  0  0  0  0  0  0  0  0  0
   -1.0833  -14.5292    0.0000 C   0  0  0  0  0  0  0  0  0  0  0  0
   -1.5625  -13.7125    0.0000 C   0  0  0  0  0  0  0  0  0  0  0  0
   -1.0792  -15.0750    0.0000 O   0  0  0  0  0  0  0  0  0  0  0  0
   -0.6125  -14.2500    0.0000 Cl  0  0  0  0  0  0  0  0  0  0  0  0
   -4.3917  -15.3583    0.0000 C   0  0  0  0  0  0  0  0  0  0  0  0
  2  1  1  0  0  0  0
  3  4  1  0  0  0  0
  4  1  1  0  0  0  0
  5  3  1  0  0  0  0
  5 11  2  0  0  0  0
  6  1  2  0  0  0  0
  7  2  2  0  0  0  0
  7  8  1  0  0  0  0
  8  6  1  0  0  0  0
  9  4  2  0  0  0  0
 10  5  1  0  0  0  0
 11  9  1  0  0  0  0
 12 10  2  0  0  0  0
 13 10  1  0  0  0  0
 14  7  1  0  0  0  0
M  END
>  <MOLFORMULA>
C9 H6 Cl N O S2

>  <MOLWEIGHT>
2.437370000000000e+002

>  <code>
CC18202

>  <appearance>
solid

>  <purity>
90%

>  <product_name>
5-(2-methyl-1,3-thiazol-4-yl)-2-thiophenecarbonyl chloride

>  <cansmi>
Cc1scc(n1)c1ccc(s1)C(=O)Cl

>  <HBA2>
4

>  <HBD>
0

>  <logP>
3.559

>  <TPSA>
86.44

>  <MW>
243.733

$$$$

 OpenBabel02131616352D

 14 15  0  0  0  0  0  0  0  0999 V2000
    0.0792   -1.5583    0.0000 S   0  0  0  0  0  0  0  0  0  0  0  0
    0.7485   -1.0758    0.0000 C   0  0  0  0  0  0  0  0  0  0  0  0
    0.4917   -0.2875    0.0000 C   0  0  0  0  0  0  0  0  0  0  0  0
   -0.3333   -0.2875    0.0000 N   0  0  0  0  0  0  0  0  0  0  0  0
   -0.5901   -1.0758    0.0000 C   0  0  0  0  0  0  0  0  0  0  0  0
    0.9764    0.3801    0.0000 C   0  0  0  0  0  0  0  0  0  0  0  0
    1.7969    0.2942    0.0000 Cl  0  0  0  0  0  0  0  0  0  0  0  0
    0.6405    1.1337    0.0000 O   0  0  0  0  0  0  0  0  0  0  0  0
   -1.3743   -1.3319    0.0000 C   0  0  0  0  0  0  0  0  0  0  0  0
   -1.9847   -0.7794    0.0000 C   0  0  0  0  0  0  0  0  0  0  0  0
   -2.7683   -1.0349    0.0000 C   0  0  0  0  0  0  0  0  0  0  0  0
   -2.9393   -1.8429    0.0000 C   0  0  0  0  0  0  0  0  0  0  0  0
   -2.3204   -2.3949    0.0000 C   0  0  0  0  0  0  0  0  0  0  0  0
   -1.5392   -2.1364    0.0000 C   0  0  0  0  0  0  0  0  0  0  0  0
  1  2  1  0  0  0  0
  2  3  2  0  0  0  0
  3  4  1  0  0  0  0
  3  6  1  0  0  0  0
  4  5  2  0  0  0  0
  5  9  1  0  0  0  0
  5  1  1  0  0  0  0
  6  7  1  0  0  0  0
  6  8  2  0  0  0  0
  9 10  2  0  0  0  0
 10 11  1  0  0  0  0
 11 12  2  0  0  0  0
 12 13  1  0  0  0  0
 13 14  2  0  0  0  0
 14  9  1  0  0  0  0
M  END
>  <MOLFORMULA>
C10 H6 Cl N O S

>  <MOLWEIGHT>
2.236824000000000e+002

>  <code>
CC18302

>  <appearance>
solid

>  <purity>
95%

>  <product_name>
2-phenyl-1,3-thiazole-4-carbonyl chloride

>  <cansmi>
ClC(=O)c1csc(n1)c1ccccc1

>  <HBA2>
3

>  <HBD>
0

>  <logP>
3.1891

>  <TPSA>
58.2

>  <MW>
223.679

$$$$

 OpenBabel02131616352D

 14 15  0  0  0  0  0  0  0  0999 V2000
    4.5444   -3.0292    0.0000 C   0  0  0  0  0  0  0  0  0  0  0  0
    4.5433   -2.2018    0.0000 C   0  0  0  0  0  0  0  0  0  0  0  0
    5.2581   -1.7889    0.0000 C   0  0  0  0  0  0  0  0  0  0  0  0
    5.9745   -2.2023    0.0000 C   0  0  0  0  0  0  0  0  0  0  0  0
    5.9717   -3.0328    0.0000 C   0  0  0  0  0  0  0  0  0  0  0  0
    5.2563   -3.4419    0.0000 C   0  0  0  0  0  0  0  0  0  0  0  0
    6.6846   -3.4480    0.0000 C   0  0  0  0  0  0  0  0  0  0  0  0
    7.4006   -3.0382    0.0000 Cl  0  0  0  0  0  0  0  0  0  0  0  0
    6.6815   -4.2730    0.0000 O   0  0  0  0  0  0  0  0  0  0  0  0
    3.8285   -1.7899    0.0000 N   0  0  0  0  0  0  0  0  0  0  0  0
    3.0736   -2.1246    0.0000 C   0  0  0  0  0  0  0  0  0  0  0  0
    2.5211   -1.5119    0.0000 C   0  0  0  0  0  0  0  0  0  0  0  0
    2.9331   -0.7970    0.0000 C   0  0  0  0  0  0  0  0  0  0  0  0
    3.7401   -0.9681    0.0000 N   0  0  0  0  0  0  0  0  0  0  0  0
  1  2  2  0  0  0  0
  2 10  1  0  0  0  0
  2  3  1  0  0  0  0
  3  4  2  0  0  0  0
  4  5  1  0  0  0  0
  5  7  1  0  0  0  0
  5  6  2  0  0  0  0
  6  1  1  0  0  0  0
  7  8  1  0  0  0  0
  7  9  2  0  0  0  0
 10 11  1  0  0  0  0
 11 12  2  0  0  0  0
 12 13  1  0  0  0  0
 13 14  2  0  0  0  0
 14 10  1  0  0  0  0
M  END
>  <MOLFORMULA>
C10 H7 Cl N2 O

>  <MOLWEIGHT>
2.066313000000000e+002

>  <code>
CC18402

>  <appearance>
solid

>  <purity>
95%

>  <product_name>
4-(1H-pyrazol-1-yl)benzoyl chloride

>  <cansmi>
ClC(=O)c1ccc(cc1)n1cccn1

>  <HBA2>
3

>  <HBD>
0

>  <logP>
2.2513

>  <TPSA>
34.89

>  <MW>
206.628

$$$$

 OpenBabel02131616352D

 15 16  0  0  0  0  0  0  0  0999 V2000
   -1.1514    0.2625    0.0000 C   0  0  0  0  0  0  0  0  0  0  0  0
   -1.1526   -0.5648    0.0000 C   0  0  0  0  0  0  0  0  0  0  0  0
   -0.4378   -0.9777    0.0000 C   0  0  0  0  0  0  0  0  0  0  0  0
    0.2787   -0.5644    0.0000 C   0  0  0  0  0  0  0  0  0  0  0  0
    0.2758    0.2662    0.0000 C   0  0  0  0  0  0  0  0  0  0  0  0
   -0.4396    0.6753    0.0000 C   0  0  0  0  0  0  0  0  0  0  0  0
    0.9887    0.6814    0.0000 C   0  0  0  0  0  0  0  0  0  0  0  0
    1.7047    0.2716    0.0000 Cl  0  0  0  0  0  0  0  0  0  0  0  0
    0.9856    1.5064    0.0000 O   0  0  0  0  0  0  0  0  0  0  0  0
   -1.8660    0.6749    0.0000 C   0  0  0  0  0  0  0  0  0  0  0  0
   -1.9484    1.4996    0.0000 C   0  0  0  0  0  0  0  0  0  0  0  0
   -2.7554    1.6709    0.0000 S   0  0  0  0  0  0  0  0  0  0  0  0
   -3.1678    0.9563    0.0000 C   0  0  0  0  0  0  0  0  0  0  0  0
   -2.6155    0.3434    0.0000 N   0  0  0  0  0  0  0  0  0  0  0  0
   -3.9882    0.8698    0.0000 C   0  0  0  0  0  0  0  0  0  0  0  0
  1 10  1  0  0  0  0
  1  2  2  0  0  0  0
  2  3  1  0  0  0  0
  3  4  2  0  0  0  0
  4  5  1  0  0  0  0
  5  6  2  0  0  0  0
  5  7  1  0  0  0  0
  6  1  1  0  0  0  0
  7  8  1  0  0  0  0
  7  9  2  0  0  0  0
 10 11  2  0  0  0  0
 11 12  1  0  0  0  0
 12 13  1  0  0  0  0
 13 14  2  0  0  0  0
 13 15  1  0  0  0  0
 14 10  1  0  0  0  0
M  END
>  <MOLFORMULA>
C11 H8 Cl N O S

>  <MOLWEIGHT>
2.377092000000000e+002

>  <code>
CC19402

>  <appearance>
Solid

>  <purity>
97%

>  <product_name>
3-(2-Methyl thiazol-4-yl)-benzoyl chloride

>  <cansmi>
Cc1scc(n1)c1cccc(c1)C(=O)Cl

>  <HBA2>
3

>  <HBD>
0

>  <logP>
3.4975

>  <TPSA>
58.2

>  <MW>
237.705

$$$$

 OpenBabel02131616352D

 16 17  0  0  0  0  0  0  0  0999 V2000
   12.5917   -2.2000    0.0000 C   0  0  0  0  0  0  0  0  0  0  0  0
   13.3042   -1.7792    0.0000 C   0  0  0  0  0  0  0  0  0  0  0  0
   11.8875   -3.4417    0.0000 N   0  0  0  0  0  0  0  0  0  0  0  0
   11.1750   -3.0292    0.0000 C   0  0  0  0  0  0  0  0  0  0  0  0
   12.6000   -3.0250    0.0000 C   0  0  0  0  0  0  0  0  0  0  0  0
   13.2917   -0.9542    0.0000 O   0  0  0  0  0  0  0  0  0  0  0  0
   11.8667   -1.7917    0.0000 C   0  0  0  0  0  0  0  0  0  0  0  0
   10.4542   -3.4500    0.0000 O   0  0  0  0  0  0  0  0  0  0  0  0
   14.0167   -2.1875    0.0000 Cl  0  0  0  0  0  0  0  0  0  0  0  0
   11.1667   -2.2125    0.0000 C   0  0  0  0  0  0  0  0  0  0  0  0
    9.7417   -3.0375    0.0000 C   0  0  0  0  0  0  0  0  0  0  0  0
    9.0292   -3.4500    0.0000 C   0  0  0  0  0  0  0  0  0  0  0  0
    9.7417   -2.2042    0.0000 C   0  0  0  0  0  0  0  0  0  0  0  0
    8.3167   -3.0375    0.0000 C   0  0  0  0  0  0  0  0  0  0  0  0
    9.0292   -1.7917    0.0000 C   0  0  0  0  0  0  0  0  0  0  0  0
    8.3167   -2.2125    0.0000 C   0  0  0  0  0  0  0  0  0  0  0  0
  2  1  1  0  0  0  0
  3  5  1  0  0  0  0
  3  4  2  0  0  0  0
  4 10  1  0  0  0  0
  5  1  2  0  0  0  0
  6  2  2  0  0  0  0
  7  1  1  0  0  0  0
  8  4  1  0  0  0  0
  9  2  1  0  0  0  0
 10  7  2  0  0  0  0
 11  8  1  0  0  0  0
 12 11  2  0  0  0  0
 13 11  1  0  0  0  0
 14 12  1  0  0  0  0
 15 13  2  0  0  0  0
 16 15  1  0  0  0  0
 16 14  2  0  0  0  0
M  END
>  <MOLFORMULA>
C12 H8 Cl N O2

>  <MOLWEIGHT>
2.336532000000000e+002

>  <code>
CC19602

>  <appearance>
solid

>  <purity>
97%

>  <product_name>
6-phenoxynicotinoyl chloride

>  <cansmi>
ClC(=O)c1ccc(nc1)Oc1ccccc1

>  <HBA2>
3

>  <HBD>
0

>  <logP>
3.2529

>  <TPSA>
39.19

>  <MW>
233.65

$$$$

 OpenBabel02131616352D

 15 16  0  0  0  0  0  0  0  0999 V2000
   -1.0292    0.6875    0.0000 S   0  0  0  0  0  0  0  0  0  0  0  0
   -0.3599    1.1700    0.0000 C   0  0  0  0  0  0  0  0  0  0  0  0
   -0.6167    1.9583    0.0000 C   0  0  0  0  0  0  0  0  0  0  0  0
   -1.4417    1.9583    0.0000 N   0  0  0  0  0  0  0  0  0  0  0  0
   -1.6985    1.1700    0.0000 C   0  0  0  0  0  0  0  0  0  0  0  0
   -2.4827    0.9139    0.0000 C   0  0  0  0  0  0  0  0  0  0  0  0
   -3.0931    1.4664    0.0000 N   0  0  0  0  0  0  0  0  0  0  0  0
   -3.8767    1.2109    0.0000 C   0  0  0  0  0  0  0  0  0  0  0  0
   -4.0477    0.4029    0.0000 C   0  0  0  0  0  0  0  0  0  0  0  0
   -3.4288   -0.1491    0.0000 N   0  0  0  0  0  0  0  0  0  0  0  0
   -2.6476    0.1094    0.0000 C   0  0  0  0  0  0  0  0  0  0  0  0
   -0.1320    2.6259    0.0000 C   0  0  0  0  0  0  0  0  0  0  0  0
    0.4244    0.9139    0.0000 C   0  0  0  0  0  0  0  0  0  0  0  0
    0.5947    0.1067    0.0000 O   0  0  0  0  0  0  0  0  0  0  0  0
    1.0383    1.4650    0.0000 Cl  0  0  0  0  0  0  0  0  0  0  0  0
  1  2  1  0  0  0  0
  2  3  2  0  0  0  0
  2 13  1  0  0  0  0
  3  4  1  0  0  0  0
  3 12  1  0  0  0  0
  4  5  2  0  0  0  0
  5  1  1  0  0  0  0
  5  6  1  0  0  0  0
  6  7  2  0  0  0  0
  7  8  1  0  0  0  0
  8  9  2  0  0  0  0
  9 10  1  0  0  0  0
 10 11  2  0  0  0  0
 11  6  1  0  0  0  0
 13 14  2  0  0  0  0
 13 15  1  0  0  0  0
M  END
>  <MOLFORMULA>
C9 H6 Cl N3 O S

>  <MOLWEIGHT>
2.396854000000000e+002

>  <code>
CC19802

>  <appearance>
solid

>  <purity>
97%

>  <product_name>
4-methyl-2-(2-pyrazinyl)-1,3-thiazole-5-carbonyl chloride

>  <cansmi>
ClC(=O)c1sc(nc1C)c1cnccn1

>  <HBA2>
5

>  <HBD>
0

>  <logP>
2.2875

>  <TPSA>
83.98

>  <MW>
239.681

$$$$

 OpenBabel02131616352D

 15 16  0  0  0  0  0  0  0  0999 V2000
   -2.3750   -1.3792    0.0000 O   0  0  0  0  0  0  0  0  0  0  0  0
   -1.7057   -0.8967    0.0000 C   0  0  0  0  0  0  0  0  0  0  0  0
   -1.9625   -0.1084    0.0000 C   0  0  0  0  0  0  0  0  0  0  0  0
   -2.7875   -0.1084    0.0000 C   0  0  0  0  0  0  0  0  0  0  0  0
   -3.0443   -0.8967    0.0000 N   0  0  0  0  0  0  0  0  0  0  0  0
   -3.2721    0.5592    0.0000 C   0  0  0  0  0  0  0  0  0  0  0  0
   -1.4778    0.5592    0.0000 C   0  0  0  0  0  0  0  0  0  0  0  0
   -0.6573    0.4733    0.0000 Cl  0  0  0  0  0  0  0  0  0  0  0  0
   -1.8136    1.3128    0.0000 O   0  0  0  0  0  0  0  0  0  0  0  0
   -0.9214   -1.1528    0.0000 C   0  0  0  0  0  0  0  0  0  0  0  0
   -0.7536   -1.9588    0.0000 C   0  0  0  0  0  0  0  0  0  0  0  0
    0.0298   -2.2150    0.0000 C   0  0  0  0  0  0  0  0  0  0  0  0
    0.6447   -1.6636    0.0000 C   0  0  0  0  0  0  0  0  0  0  0  0
    0.4709   -0.8528    0.0000 C   0  0  0  0  0  0  0  0  0  0  0  0
   -0.3123   -0.6004    0.0000 C   0  0  0  0  0  0  0  0  0  0  0  0
  1  2  1  0  0  0  0
  2  3  2  0  0  0  0
  2 10  1  0  0  0  0
  3  4  1  0  0  0  0
  3  7  1  0  0  0  0
  4  6  1  0  0  0  0
  4  5  2  0  0  0  0
  5  1  1  0  0  0  0
  7  8  1  0  0  0  0
  7  9  2  0  0  0  0
 10 11  2  0  0  0  0
 11 12  1  0  0  0  0
 12 13  2  0  0  0  0
 13 14  1  0  0  0  0
 14 15  2  0  0  0  0
 15 10  1  0  0  0  0
M  END
>  <MOLFORMULA>
C11 H8 Cl N O2

>  <MOLWEIGHT>
2.216422000000000e+002

>  <code>
CC20302

>  <appearance>
liquid

>  <purity>
97%

>  <product_name>
3-methyl-5-phenyl-4-isoxazolecarbonyl chloride

>  <cansmi>
ClC(=O)c1c(C)noc1c1ccccc1

>  <HBA2>
3

>  <HBD>
0

>  <logP>
3.029

>  <TPSA>
43.1

>  <MW>
221.64

$$$$

 OpenBabel02131616352D

 15 16  0  0  0  0  0  0  0  0999 V2000
   -1.0139   -7.0375    0.0000 C   0  0  0  0  0  0  0  0  0  0  0  0
   -1.0151   -7.6398    0.0000 C   0  0  0  0  0  0  0  0  0  0  0  0
   -0.4961   -7.9402    0.0000 C   0  0  0  0  0  0  0  0  0  0  0  0
    0.0245   -7.6394    0.0000 C   0  0  0  0  0  0  0  0  0  0  0  0
    0.0216   -7.0338    0.0000 C   0  0  0  0  0  0  0  0  0  0  0  0
   -0.4979   -6.7372    0.0000 C   0  0  0  0  0  0  0  0  0  0  0  0
    0.5398   -6.7314    0.0000 C   0  0  0  0  0  0  0  0  0  0  0  0
    1.0583   -7.0317    0.0000 N   0  0  0  0  0  0  0  0  0  0  0  0
    1.5761   -6.7297    0.0000 C   0  0  0  0  0  0  0  0  0  0  0  0
    1.5736   -6.1291    0.0000 C   0  0  0  0  0  0  0  0  0  0  0  0
    1.0489   -5.8317    0.0000 C   0  0  0  0  0  0  0  0  0  0  0  0
    0.5332   -6.1354    0.0000 C   0  0  0  0  0  0  0  0  0  0  0  0
    2.0914   -5.8259    0.0000 C   0  0  0  0  0  0  0  0  0  0  0  0
    2.6128   -6.1227    0.0000 Cl  0  0  0  0  0  0  0  0  0  0  0  0
    2.0877   -5.2259    0.0000 O   0  0  0  0  0  0  0  0  0  0  0  0
  1  2  2  0  0  0  0
  2  3  1  0  0  0  0
  3  4  2  0  0  0  0
  4  5  1  0  0  0  0
  5  6  2  0  0  0  0
  5  7  1  0  0  0  0
  6  1  1  0  0  0  0
  7  8  2  0  0  0  0
  8  9  1  0  0  0  0
  9 10  2  0  0  0  0
 10 11  1  0  0  0  0
 10 13  1  0  0  0  0
 11 12  2  0  0  0  0
 12  7  1  0  0  0  0
 13 14  1  0  0  0  0
 13 15  2  0  0  0  0
M  END
>  <MOLFORMULA>
C12 H8 Cl N O

>  <MOLWEIGHT>
2.176540000000000e+002

>  <code>
CC21102

>  <appearance>
Solid

>  <purity>
97%

>  <product_name>
6-phenylnicotinoyl chloride

>  <cansmi>
ClC(=O)c1ccc(nc1)c1ccccc1

>  <HBA2>
2

>  <HBD>
0

>  <logP>
3.1276

>  <TPSA>
29.96

>  <MW>
217.651

$$$$

 OpenBabel02131616352D

 14 14  0  0  0  0  0  0  0  0999 V2000
   -0.4084   -1.3750    0.0000 Cl  0  0  0  0  0  0  0  0  0  0  0  0
   -0.4390    0.5617    0.0000 C   0  0  0  0  0  0  0  0  0  0  0  0
   -0.6958    1.3500    0.0000 C   0  0  0  0  0  0  0  0  0  0  0  0
   -1.5208    1.3500    0.0000 N   0  0  0  0  0  0  0  0  0  0  0  0
   -0.2111    2.0176    0.0000 C   0  0  0  0  0  0  0  0  0  0  0  0
    0.3452    0.3056    0.0000 C   0  0  0  0  0  0  0  0  0  0  0  0
    0.5156   -0.5016    0.0000 O   0  0  0  0  0  0  0  0  0  0  0  0
    0.9592    0.8567    0.0000 Cl  0  0  0  0  0  0  0  0  0  0  0  0
   -1.1083    0.0792    0.0000 N   0  0  0  0  0  0  0  0  0  0  0  0
   -1.7823    0.5615    0.0000 C   0  0  0  0  0  0  0  0  0  0  0  0
   -2.5327    0.2208    0.0000 C   0  0  0  0  0  0  0  0  0  0  0  0
   -2.6156   -0.6031    0.0000 C   0  0  0  0  0  0  0  0  0  0  0  0
   -1.9416   -1.0854    0.0000 C   0  0  0  0  0  0  0  0  0  0  0  0
   -1.1848   -0.7437    0.0000 C   0  0  0  0  0  0  0  0  0  0  0  0
  2  3  2  0  0  0  0
  2  6  1  0  0  0  0
  3  4  1  0  0  0  0
  3  5  1  0  0  0  0
  4 10  2  0  0  0  0
  6  7  2  0  0  0  0
  6  8  1  0  0  0  0
  9  2  1  0  0  0  0
  9 10  1  0  0  0  0
  9 14  1  0  0  0  0
 10 11  1  0  0  0  0
 11 12  2  0  0  0  0
 12 13  1  0  0  0  0
 13 14  2  0  0  0  0
M  END
>  <MOLFORMULA>
C9 H7 Cl N2 O . Cl H

>  <MOLWEIGHT>
2.310812000000000e+002

>  <code>
CC21752

>  <purity>
97%

>  <product_name>
2-methylimidazo[1,2-a]pyridine-3-carbonyl chloride hydrochloride

>  <cansmi>
ClC(=O)c1c(C)nc2n1cccc2.Cl

>  <HBA2>
3

>  <HBD>
1

>  <logP>
2.8237

>  <TPSA>
34.37

>  <MW>
231.079

$$$$

 OpenBabel02131616352D

 13 14  0  0  0  0  0  0  0  0999 V2000
   -1.4292   -1.8416    0.0000 S   0  0  0  0  0  0  0  0  0  0  0  0
   -0.7599   -1.3592    0.0000 C   0  0  0  0  0  0  0  0  0  0  0  0
   -1.0167   -0.5709    0.0000 C   0  0  0  0  0  0  0  0  0  0  0  0
   -2.5091   -0.0792    0.0000 C   0  0  0  0  0  0  0  0  0  0  0  0
   -3.1831   -0.5650    0.0000 N   0  0  0  0  0  0  0  0  0  0  0  0
   -2.9293   -1.3561    0.0000 N   0  0  0  0  0  0  0  0  0  0  0  0
   -2.0985   -1.3592    0.0000 C   0  0  0  0  0  0  0  0  0  0  0  0
   -1.8388   -0.5700    0.0000 C   0  0  0  0  0  0  0  0  0  0  0  0
   -3.4167   -2.0217    0.0000 C   0  0  0  0  0  0  0  0  0  0  0  0
   -2.5060    0.7458    0.0000 C   0  0  0  0  0  0  0  0  0  0  0  0
    0.0243   -1.6153    0.0000 C   0  0  0  0  0  0  0  0  0  0  0  0
    0.1947   -2.4225    0.0000 O   0  0  0  0  0  0  0  0  0  0  0  0
    0.6383   -1.0641    0.0000 Cl  0  0  0  0  0  0  0  0  0  0  0  0
  1  2  1  0  0  0  0
  2  3  2  0  0  0  0
  2 11  1  0  0  0  0
  3  8  1  0  0  0  0
  4  5  2  0  0  0  0
  4 10  1  0  0  0  0
  5  6  1  0  0  0  0
  6  7  1  0  0  0  0
  6  9  1  0  0  0  0
  7  1  1  0  0  0  0
  7  8  2  0  0  0  0
  8  4  1  0  0  0  0
 11 12  2  0  0  0  0
 11 13  1  0  0  0  0
M  END
>  <MOLFORMULA>
C8 H7 Cl N2 O S

>  <MOLWEIGHT>
2.146753000000000e+002

>  <code>
CC22902

>  <appearance>
solid

>  <purity>
97%

>  <product_name>
1,3-dimethyl-1H-thieno[2,3-c]pyrazole-5-carbonyl chloride

>  <cansmi>
ClC(=O)c1cc2c(s1)n(nc2C)C

>  <HBA2>
4

>  <HBD>
0

>  <logP>
2.3222

>  <TPSA>
63.13

>  <MW>
214.672

$$$$

 OpenBabel02131616352D

 13 14  0  0  0  0  0  0  0  0999 V2000
    0.1876   -0.2459    0.0000 C   0  0  0  0  0  0  0  0  0  0  0  0
   -0.5291   -0.6625    0.0000 C   0  0  0  0  0  0  0  0  0  0  0  0
   -1.2541   -0.2542    0.0000 C   0  0  0  0  0  0  0  0  0  0  0  0
   -1.2541   -1.9084    0.0000 C   0  0  0  0  0  0  0  0  0  0  0  0
   -0.5291   -1.4958    0.0000 C   0  0  0  0  0  0  0  0  0  0  0  0
    0.1876    0.5874    0.0000 O   0  0  0  0  0  0  0  0  0  0  0  0
    0.9000   -0.6625    0.0000 Cl  0  0  0  0  0  0  0  0  0  0  0  0
   -1.9667   -1.4958    0.0000 C   0  0  0  0  0  0  0  0  0  0  0  0
   -1.9709   -0.6751    0.0000 C   0  0  0  0  0  0  0  0  0  0  0  0
   -2.7509   -0.4271    0.0000 N   0  0  0  0  0  0  0  0  0  0  0  0
   -3.2280   -1.0941    0.0000 N   0  0  0  0  0  0  0  0  0  0  0  0
   -2.7440   -1.7518    0.0000 N   0  0  0  0  0  0  0  0  0  0  0  0
   -2.9919   -2.5360    0.0000 C   0  0  0  0  0  0  0  0  0  0  0  0
  1  2  1  0  0  0  0
  2  3  2  0  0  0  0
  3  9  1  0  0  0  0
  4  8  1  0  0  0  0
  5  2  1  0  0  0  0
  5  4  2  0  0  0  0
  6  1  2  0  0  0  0
  7  1  1  0  0  0  0
  8  9  2  0  0  0  0
  9 10  1  0  0  0  0
 10 11  2  0  0  0  0
 11 12  1  0  0  0  0
 12  8  1  0  0  0  0
 12 13  1  0  0  0  0
M  END
>  <MOLFORMULA>
C8 H6 Cl N3 O

>  <MOLWEIGHT>
1.956084000000000e+002

>  <code>
CC23502

>  <appearance>
solid

>  <purity>
97%

>  <product_name>
1-methyl-1H-1,2,3-benzotriazole-5-carbonyl chloride

>  <cansmi>
ClC(=O)c1ccc2c(c1)nnn2C

>  <HBA2>
4

>  <HBD>
0

>  <logP>
1.3473

>  <TPSA>
47.78

>  <MW>
195.606

$$$$

 OpenBabel02131616352D

 10  9  0  0  0  0  0  0  0  0999 V2000
   -0.5375   -0.4709    0.0000 Cl  0  0  0  0  0  0  0  0  0  0  0  0
   -3.1792   -0.3333    0.0000 N   0  0  0  0  0  0  0  0  0  0  0  0
   -2.5099    0.1492    0.0000 C   0  0  0  0  0  0  0  0  0  0  0  0
   -2.7667    0.9375    0.0000 C   0  0  0  0  0  0  0  0  0  0  0  0
   -3.5917    0.9375    0.0000 N   0  0  0  0  0  0  0  0  0  0  0  0
   -3.8485    0.1492    0.0000 C   0  0  0  0  0  0  0  0  0  0  0  0
   -3.1792   -1.1583    0.0000 C   0  0  0  0  0  0  0  0  0  0  0  0
   -1.7256   -0.1069    0.0000 C   0  0  0  0  0  0  0  0  0  0  0  0
   -1.5553   -0.9142    0.0000 O   0  0  0  0  0  0  0  0  0  0  0  0
   -1.1117    0.4442    0.0000 Cl  0  0  0  0  0  0  0  0  0  0  0  0
  2  3  1  0  0  0  0
  2  7  1  0  0  0  0
  3  4  2  0  0  0  0
  3  8  1  0  0  0  0
  4  5  1  0  0  0  0
  5  6  2  0  0  0  0
  6  2  1  0  0  0  0
  8  9  2  0  0  0  0
  8 10  1  0  0  0  0
M  END
>  <MOLFORMULA>
C5 H5 Cl N2 O . Cl H

>  <MOLWEIGHT>
1.810214000000000e+002

>  <code>
CC23602

>  <appearance>
solid

>  <purity>
TECH

>  <product_name>
1-methyl-1H-imidazole-5-carbonyl chloride hydrochloride

>  <cansmi>
Cn1cncc1C(=O)Cl.Cl

>  <HBA2>
3

>  <HBD>
1

>  <logP>
1.6011

>  <TPSA>
34.89

>  <MW>
181.02

$$$$

 OpenBabel02131616352D

 12 13  0  0  0  0  0  0  0  0999 V2000
   -3.3708    0.7584    0.0000 O   0  0  0  0  0  0  0  0  0  0  0  0
   -2.7015    1.2408    0.0000 C   0  0  3  0  0  0  0  0  0  0  0  0
   -2.9583    2.0291    0.0000 C   0  0  0  0  0  0  0  0  0  0  0  0
   -4.0401    1.2408    0.0000 C   0  0  0  0  0  0  0  0  0  0  0  0
   -3.7814    2.0266    0.0000 C   0  0  0  0  0  0  0  0  0  0  0  0
   -4.3320    2.6414    0.0000 C   0  0  0  0  0  0  0  0  0  0  0  0
   -5.1414    2.4717    0.0000 C   0  0  0  0  0  0  0  0  0  0  0  0
   -5.3972    1.6817    0.0000 C   0  0  0  0  0  0  0  0  0  0  0  0
   -4.8449    1.0703    0.0000 C   0  0  0  0  0  0  0  0  0  0  0  0
   -1.9173    0.9847    0.0000 C   0  0  0  0  0  0  0  0  0  0  0  0
   -1.7469    0.1775    0.0000 O   0  0  0  0  0  0  0  0  0  0  0  0
   -1.3033    1.5359    0.0000 Cl  0  0  0  0  0  0  0  0  0  0  0  0
  1  2  1  0  0  0  0
  2  3  1  0  0  0  0
  2 10  1  0  0  0  0
  3  5  1  0  0  0  0
  4  1  1  0  0  0  0
  4  5  2  0  0  0  0
  5  6  1  0  0  0  0
  6  7  2  0  0  0  0
  7  8  1  0  0  0  0
  8  9  2  0  0  0  0
  9  4  1  0  0  0  0
 10 11  2  0  0  0  0
 10 12  1  0  0  0  0
M  END
>  <MOLFORMULA>
C9 H7 Cl O2

>  <MOLWEIGHT>
1.826053000000000e+002

>  <code>
CC23902

>  <appearance>
liquid

>  <purity>
95%

>  <product_name>
2,3-dihydro-1-benzofuran-2-carbonyl chloride

>  <cansmi>
ClC(=O)C1Cc2c(O1)cccc2

>  <HBA2>
2

>  <HBD>
0

>  <logP>
1.7555

>  <TPSA>
26.3

>  <MW>
182.604

$$$$

 OpenBabel02131616352D

 13 14  0  0  0  0  0  0  0  0999 V2000
    0.5042    0.0583    0.0000 C   0  0  0  0  0  0  0  0  0  0  0  0
   -0.0208    0.3583    0.0000 C   0  0  0  0  0  0  0  0  0  0  0  0
    1.0250    0.3625    0.0000 C   0  0  0  0  0  0  0  0  0  0  0  0
   -0.0208   -0.8417    0.0000 O   0  0  0  0  0  0  0  0  0  0  0  0
   -0.5333    0.0583    0.0000 C   0  0  0  0  0  0  0  0  0  0  0  0
    0.5042   -0.5417    0.0000 C   0  0  0  0  0  0  0  0  0  0  0  0
   -0.5333   -0.5417    0.0000 C   0  0  0  0  0  0  0  0  0  0  0  0
    1.0250    0.9625    0.0000 O   0  0  0  0  0  0  0  0  0  0  0  0
    1.5417    0.0625    0.0000 Cl  0  0  0  0  0  0  0  0  0  0  0  0
   -1.0500    0.3625    0.0000 C   0  0  0  0  0  0  0  0  0  0  0  0
   -1.0500   -0.8417    0.0000 C   0  0  0  0  0  0  0  0  0  0  0  0
   -1.5708    0.0625    0.0000 C   0  0  0  0  0  0  0  0  0  0  0  0
   -1.5708   -0.5417    0.0000 C   0  0  0  0  0  0  0  0  0  0  0  0
  2  1  2  0  0  0  0
  3  1  1  0  0  0  0
  4  6  1  0  0  0  0
  5  2  1  0  0  0  0
  6  1  1  0  0  0  0
  7  4  1  0  0  0  0
  7  5  1  0  0  0  0
  8  3  2  0  0  0  0
  9  3  1  0  0  0  0
 10  5  2  0  0  0  0
 11  7  2  0  0  0  0
 12 10  1  0  0  0  0
 13 11  1  0  0  0  0
 13 12  2  0  0  0  0
M  END
>  <MOLFORMULA>
C10 H7 Cl O2

>  <MOLWEIGHT>
1.946163000000000e+002

>  <code>
CC24102

>  <appearance>
solid

>  <purity>
95%

>  <product_name>
2H-chromene-3-carbonyl chloride

>  <cansmi>
ClC(=O)C1=Cc2c(OC1)cccc2

>  <HBA2>
2

>  <HBD>
0

>  <logP>
2.2278

>  <TPSA>
26.3

>  <MW>
194.614

$$$$

 OpenBabel02131616352D

 14 15  0  0  0  0  0  0  0  0999 V2000
   -3.5250    0.6333    0.0000 N   0  0  0  0  0  0  0  0  0  0  0  0
   -2.8557    1.1158    0.0000 C   0  0  0  0  0  0  0  0  0  0  0  0
   -3.1125    1.9041    0.0000 C   0  0  0  0  0  0  0  0  0  0  0  0
   -3.9375    1.9041    0.0000 C   0  0  0  0  0  0  0  0  0  0  0  0
   -4.1943    1.1158    0.0000 N   0  0  0  0  0  0  0  0  0  0  0  0
   -3.5250   -0.1917    0.0000 C   0  0  0  0  0  0  0  0  0  0  0  0
   -4.2418   -0.6023    0.0000 C   0  0  0  0  0  0  0  0  0  0  0  0
   -4.2422   -1.4265    0.0000 C   0  0  0  0  0  0  0  0  0  0  0  0
   -3.5272   -1.8399    0.0000 C   0  0  0  0  0  0  0  0  0  0  0  0
   -2.8103   -1.4229    0.0000 C   0  0  0  0  0  0  0  0  0  0  0  0
   -2.8135   -0.6001    0.0000 C   0  0  0  0  0  0  0  0  0  0  0  0
   -2.0715    0.8597    0.0000 C   0  0  0  0  0  0  0  0  0  0  0  0
   -1.9011    0.0525    0.0000 O   0  0  0  0  0  0  0  0  0  0  0  0
   -1.4575    1.4108    0.0000 Cl  0  0  0  0  0  0  0  0  0  0  0  0
  1  2  1  0  0  0  0
  1  6  1  0  0  0  0
  2  3  2  0  0  0  0
  2 12  1  0  0  0  0
  3  4  1  0  0  0  0
  4  5  2  0  0  0  0
  5  1  1  0  0  0  0
  6  7  2  0  0  0  0
  7  8  1  0  0  0  0
  8  9  2  0  0  0  0
  9 10  1  0  0  0  0
 10 11  2  0  0  0  0
 11  6  1  0  0  0  0
 12 13  2  0  0  0  0
 12 14  1  0  0  0  0
M  END
>  <MOLFORMULA>
C10 H7 Cl N2 O

>  <MOLWEIGHT>
2.066313000000000e+002

>  <code>
CC24502

>  <appearance>
solid

>  <purity>
97%

>  <product_name>
1-phenyl-1H-pyrazole-5-carbonyl chloride

>  <cansmi>
ClC(=O)c1ccnn1c1ccccc1

>  <HBA2>
3

>  <HBD>
0

>  <logP>
2.2513

>  <TPSA>
34.89

>  <MW>
206.628

$$$$

 OpenBabel02131616352D

 19 20  0  0  0  0  0  0  0  0999 V2000
    4.5601   -2.7348    0.0000 N   0  0  0  0  0  0  0  0  0  0  0  0
    4.5553   -3.5680    0.0000 C   0  0  0  0  0  0  0  0  0  0  0  0
    5.2982   -1.5061    0.0000 C   0  0  3  0  0  0  0  0  0  0  0  0
    6.0159   -1.1207    0.0000 C   0  0  0  0  0  0  0  0  0  0  0  0
    5.2864   -2.3351    0.0000 C   0  0  0  0  0  0  0  0  0  0  0  0
    3.8255   -3.9656    0.0000 O   0  0  0  0  0  0  0  0  0  0  0  0
    5.2589   -3.9907    0.0000 O   0  0  0  0  0  0  0  0  0  0  0  0
    6.7331   -1.5370    0.0000 Cl  0  0  0  0  0  0  0  0  0  0  0  0
    6.0278   -0.2918    0.0000 O   0  0  0  0  0  0  0  0  0  0  0  0
    3.8236   -4.7859    0.0000 C   0  0  0  0  0  0  0  0  0  0  0  0
    3.8565   -2.3121    0.0000 C   0  0  0  0  0  0  0  0  0  0  0  0
    4.5946   -1.0834    0.0000 C   0  0  0  0  0  0  0  0  0  0  0  0
    3.0938   -5.1836    0.0000 C   0  0  0  0  0  0  0  0  0  0  0  0
    3.8648   -1.4810    0.0000 C   0  0  0  0  0  0  0  0  0  0  0  0
    2.3888   -4.7551    0.0000 C   0  0  0  0  0  0  0  0  0  0  0  0
    3.0876   -6.0110    0.0000 C   0  0  0  0  0  0  0  0  0  0  0  0
    2.3685   -6.4150    0.0000 C   0  0  0  0  0  0  0  0  0  0  0  0
    1.6590   -5.1527    0.0000 C   0  0  0  0  0  0  0  0  0  0  0  0
    1.6506   -5.9837    0.0000 C   0  0  0  0  0  0  0  0  0  0  0  0
  2  1  1  0  0  0  0
  3  5  1  0  0  0  0
  4  3  1  0  0  0  0
  5  1  1  0  0  0  0
  6  2  1  0  0  0  0
  7  2  2  0  0  0  0
  8  4  1  0  0  0  0
  9  4  2  0  0  0  0
 10  6  1  0  0  0  0
 11  1  1  0  0  0  0
 12 14  1  0  0  0  0
 12  3  1  0  0  0  0
 13 10  1  0  0  0  0
 14 11  1  0  0  0  0
 15 13  2  0  0  0  0
 16 13  1  0  0  0  0
 17 16  2  0  0  0  0
 18 15  1  0  0  0  0
 19 17  1  0  0  0  0
 19 18  2  0  0  0  0
M  END
>  <MOLFORMULA>
C14 H16 Cl N O3

>  <MOLWEIGHT>
2.817374000000000e+002

>  <code>
CC24702

>  <appearance>
liquid

>  <purity>
97%

>  <product_name>
benzyl 3-(chlorocarbonyl)tetrahydro-1(2H)-pyridinecarboxylate

>  <cansmi>
ClC(=O)C1CCCN(C1)C(=O)OCc1ccccc1

>  <HBA2>
4

>  <HBD>
0

>  <logP>
2.7385

>  <TPSA>
46.61

>  <MW>
281.735

$$$$

 OpenBabel02131616352D

 12 13  0  0  0  0  0  0  0  0999 V2000
    0.6416   -0.8790    0.0000 C   0  0  0  0  0  0  0  0  0  0  0  0
    1.3643   -0.4750    0.0000 C   0  0  0  0  0  0  0  0  0  0  0  0
    1.3653    0.3578    0.0000 C   0  0  0  0  0  0  0  0  0  0  0  0
    0.6505    0.7640    0.0000 C   0  0  0  0  0  0  0  0  0  0  0  0
    2.0853    0.7655    0.0000 C   0  0  0  0  0  0  0  0  0  0  0  0
    2.8003    0.3565    0.0000 Cl  0  0  0  0  0  0  0  0  0  0  0  0
    2.0861    1.5988    0.0000 O   0  0  0  0  0  0  0  0  0  0  0  0
   -0.8400    0.6220    0.0000 C   0  0  0  0  0  0  0  0  0  0  0  0
   -1.3326   -0.0401    0.0000 C   0  0  0  0  0  0  0  0  0  0  0  0
   -0.8539   -0.7124    0.0000 S   0  0  0  0  0  0  0  0  0  0  0  0
   -0.0645   -0.4660    0.0000 C   0  0  0  0  0  0  0  0  0  0  0  0
   -0.0559    0.3592    0.0000 C   0  0  0  0  0  0  0  0  0  0  0  0
  1  2  2  0  0  0  0
  2  3  1  0  0  0  0
  3  5  1  0  0  0  0
  3  4  2  0  0  0  0
  4 12  1  0  0  0  0
  5  6  1  0  0  0  0
  5  7  2  0  0  0  0
  8  9  2  0  0  0  0
  9 10  1  0  0  0  0
 10 11  1  0  0  0  0
 11 12  2  0  0  0  0
 11  1  1  0  0  0  0
 12  8  1  0  0  0  0
M  END
>  <MOLFORMULA>
C9 H5 Cl O S

>  <MOLWEIGHT>
1.966565000000000e+002

>  <code>
CC24802

>  <appearance>
solid

>  <purity>
97%

>  <product_name>
1-benzothiophene-5-carbonyl chloride

>  <cansmi>
ClC(=O)c1ccc2c(c1)ccs2

>  <HBA2>
2

>  <HBD>
0

>  <logP>
3.2803

>  <TPSA>
45.31

>  <MW>
196.653

$$$$

 OpenBabel02131616352D

 13 14  0  0  0  0  0  0  0  0999 V2000
   -4.1514   -4.4000    0.0000 C   0  0  0  0  0  0  0  0  0  0  0  0
   -4.1526   -5.0024    0.0000 C   0  0  0  0  0  0  0  0  0  0  0  0
   -3.6336   -5.3027    0.0000 C   0  0  0  0  0  0  0  0  0  0  0  0
   -3.6354   -4.0997    0.0000 C   0  0  0  0  0  0  0  0  0  0  0  0
   -3.1158   -4.3964    0.0000 C   0  0  0  0  0  0  0  0  0  0  0  0
   -3.1159   -5.0004    0.0000 C   0  0  0  0  0  0  0  0  0  0  0  0
   -2.5957   -5.3008    0.0000 O   0  0  0  0  0  0  0  0  0  0  0  0
   -2.0721   -5.0005    0.0000 C   0  0  0  0  0  0  0  0  0  0  0  0
   -2.0720   -4.3965    0.0000 C   0  0  3  0  0  0  0  0  0  0  0  0
   -2.5956   -4.0927    0.0000 C   0  0  0  0  0  0  0  0  0  0  0  0
   -1.5521   -4.0971    0.0000 C   0  0  0  0  0  0  0  0  0  0  0  0
   -1.0328   -4.3977    0.0000 Cl  0  0  0  0  0  0  0  0  0  0  0  0
   -1.5514   -3.4971    0.0000 O   0  0  0  0  0  0  0  0  0  0  0  0
  1  2  2  0  0  0  0
  2  3  1  0  0  0  0
  3  6  2  0  0  0  0
  4  1  1  0  0  0  0
  5  4  2  0  0  0  0
  5 10  1  0  0  0  0
  5  6  1  0  0  0  0
  6  7  1  0  0  0  0
  7  8  1  0  0  0  0
  8  9  1  0  0  0  0
  9 10  1  0  0  0  0
  9 11  1  0  0  0  0
 11 12  1  0  0  0  0
 11 13  2  0  0  0  0
M  END
>  <MOLFORMULA>
C10 H9 Cl O2

>  <MOLWEIGHT>
1.966320000000000e+002

>  <code>
CC25802

>  <appearance>
liquid

>  <purity>
90%

>  <product_name>
Chroman-3-carbonyl chloride

>  <cansmi>
ClC(=O)C1COc2c(C1)cccc2

>  <HBA2>
2

>  <HBD>
0

>  <logP>
2.0031

>  <TPSA>
26.3

>  <MW>
196.63

$$$$

 OpenBabel02131616352D

  9  9  0  0  0  0  0  0  0  0999 V2000
   -3.3709    0.6750    0.0000 O   0  0  0  0  0  0  0  0  0  0  0  0
   -2.7016    1.1575    0.0000 C   0  0  0  0  0  0  0  0  0  0  0  0
   -2.9584    1.9458    0.0000 C   0  0  0  0  0  0  0  0  0  0  0  0
   -3.7834    1.9458    0.0000 C   0  0  0  0  0  0  0  0  0  0  0  0
   -4.0402    1.1575    0.0000 N   0  0  0  0  0  0  0  0  0  0  0  0
   -1.9173    0.9014    0.0000 C   0  0  0  0  0  0  0  0  0  0  0  0
   -2.4737    2.6134    0.0000 C   0  0  0  0  0  0  0  0  0  0  0  0
   -1.6532    2.5275    0.0000 Cl  0  0  0  0  0  0  0  0  0  0  0  0
   -2.8095    3.3670    0.0000 O   0  0  0  0  0  0  0  0  0  0  0  0
  1  2  1  0  0  0  0
  2  6  1  0  0  0  0
  2  3  2  0  0  0  0
  3  4  1  0  0  0  0
  3  7  1  0  0  0  0
  4  5  2  0  0  0  0
  5  1  1  0  0  0  0
  7  8  1  0  0  0  0
  7  9  2  0  0  0  0
M  END
>  <MOLFORMULA>
C5 H4 Cl N O2

>  <MOLWEIGHT>
1.455446000000000e+002

>  <code>
CC26302

>  <appearance>
Liquid

>  <purity>
97%

>  <product_name>
5-methyl-4-isoxazolecarbonyl chloride

>  <cansmi>
Cc1oncc1C(=O)Cl

>  <HBA2>
3

>  <HBD>
0

>  <logP>
1.362

>  <TPSA>
43.1

>  <MW>
145.544

$$$$

 OpenBabel02131616352D

 12 13  0  0  0  0  0  0  0  0999 V2000
   -1.4583    0.8291    0.0000 C   0  0  0  0  0  0  0  0  0  0  0  0
   -2.2875    0.8291    0.0000 C   0  0  0  0  0  0  0  0  0  0  0  0
   -2.5485    0.0367    0.0000 N   0  0  0  0  0  0  0  0  0  0  0  0
   -1.2015    0.0367    0.0000 C   0  0  0  0  0  0  0  0  0  0  0  0
   -1.8750   -0.4468    0.0000 N   0  0  0  0  0  0  0  0  0  0  0  0
   -1.7938   -1.2684    0.0000 C   0  0  0  0  0  0  0  0  0  0  0  0
   -1.0397   -1.6075    0.0000 C   0  0  0  0  0  0  0  0  0  0  0  0
   -0.3660   -1.1231    0.0000 C   0  0  0  0  0  0  0  0  0  0  0  0
   -0.4506   -0.3032    0.0000 C   0  0  0  0  0  0  0  0  0  0  0  0
   -0.9736    1.4967    0.0000 C   0  0  0  0  0  0  0  0  0  0  0  0
   -0.1490    1.4108    0.0000 Cl  0  0  0  0  0  0  0  0  0  0  0  0
   -1.3095    2.2545    0.0000 O   0  0  0  0  0  0  0  0  0  0  0  0
  1  2  1  0  0  0  0
  1 10  1  0  0  0  0
  2  3  2  0  0  0  0
  3  5  1  0  0  0  0
  4  5  1  0  0  0  0
  4  1  2  0  0  0  0
  5  6  1  0  0  0  0
  6  7  2  0  0  0  0
  7  8  1  0  0  0  0
  8  9  2  0  0  0  0
  9  4  1  0  0  0  0
 10 11  1  0  0  0  0
 10 12  2  0  0  0  0
M  END
>  <MOLFORMULA>
C8 H5 Cl N2 O

>  <MOLWEIGHT>
1.805935000000000e+002

>  <code>
CC26502

>  <appearance>
Solid

>  <purity>
95%

>  <product_name>
pyrazolo[1,5-a]pyridine-3-carbonyl chloride

>  <cansmi>
ClC(=O)c1cnn2c1cccc2

>  <HBA2>
3

>  <HBD>
0

>  <logP>
1.7133

>  <TPSA>
34.37

>  <MW>
180.591

$$$$

 OpenBabel02131616352D

 15 16  0  0  0  0  0  0  0  0999 V2000
   -0.8875   -0.2375    0.0000 O   0  0  0  0  0  0  0  0  0  0  0  0
   -0.2223    0.2450    0.0000 C   0  0  0  0  0  0  0  0  0  0  0  0
   -0.4750    1.0375    0.0000 C   0  0  0  0  0  0  0  0  0  0  0  0
   -1.3042    1.0375    0.0000 N   0  0  0  0  0  0  0  0  0  0  0  0
   -1.5610    0.2450    0.0000 C   0  0  0  0  0  0  0  0  0  0  0  0
    0.0110    1.7104    0.0000 C   0  0  0  0  0  0  0  0  0  0  0  0
    0.8368    1.6228    0.0000 Cl  0  0  0  0  0  0  0  0  0  0  0  0
    0.5692   -0.0069    0.0000 C   0  0  0  0  0  0  0  0  0  0  0  0
   -2.3453   -0.0066    0.0000 C   0  0  0  0  0  0  0  0  0  0  0  0
   -2.9619    0.5504    0.0000 C   0  0  0  0  0  0  0  0  0  0  0  0
   -3.7530    0.2948    0.0000 C   0  0  0  0  0  0  0  0  0  0  0  0
   -3.9242   -0.5134    0.0000 C   0  0  0  0  0  0  0  0  0  0  0  0
   -3.2999   -1.0698    0.0000 C   0  0  0  0  0  0  0  0  0  0  0  0
   -2.5146   -0.8162    0.0000 C   0  0  0  0  0  0  0  0  0  0  0  0
   -0.3297    2.4678    0.0000 O   0  0  0  0  0  0  0  0  0  0  0  0
  1  2  1  0  0  0  0
  2  3  2  0  0  0  0
  2  8  1  0  0  0  0
  3  4  1  0  0  0  0
  3  6  1  0  0  0  0
  4  5  2  0  0  0  0
  5  1  1  0  0  0  0
  5  9  1  0  0  0  0
  6  7  1  0  0  0  0
  6 15  2  0  0  0  0
  9 10  2  0  0  0  0
 10 11  1  0  0  0  0
 11 12  2  0  0  0  0
 12 13  1  0  0  0  0
 13 14  2  0  0  0  0
 14  9  1  0  0  0  0
M  END
>  <MOLFORMULA>
C11 H8 Cl N O2

>  <MOLWEIGHT>
2.216422000000000e+002

>  <code>
CC26702

>  <appearance>
Solid

>  <purity>
97%

>  <product_name>
5-methyl-2-phenyl-1,3-oxazole-4-carbonyl chloride

>  <cansmi>
ClC(=O)c1nc(oc1C)c1ccccc1

>  <HBA2>
3

>  <HBD>
0

>  <logP>
3.029

>  <TPSA>
43.1

>  <MW>
221.64

$$$$

 OpenBabel02131616352D

 10 10  0  0  0  0  0  0  0  0999 V2000
   -1.2667   -0.6416    0.0000 O   0  0  0  0  0  0  0  0  0  0  0  0
   -0.5974   -0.1592    0.0000 C   0  0  0  0  0  0  0  0  0  0  0  0
   -0.8542    0.6291    0.0000 C   0  0  0  0  0  0  0  0  0  0  0  0
   -1.6792    0.6291    0.0000 N   0  0  0  0  0  0  0  0  0  0  0  0
   -1.9360   -0.1592    0.0000 C   0  0  0  0  0  0  0  0  0  0  0  0
   -2.7202   -0.4153    0.0000 C   0  0  0  0  0  0  0  0  0  0  0  0
    0.1869   -0.4153    0.0000 C   0  0  0  0  0  0  0  0  0  0  0  0
   -0.3695    1.2968    0.0000 C   0  0  0  0  0  0  0  0  0  0  0  0
    0.4510    1.2108    0.0000 Cl  0  0  0  0  0  0  0  0  0  0  0  0
   -0.7053    2.0503    0.0000 O   0  0  0  0  0  0  0  0  0  0  0  0
  1  2  1  0  0  0  0
  2  7  1  0  0  0  0
  2  3  2  0  0  0  0
  3  8  1  0  0  0  0
  3  4  1  0  0  0  0
  4  5  2  0  0  0  0
  5  1  1  0  0  0  0
  5  6  1  0  0  0  0
  8  9  1  0  0  0  0
  8 10  2  0  0  0  0
M  END
>  <MOLFORMULA>
C6 H6 Cl N O2

>  <MOLWEIGHT>
1.595714000000000e+002

>  <code>
CC26802

>  <appearance>
Liquid

>  <purity>
97%

>  <product_name>
2,5-dimethyl-1,3-oxazole-4-carbonyl chloride

>  <cansmi>
Cc1oc(c(n1)C(=O)Cl)C

>  <HBA2>
3

>  <HBD>
0

>  <logP>
1.6704

>  <TPSA>
43.1

>  <MW>
159.57

$$$$

 OpenBabel02131616352D

  9  9  0  0  0  0  0  0  0  0999 V2000
    4.0791   -3.5958    0.0000 O   0  0  0  0  0  0  0  0  0  0  0  0
    3.4058   -3.1091    0.0000 N   0  0  0  0  0  0  0  0  0  0  0  0
    3.6625   -2.3208    0.0000 C   0  0  0  0  0  0  0  0  0  0  0  0
    4.4916   -2.3208    0.0000 C   0  0  0  0  0  0  0  0  0  0  0  0
    4.7484   -3.1091    0.0000 C   0  0  0  0  0  0  0  0  0  0  0  0
    3.1778   -1.6532    0.0000 C   0  0  0  0  0  0  0  0  0  0  0  0
    5.5332   -3.3636    0.0000 C   0  0  0  0  0  0  0  0  0  0  0  0
    6.1460   -2.8112    0.0000 Cl  0  0  0  0  0  0  0  0  0  0  0  0
    5.7052   -4.1704    0.0000 O   0  0  0  0  0  0  0  0  0  0  0  0
  1  2  1  0  0  0  0
  2  3  2  0  0  0  0
  3  6  1  0  0  0  0
  3  4  1  0  0  0  0
  4  5  2  0  0  0  0
  5  1  1  0  0  0  0
  5  7  1  0  0  0  0
  7  8  1  0  0  0  0
  7  9  2  0  0  0  0
M  END
>  <MOLFORMULA>
C5 H4 Cl N O2

>  <MOLWEIGHT>
1.455446000000000e+002

>  <code>
CC27002

>  <appearance>
Liquid

>  <purity>
97%

>  <product_name>
3-methylisoxazole-5-carbonyl chloride

>  <cansmi>
Cc1cc(on1)C(=O)Cl

>  <HBA2>
3

>  <HBD>
0

>  <logP>
1.362

>  <TPSA>
43.1

>  <MW>
145.544

$$$$

 OpenBabel02131616352D

 17 18  0  0  0  0  0  0  0  0999 V2000
    4.2750   -2.2458    0.0000 C   0  0  0  0  0  0  0  0  0  0  0  0
    4.2750   -3.0792    0.0000 C   0  0  0  0  0  0  0  0  0  0  0  0
    4.9917   -1.8333    0.0000 C   0  0  0  0  0  0  0  0  0  0  0  0
    3.5541   -1.8333    0.0000 C   0  0  0  0  0  0  0  0  0  0  0  0
    5.7000   -2.2458    0.0000 C   0  0  0  0  0  0  0  0  0  0  0  0
    6.4250   -1.8458    0.0000 C   0  0  0  0  0  0  0  0  0  0  0  0
    3.5583   -3.5000    0.0000 C   0  0  0  0  0  0  0  0  0  0  0  0
    4.9917   -3.4917    0.0000 C   0  0  0  0  0  0  0  0  0  0  0  0
    5.7000   -3.0708    0.0000 C   0  0  0  0  0  0  0  0  0  0  0  0
    2.8333   -2.2542    0.0000 C   0  0  0  0  0  0  0  0  0  0  0  0
    6.4250   -1.0208    0.0000 O   0  0  0  0  0  0  0  0  0  0  0  0
    2.8333   -3.0875    0.0000 C   0  0  0  0  0  0  0  0  0  0  0  0
    7.1417   -2.2583    0.0000 Cl  0  0  0  0  0  0  0  0  0  0  0  0
    2.9750   -1.2625    0.0000 C   0  0  0  0  0  0  0  0  0  0  0  0
    4.1375   -1.2625    0.0000 C   0  0  0  0  0  0  0  0  0  0  0  0
    2.9875   -4.0917    0.0000 C   0  0  0  0  0  0  0  0  0  0  0  0
    3.9833   -4.2166    0.0000 C   0  0  0  0  0  0  0  0  0  0  0  0
  2  1  1  0  0  0  0
  3  1  2  0  0  0  0
  4  1  1  0  0  0  0
  5  3  1  0  0  0  0
  6  5  1  0  0  0  0
  7  2  1  0  0  0  0
  7 12  1  0  0  0  0
  8  2  2  0  0  0  0
  8  9  1  0  0  0  0
  9  5  2  0  0  0  0
 10  4  1  0  0  0  0
 11  6  2  0  0  0  0
 12 10  1  0  0  0  0
 13  6  1  0  0  0  0
 14  4  1  0  0  0  0
 15  4  1  0  0  0  0
 16  7  1  0  0  0  0
 17  7  1  0  0  0  0
M  END
>  <MOLFORMULA>
C15 H19 Cl O

>  <MOLWEIGHT>
2.507671000000000e+002

>  <code>
CC27102

>  <appearance>
liquid

>  <purity>
97%

>  <product_name>
5,5,8,8-tetramethyl-5,6,7,8-tetrahydro-2-naphthalenecarbonyl chloride

>  <cansmi>
ClC(=O)c1ccc2c(c1)C(C)(C)CCC2(C)C

>  <HBA2>
1

>  <HBD>
0

>  <logP>
4.4146

>  <TPSA>
17.07

>  <MW>
250.764

$$$$

 OpenBabel02131616352D

 14 15  0  0  0  0  0  0  0  0999 V2000
    5.9831   -2.4640    0.0000 C   0  0  0  0  0  0  0  0  0  0  0  0
    6.6995   -2.8773    0.0000 C   0  0  0  0  0  0  0  0  0  0  0  0
    6.6967   -3.7078    0.0000 C   0  0  0  0  0  0  0  0  0  0  0  0
    5.9813   -4.1170    0.0000 C   0  0  0  0  0  0  0  0  0  0  0  0
    5.2683   -2.8768    0.0000 C   0  0  0  0  0  0  0  0  0  0  0  0
    5.2695   -3.7012    0.0000 C   0  0  0  0  0  0  0  0  0  0  0  0
    4.4859   -3.9571    0.0000 C   0  0  0  0  0  0  0  0  0  0  0  0
    4.0003   -3.2909    0.0000 C   0  0  0  0  0  0  0  0  0  0  0  0
    4.4839   -2.6233    0.0000 O   0  0  0  0  0  0  0  0  0  0  0  0
    3.5834   -2.5792    0.0000 C   0  0  0  0  0  0  0  0  0  0  0  0
    3.4125   -3.8792    0.0000 C   0  0  0  0  0  0  0  0  0  0  0  0
    5.9829   -1.6390    0.0000 C   0  0  0  0  0  0  0  0  0  0  0  0
    5.2683   -1.2266    0.0000 O   0  0  0  0  0  0  0  0  0  0  0  0
    6.6973   -1.2263    0.0000 Cl  0  0  0  0  0  0  0  0  0  0  0  0
  1  2  2  0  0  0  0
  1 12  1  0  0  0  0
  2  3  1  0  0  0  0
  3  4  2  0  0  0  0
  4  6  1  0  0  0  0
  5  6  2  0  0  0  0
  5  1  1  0  0  0  0
  6  7  1  0  0  0  0
  7  8  1  0  0  0  0
  8  9  1  0  0  0  0
  8 10  1  0  0  0  0
  8 11  1  0  0  0  0
  9  5  1  0  0  0  0
 12 13  2  0  0  0  0
 12 14  1  0  0  0  0
M  END
>  <MOLFORMULA>
C11 H11 Cl O2

>  <MOLWEIGHT>
2.106589000000000e+002

>  <code>
CC27202

>  <appearance>
liquid

>  <purity>
97%

>  <product_name>
2,2-dimethyl-2,3-dihydro-1-benzofuran-7-carbonyl chloride

>  <cansmi>
ClC(=O)c1cccc2c1OC(C2)(C)C

>  <HBA2>
2

>  <HBD>
0

>  <logP>
2.7791

>  <TPSA>
26.3

>  <MW>
210.657

$$$$

 OpenBabel02131616352D

  9  9  0  0  0  0  0  0  0  0999 V2000
   -0.7834   -1.9083    0.0000 S   0  0  0  0  0  0  0  0  0  0  0  0
   -0.1141   -1.4258    0.0000 C   0  0  0  0  0  0  0  0  0  0  0  0
   -0.3709   -0.6375    0.0000 C   0  0  0  0  0  0  0  0  0  0  0  0
   -1.1959   -0.6375    0.0000 C   0  0  0  0  0  0  0  0  0  0  0  0
   -1.4527   -1.4258    0.0000 C   0  0  0  0  0  0  0  0  0  0  0  0
    0.6702   -1.6819    0.0000 C   0  0  0  0  0  0  0  0  0  0  0  0
    0.8405   -2.4891    0.0000 O   0  0  0  0  0  0  0  0  0  0  0  0
    1.2841   -1.1308    0.0000 Cl  0  0  0  0  0  0  0  0  0  0  0  0
   -1.6805    0.0301    0.0000 Br  0  0  0  0  0  0  0  0  0  0  0  0
  1  2  1  0  0  0  0
  2  6  1  0  0  0  0
  2  3  2  0  0  0  0
  3  4  1  0  0  0  0
  4  5  2  0  0  0  0
  4  9  1  0  0  0  0
  5  1  1  0  0  0  0
  6  7  2  0  0  0  0
  6  8  1  0  0  0  0
M  END
>  <MOLFORMULA>
C5 H2 Br Cl O S

>  <MOLWEIGHT>
2.254928000000000e+002

>  <code>
CC28502

>  <appearance>
solid

>  <purity>
97%

>  <product_name>
4-bromo-2-thiophenecarbonyl chloride

>  <cansmi>
ClC(=O)c1cc(cs1)Br

>  <HBA2>
2

>  <HBD>
0

>  <logP>
2.8896

>  <TPSA>
45.31

>  <MW>
225.491

$$$$

 OpenBabel02131616352D

 18 18  0  0  0  0  0  0  0  0999 V2000
   -1.2500   -0.4375    0.0000 Cl  0  0  0  0  0  0  0  0  0  0  0  0
   -2.0666    1.1125    0.0000 N   0  0  0  0  0  0  0  0  0  0  0  0
   -1.3973    1.5950    0.0000 C   0  0  0  0  0  0  0  0  0  0  0  0
   -1.6541    2.3833    0.0000 C   0  0  0  0  0  0  0  0  0  0  0  0
   -2.4791    2.3833    0.0000 N   0  0  0  0  0  0  0  0  0  0  0  0
   -2.7359    1.5950    0.0000 C   0  0  0  0  0  0  0  0  0  0  0  0
   -0.6131    1.3389    0.0000 C   0  0  0  0  0  0  0  0  0  0  0  0
   -0.4428    0.5317    0.0000 O   0  0  0  0  0  0  0  0  0  0  0  0
    0.0008    1.8900    0.0000 Cl  0  0  0  0  0  0  0  0  0  0  0  0
   -2.0666    0.2875    0.0000 C   0  0  0  0  0  0  0  0  0  0  0  0
   -2.7811   -0.1250    0.0000 C   0  0  0  0  0  0  0  0  0  0  0  0
   -3.5202    1.3389    0.0000 S   0  0  0  0  0  0  0  0  0  0  0  0
   -4.1341    1.8900    0.0000 C   0  0  0  0  0  0  0  0  0  0  0  0
   -3.4940    0.2924    0.0000 C   0  0  0  0  0  0  0  0  0  0  0  0
   -4.2080   -0.1194    0.0000 C   0  0  0  0  0  0  0  0  0  0  0  0
   -4.2085   -0.9453    0.0000 C   0  0  0  0  0  0  0  0  0  0  0  0
   -3.4890   -1.3576    0.0000 C   0  0  0  0  0  0  0  0  0  0  0  0
   -2.7779   -0.9435    0.0000 C   0  0  0  0  0  0  0  0  0  0  0  0
  2  3  1  0  0  0  0
  2 10  1  0  0  0  0
  3  7  1  0  0  0  0
  3  4  2  0  0  0  0
  4  5  1  0  0  0  0
  5  6  2  0  0  0  0
  6  2  1  0  0  0  0
  6 12  1  0  0  0  0
  7  8  2  0  0  0  0
  7  9  1  0  0  0  0
 10 11  1  0  0  0  0
 11 14  2  0  0  0  0
 12 13  1  0  0  0  0
 14 15  1  0  0  0  0
 15 16  2  0  0  0  0
 16 17  1  0  0  0  0
 17 18  2  0  0  0  0
 18 11  1  0  0  0  0
M  END
>  <MOLFORMULA>
C12 H11 Cl N2 O S . Cl H

>  <MOLWEIGHT>
3.032118000000000e+002

>  <code>
CC28902

>  <appearance>
solid

>  <purity>
97%

>  <product_name>
1-benzyl-2-(methylsulfanyl)-1H-imidazole-5-carbonyl chloride hydrochloride

>  <cansmi>
CSc1ncc(n1Cc1ccccc1)C(=O)Cl.Cl

>  <HBA2>
4

>  <HBD>
1

>  <logP>
3.8343

>  <TPSA>
60.19

>  <MW>
303.207

$$$$

 OpenBabel02131616352D

 12 13  0  0  0  0  0  0  0  0999 V2000
    3.2083    1.1958    0.0000 C   0  0  0  0  0  0  0  0  0  0  0  0
    3.1917   -0.4083    0.0000 C   0  0  0  0  0  0  0  0  0  0  0  0
    3.9000    0.7917    0.0000 C   0  0  0  0  0  0  0  0  0  0  0  0
    3.9000   -0.0167    0.0000 C   0  0  0  0  0  0  0  0  0  0  0  0
    3.1792   -0.9917    0.0000 C   0  0  0  0  0  0  0  0  0  0  0  0
    2.6711   -1.2706    0.0000 Cl  0  0  0  0  0  0  0  0  0  0  0  0
    3.6770   -1.2933    0.0000 O   0  0  0  0  0  0  0  0  0  0  0  0
    2.4926   -0.0041    0.0000 C   0  0  0  0  0  0  0  0  0  0  0  0
    2.5083    0.7958    0.0000 C   0  0  0  0  0  0  0  0  0  0  0  0
    1.7492    1.0605    0.0000 C   0  0  0  0  0  0  0  0  0  0  0  0
    1.2671    0.4220    0.0000 C   0  0  0  0  0  0  0  0  0  0  0  0
    1.7263   -0.2384    0.0000 S   0  0  0  0  0  0  0  0  0  0  0  0
  1  9  1  0  0  0  0
  2  8  1  0  0  0  0
  2  5  1  0  0  0  0
  3  1  2  0  0  0  0
  4  3  1  0  0  0  0
  4  2  2  0  0  0  0
  5  6  1  0  0  0  0
  5  7  2  0  0  0  0
  8  9  2  0  0  0  0
  9 10  1  0  0  0  0
 10 11  2  0  0  0  0
 11 12  1  0  0  0  0
 12  8  1  0  0  0  0
M  END
>  <MOLFORMULA>
C9 H5 Cl O S

>  <MOLWEIGHT>
1.966565000000000e+002

>  <code>
CC29402

>  <appearance>
Solid

>  <purity>
97%

>  <product_name>
benzo[b]thiophene-7-carbonyl chloride

>  <cansmi>
ClC(=O)c1cccc2c1scc2

>  <HBA2>
2

>  <HBD>
0

>  <logP>
3.2803

>  <TPSA>
45.31

>  <MW>
196.653

$$$$

 OpenBabel02131616352D

 16 17  0  0  0  0  0  0  0  0999 V2000
    0.7292   -1.2124    0.0000 S   0  0  0  0  0  0  0  0  0  0  0  0
    1.3985   -0.7300    0.0000 C   0  0  0  0  0  0  0  0  0  0  0  0
    1.1417    0.0583    0.0000 C   0  0  0  0  0  0  0  0  0  0  0  0
    0.3167    0.0583    0.0000 N   0  0  0  0  0  0  0  0  0  0  0  0
    0.0599   -0.7300    0.0000 C   0  0  0  0  0  0  0  0  0  0  0  0
    1.6264    0.7260    0.0000 C   0  0  0  0  0  0  0  0  0  0  0  0
   -0.7243   -0.9861    0.0000 C   0  0  0  0  0  0  0  0  0  0  0  0
   -1.3347   -0.4335    0.0000 C   0  0  0  0  0  0  0  0  0  0  0  0
   -2.1183   -0.6891    0.0000 C   0  0  0  0  0  0  0  0  0  0  0  0
   -2.2893   -1.4971    0.0000 C   0  0  0  0  0  0  0  0  0  0  0  0
   -1.6704   -2.0491    0.0000 C   0  0  0  0  0  0  0  0  0  0  0  0
   -0.8892   -1.7906    0.0000 C   0  0  0  0  0  0  0  0  0  0  0  0
    2.1827   -0.9861    0.0000 C   0  0  0  0  0  0  0  0  0  0  0  0
    2.7967   -0.4349    0.0000 Cl  0  0  0  0  0  0  0  0  0  0  0  0
   -3.0732   -1.7542    0.0000 Cl  0  0  0  0  0  0  0  0  0  0  0  0
    2.3530   -1.7934    0.0000 O   0  0  0  0  0  0  0  0  0  0  0  0
  1  2  1  0  0  0  0
  2 13  1  0  0  0  0
  2  3  2  0  0  0  0
  3  4  1  0  0  0  0
  3  6  1  0  0  0  0
  4  5  2  0  0  0  0
  5  1  1  0  0  0  0
  5  7  1  0  0  0  0
  7  8  2  0  0  0  0
  8  9  1  0  0  0  0
  9 10  2  0  0  0  0
 10 11  1  0  0  0  0
 10 15  1  0  0  0  0
 11 12  2  0  0  0  0
 12  7  1  0  0  0  0
 13 14  1  0  0  0  0
 13 16  2  0  0  0  0
M  END
>  <MOLFORMULA>
C11 H7 Cl2 N O S

>  <MOLWEIGHT>
2.721543000000000e+002

>  <code>
CC29602

>  <appearance>
Solid

>  <purity>
95%

>  <product_name>
2-(4-chlorophenyl)-4-methyl-1,3-thiazole-5-carbonyl chloride

>  <cansmi>
Clc1ccc(cc1)c1nc(c(s1)C(=O)Cl)C

>  <HBA2>
3

>  <HBD>
0

>  <logP>
4.1509

>  <TPSA>
58.2

>  <MW>
272.15

$$$$

 OpenBabel02131616352D

  9  9  0  0  0  0  0  0  0  0999 V2000
    2.8750   -2.5625    0.0000 C   0  0  0  0  0  0  0  0  0  0  0  0
    2.8750   -3.3875    0.0000 C   0  0  0  0  0  0  0  0  0  0  0  0
    3.5870   -3.7958    0.0000 O   0  0  0  0  0  0  0  0  0  0  0  0
    4.2990   -3.3875    0.0000 C   0  0  0  0  0  0  0  0  0  0  0  0
    4.2990   -2.5625    0.0000 C   0  0  0  0  0  0  0  0  0  0  0  0
    3.5870   -2.1458    0.0000 C   0  0  0  0  0  0  0  0  0  0  0  0
    3.5870   -1.3208    0.0000 C   0  0  0  0  0  0  0  0  0  0  0  0
    4.3015   -0.9083    0.0000 Cl  0  0  0  0  0  0  0  0  0  0  0  0
    2.8725   -0.9083    0.0000 O   0  0  0  0  0  0  0  0  0  0  0  0
  1  2  1  0  0  0  0
  1  6  1  0  0  0  0
  2  3  1  0  0  0  0
  3  4  1  0  0  0  0
  4  5  1  0  0  0  0
  5  6  1  0  0  0  0
  6  7  1  0  0  0  0
  7  8  1  0  0  0  0
  7  9  2  0  0  0  0
M  END
>  <MOLFORMULA>
C6 H9 Cl O2

>  <MOLWEIGHT>
1.485881000000000e+002

>  <code>
CC29902

>  <appearance>
Liquid

>  <purity>
95%

>  <product_name>
tetrahydro-2H-pyran-4-carbonyl chloride

>  <cansmi>
ClC(=O)C1CCOCC1

>  <HBA2>
2

>  <HBD>
0

>  <logP>
1.1784

>  <TPSA>
26.3

>  <MW>
148.587

$$$$

 OpenBabel02131616352D

 14 15  0  0  0  0  0  0  0  0999 V2000
    2.7477   -3.7232    0.0000 C   0  0  0  0  0  0  0  0  0  0  0  0
    3.3696   -4.2815    0.0000 C   0  0  0  0  0  0  0  0  0  0  0  0
    4.1599   -4.0240    0.0000 C   0  0  0  0  0  0  0  0  0  0  0  0
    4.3295   -3.2086    0.0000 C   0  0  0  0  0  0  0  0  0  0  0  0
    3.7027   -2.6513    0.0000 C   0  0  0  0  0  0  0  0  0  0  0  0
    2.9148   -2.9116    0.0000 C   0  0  0  0  0  0  0  0  0  0  0  0
    5.1190   -2.9500    0.0000 C   0  0  0  0  0  0  0  0  0  0  0  0
    5.7870   -3.4305    0.0000 O   0  0  0  0  0  0  0  0  0  0  0  0
    6.4583   -2.9424    0.0000 N   0  0  0  0  0  0  0  0  0  0  0  0
    6.1995   -2.1530    0.0000 C   0  0  0  0  0  0  0  0  0  0  0  0
    5.3688   -2.1570    0.0000 C   0  0  0  0  0  0  0  0  0  0  0  0
    6.6815   -1.4833    0.0000 C   0  0  0  0  0  0  0  0  0  0  0  0
    7.5083   -1.5656    0.0000 Cl  0  0  0  0  0  0  0  0  0  0  0  0
    6.3392   -0.7226    0.0000 O   0  0  0  0  0  0  0  0  0  0  0  0
  1  2  2  0  0  0  0
  2  3  1  0  0  0  0
  3  4  2  0  0  0  0
  4  7  1  0  0  0  0
  4  5  1  0  0  0  0
  5  6  2  0  0  0  0
  6  1  1  0  0  0  0
  7  8  1  0  0  0  0
  8  9  1  0  0  0  0
  9 10  2  0  0  0  0
 10 11  1  0  0  0  0
 10 12  1  0  0  0  0
 11  7  2  0  0  0  0
 12 13  1  0  0  0  0
 12 14  2  0  0  0  0
M  END
>  <MOLFORMULA>
C10 H6 Cl N O2

>  <MOLWEIGHT>
2.076154000000000e+002

>  <code>
CC30502

>  <appearance>
Solid

>  <purity>
90%

>  <product_name>
5-phenylisoxazole-3-carbonyl chloride

>  <cansmi>
ClC(=O)c1noc(c1)c1ccccc1

>  <HBA2>
3

>  <HBD>
0

>  <logP>
2.7206

>  <TPSA>
43.1

>  <MW>
207.613

$$$$

 OpenBabel02131616352D

 13 14  0  0  0  0  0  0  0  0999 V2000
    5.1708   -3.3708    0.0000 O   0  0  0  0  0  0  0  0  0  0  0  0
    5.8401   -2.8883    0.0000 C   0  0  0  0  0  0  0  0  0  0  0  0
    5.5833   -2.1000    0.0000 C   0  0  0  0  0  0  0  0  0  0  0  0
    4.5015   -2.8883    0.0000 C   0  0  0  0  0  0  0  0  0  0  0  0
    4.7602   -2.1026    0.0000 C   0  0  0  0  0  0  0  0  0  0  0  0
    4.2096   -1.4878    0.0000 C   0  0  0  0  0  0  0  0  0  0  0  0
    3.4002   -1.6575    0.0000 C   0  0  0  0  0  0  0  0  0  0  0  0
    3.1444   -2.4475    0.0000 C   0  0  0  0  0  0  0  0  0  0  0  0
    3.6967   -3.0589    0.0000 C   0  0  0  0  0  0  0  0  0  0  0  0
    6.6244   -3.1444    0.0000 C   0  0  0  0  0  0  0  0  0  0  0  0
    6.7947   -3.9517    0.0000 O   0  0  0  0  0  0  0  0  0  0  0  0
    7.2383   -2.5933    0.0000 Cl  0  0  0  0  0  0  0  0  0  0  0  0
    2.8488   -1.0439    0.0000 Br  0  0  0  0  0  0  0  0  0  0  0  0
  1  2  1  0  0  0  0
  2  3  2  0  0  0  0
  2 10  1  0  0  0  0
  3  5  1  0  0  0  0
  4  1  1  0  0  0  0
  4  5  2  0  0  0  0
  5  6  1  0  0  0  0
  6  7  2  0  0  0  0
  7  8  1  0  0  0  0
  7 13  1  0  0  0  0
  8  9  2  0  0  0  0
  9  4  1  0  0  0  0
 10 11  2  0  0  0  0
 10 12  1  0  0  0  0
M  END
>  <MOLFORMULA>
C9 H4 Br Cl O2

>  <MOLWEIGHT>
2.594856000000000e+002

>  <code>
CC31202

>  <appearance>
Solid

>  <purity>
97%

>  <product_name>
5-bromobenzo[b]furan-2-carbonyl chloride

>  <cansmi>
Brc1ccc2c(c1)cc(o2)C(=O)Cl

>  <HBA2>
2

>  <HBD>
0

>  <logP>
3.5743

>  <TPSA>
30.21

>  <MW>
259.484

$$$$

 OpenBabel02131616352D

 13 13  0  0  0  0  0  0  0  0999 V2000
    5.6348   -3.4417    0.0000 C   0  0  0  0  0  0  0  0  0  0  0  0
    5.6359   -2.6144    0.0000 C   0  0  0  0  0  0  0  0  0  0  0  0
    4.9211   -2.2015    0.0000 C   0  0  0  0  0  0  0  0  0  0  0  0
    4.9229   -3.8545    0.0000 C   0  0  0  0  0  0  0  0  0  0  0  0
    3.4063   -2.3594    0.0000 C   0  0  0  0  0  0  0  0  0  0  0  0
    2.9201   -3.0373    0.0000 C   0  0  0  0  0  0  0  0  0  0  0  0
    3.4189   -3.7131    0.0000 N   0  0  0  0  0  0  0  0  0  0  0  0
    4.2117   -3.4454    0.0000 C   0  0  0  0  0  0  0  0  0  0  0  0
    4.2023   -2.6130    0.0000 N   0  0  0  0  0  0  0  0  0  0  0  0
    6.3518   -2.2026    0.0000 C   0  0  0  0  0  0  0  0  0  0  0  0
    7.0604   -2.6147    0.0000 Cl  0  0  0  0  0  0  0  0  0  0  0  0
    6.3504   -1.3764    0.0000 O   0  0  0  0  0  0  0  0  0  0  0  0
    6.2708   -3.3500    0.0000 Cl  0  0  0  0  0  0  0  0  0  0  0  0
  1  2  1  0  0  0  0
  2  3  2  0  0  0  0
  2 10  1  0  0  0  0
  3  9  1  0  0  0  0
  4  1  2  0  0  0  0
  5  6  2  0  0  0  0
  6  7  1  0  0  0  0
  7  8  2  0  0  0  0
  8  4  1  0  0  0  0
  8  9  1  0  0  0  0
  9  5  1  0  0  0  0
 10 11  1  0  0  0  0
 10 12  2  0  0  0  0
M  END
>  <MOLFORMULA>
C8 H5 Cl N2 O . Cl H

>  <MOLWEIGHT>
2.170544000000000e+002

>  <code>
CC33152

>  <purity>
Tech

>  <product_name>
imidazo[1,2-a]pyridine-6-carbonyl chloride hydrochloride

>  <cansmi>
ClC(=O)c1ccc2n(c1)ccn2.Cl

>  <HBA2>
3

>  <HBD>
1

>  <logP>
2.5153

>  <TPSA>
34.37

>  <MW>
217.052

$$$$

 OpenBabel02131616352D

 13 14  0  0  0  0  0  0  0  0999 V2000
    5.2531   -2.8260    0.0000 C   0  0  0  0  0  0  0  0  0  0  0  0
    5.0228   -3.6138    0.0000 C   0  0  0  0  0  0  0  0  0  0  0  0
    5.6980   -4.0810    0.0000 S   0  0  0  0  0  0  0  0  0  0  0  0
    6.3494   -3.5785    0.0000 C   0  0  0  0  0  0  0  0  0  0  0  0
    6.0831   -2.8027    0.0000 C   0  0  0  0  0  0  0  0  0  0  0  0
    3.8802   -2.4242    0.0000 C   0  0  0  0  0  0  0  0  0  0  0  0
    3.6481   -3.2139    0.0000 C   0  0  0  0  0  0  0  0  0  0  0  0
    4.2223   -3.8119    0.0000 C   0  0  0  0  0  0  0  0  0  0  0  0
    4.6844   -2.2249    0.0000 C   0  0  0  0  0  0  0  0  0  0  0  0
    3.3124   -1.8199    0.0000 Br  0  0  0  0  0  0  0  0  0  0  0  0
    6.5474   -2.1224    0.0000 C   0  0  0  0  0  0  0  0  0  0  0  0
    7.3708   -2.1843    0.0000 Cl  0  0  0  0  0  0  0  0  0  0  0  0
    6.1933   -1.3772    0.0000 O   0  0  0  0  0  0  0  0  0  0  0  0
  1  9  2  0  0  0  0
  1  2  1  0  0  0  0
  2  3  1  0  0  0  0
  3  4  1  0  0  0  0
  4  5  2  0  0  0  0
  5  1  1  0  0  0  0
  5 11  1  0  0  0  0
  6  7  2  0  0  0  0
  6 10  1  0  0  0  0
  7  8  1  0  0  0  0
  8  2  2  0  0  0  0
  9  6  1  0  0  0  0
 11 12  1  0  0  0  0
 11 13  2  0  0  0  0
M  END
>  <MOLFORMULA>
C9 H4 Br Cl O S

>  <MOLWEIGHT>
2.755526000000000e+002

>  <code>
CC33502

>  <appearance>
Solid

>  <purity>
97%

>  <product_name>
5-bromobenzo[b]thiophene-3-carbonyl chloride

>  <cansmi>
Brc1ccc2c(c1)c(cs2)C(=O)Cl

>  <HBA2>
2

>  <HBD>
0

>  <logP>
4.0428

>  <TPSA>
45.31

>  <MW>
275.549

$$$$

 OpenBabel02131616352D

 14 15  0  0  0  0  0  0  0  0999 V2000
   -2.8381    1.3104    0.0000 C   0  0  0  0  0  0  0  0  0  0  0  0
   -2.1190    0.8946    0.0000 C   0  0  0  0  0  0  0  0  0  0  0  0
   -2.1226    0.0697    0.0000 C   0  0  0  0  0  0  0  0  0  0  0  0
   -1.4085   -0.3418    0.0000 C   0  0  0  0  0  0  0  0  0  0  0  0
   -0.6893    0.0717    0.0000 C   0  0  0  0  0  0  0  0  0  0  0  0
   -0.6930    0.9009    0.0000 C   0  0  0  0  0  0  0  0  0  0  0  0
   -1.4119    1.3129    0.0000 C   0  0  0  0  0  0  0  0  0  0  0  0
    0.0262   -0.3390    0.0000 C   0  0  0  0  0  0  0  0  0  0  0  0
    0.0284   -1.1640    0.0000 O   0  0  0  0  0  0  0  0  0  0  0  0
    0.7396    0.0754    0.0000 Cl  0  0  0  0  0  0  0  0  0  0  0  0
   -2.9192    2.1313    0.0000 C   0  0  0  0  0  0  0  0  0  0  0  0
   -3.7310    2.3033    0.0000 C   0  0  0  0  0  0  0  0  0  0  0  0
   -4.1468    1.5841    0.0000 C   0  0  0  0  0  0  0  0  0  0  0  0
   -3.5915    0.9675    0.0000 O   0  0  0  0  0  0  0  0  0  0  0  0
  1  2  1  0  0  0  0
  1 11  2  0  0  0  0
  2  3  2  0  0  0  0
  3  4  1  0  0  0  0
  4  5  2  0  0  0  0
  5  6  1  0  0  0  0
  5  8  1  0  0  0  0
  6  7  2  0  0  0  0
  7  2  1  0  0  0  0
  8  9  2  0  0  0  0
  8 10  1  0  0  0  0
 11 12  1  0  0  0  0
 12 13  2  0  0  0  0
 13 14  1  0  0  0  0
 14  1  1  0  0  0  0
M  END
>  <MOLFORMULA>
C11 H7 Cl O2

>  <MOLWEIGHT>
2.066273000000000e+002

>  <code>
CC34402

>  <appearance>
Solid

>  <purity>
95%

>  <product_name>
4-(2-furyl)benzoyl chloride

>  <cansmi>
ClC(=O)c1ccc(cc1)c1ccco1

>  <HBA2>
2

>  <HBD>
0

>  <logP>
3.3256

>  <TPSA>
30.21

>  <MW>
206.625

$$$$

 OpenBabel02131616352D

 15 16  0  0  0  0  0  0  0  0999 V2000
    3.2705  -13.7404    0.0000 O   0  0  0  0  0  0  0  0  0  0  0  0
    4.0815  -13.8920    0.0000 N   0  0  0  0  0  0  0  0  0  0  0  0
    4.1848  -14.7146    0.0000 C   0  0  0  0  0  0  0  0  0  0  0  0
    3.4383  -15.0658    0.0000 N   0  0  0  0  0  0  0  0  0  0  0  0
    2.8703  -14.4619    0.0000 C   0  0  0  0  0  0  0  0  0  0  0  0
    4.9076  -15.1123    0.0000 C   0  0  0  0  0  0  0  0  0  0  0  0
    5.6133  -14.6813    0.0000 C   0  0  0  0  0  0  0  0  0  0  0  0
    6.3339  -15.0755    0.0000 C   0  0  0  0  0  0  0  0  0  0  0  0
    6.3551  -15.9006    0.0000 C   0  0  0  0  0  0  0  0  0  0  0  0
    5.6495  -16.3299    0.0000 C   0  0  0  0  0  0  0  0  0  0  0  0
    4.9227  -15.9341    0.0000 C   0  0  0  0  0  0  0  0  0  0  0  0
    2.0517  -14.5641    0.0000 C   0  0  0  0  0  0  0  0  0  0  0  0
    7.0794  -16.2956    0.0000 C   0  0  0  0  0  0  0  0  0  0  0  0
    7.7837  -15.8659    0.0000 Cl  0  0  0  0  0  0  0  0  0  0  0  0
    7.0994  -17.1204    0.0000 O   0  0  0  0  0  0  0  0  0  0  0  0
  1  2  1  0  0  0  0
  2  3  2  0  0  0  0
  3  4  1  0  0  0  0
  3  6  1  0  0  0  0
  4  5  2  0  0  0  0
  5  1  1  0  0  0  0
  5 12  1  0  0  0  0
  6 11  2  0  0  0  0
  6  7  1  0  0  0  0
  7  8  2  0  0  0  0
  8  9  1  0  0  0  0
  9 10  2  0  0  0  0
  9 13  1  0  0  0  0
 10 11  1  0  0  0  0
 13 14  1  0  0  0  0
 13 15  2  0  0  0  0
M  END
>  <MOLFORMULA>
C10 H7 Cl N2 O2

>  <MOLWEIGHT>
2.226303000000000e+002

>  <code>
CC34802

>  <appearance>
Solid

>  <purity>
97%

>  <product_name>
4-(5-methyl-1,2,4-oxadiazol-3-yl)benzoyl chloride

>  <cansmi>
Cc1onc(n1)c1ccc(cc1)C(=O)Cl

>  <HBA2>
4

>  <HBD>
0

>  <logP>
2.424

>  <TPSA>
55.99

>  <MW>
222.628

$$$$

 OpenBabel02131616352D

 13 14  0  0  0  0  0  0  0  0999 V2000
    5.8612  -15.2758    0.0000 C   0  0  0  0  0  0  0  0  0  0  0  0
    4.7955  -16.0770    0.0000 C   0  0  0  0  0  0  0  0  0  0  0  0
    5.0354  -15.2868    0.0000 C   0  0  0  0  0  0  0  0  0  0  0  0
    6.1287  -16.0546    0.0000 N   0  0  0  0  0  0  0  0  0  0  0  0
    5.4693  -16.5504    0.0000 O   0  0  0  0  0  0  0  0  0  0  0  0
    4.0166  -16.3446    0.0000 C   0  0  0  0  0  0  0  0  0  0  0  0
    6.3346  -14.6019    0.0000 C   0  0  0  0  0  0  0  0  0  0  0  0
    3.7717  -17.1282    0.0000 C   0  0  0  0  0  0  0  0  0  0  0  0
    3.3402  -15.8678    0.0000 O   0  0  0  0  0  0  0  0  0  0  0  0
    5.9887  -13.8507    0.0000 O   0  0  0  0  0  0  0  0  0  0  0  0
    2.9475  -17.1483    0.0000 C   0  0  0  0  0  0  0  0  0  0  0  0
    2.6808  -16.3636    0.0000 C   0  0  0  0  0  0  0  0  0  0  0  0
    7.1572  -14.6768    0.0000 Cl  0  0  0  0  0  0  0  0  0  0  0  0
  2  3  2  0  0  0  0
  3  1  1  0  0  0  0
  4  1  2  0  0  0  0
  5  4  1  0  0  0  0
  5  2  1  0  0  0  0
  6  2  1  0  0  0  0
  7  1  1  0  0  0  0
  8  6  2  0  0  0  0
  9  6  1  0  0  0  0
 10  7  2  0  0  0  0
 11  8  1  0  0  0  0
 11 12  2  0  0  0  0
 12  9  1  0  0  0  0
 13  7  1  0  0  0  0
M  END
>  <MOLFORMULA>
C8 H4 Cl N O3

>  <MOLWEIGHT>
1.975766000000000e+002

>  <code>
CC34902

>  <appearance>
Solid

>  <purity>
95%

>  <product_name>
5-(2-furyl)isoxazole-3-carbonyl chloride

>  <cansmi>
ClC(=O)c1noc(c1)c1ccco1

>  <HBA2>
4

>  <HBD>
0

>  <logP>
2.3136

>  <TPSA>
56.24

>  <MW>
197.575

$$$$

 OpenBabel02131616352D

 14 15  0  0  0  0  0  0  0  0999 V2000
    4.6612  -18.9456    0.0000 C   0  0  0  0  0  0  0  0  0  0  0  0
    3.9506  -19.3693    0.0000 C   0  0  0  0  0  0  0  0  0  0  0  0
    3.2305  -18.9657    0.0000 C   0  0  0  0  0  0  0  0  0  0  0  0
    3.2198  -18.1387    0.0000 C   0  0  0  0  0  0  0  0  0  0  0  0
    3.9351  -17.7168    0.0000 C   0  0  0  0  0  0  0  0  0  0  0  0
    4.6524  -18.1228    0.0000 C   0  0  0  0  0  0  0  0  0  0  0  0
    2.5061  -17.7382    0.0000 C   0  0  0  0  0  0  0  0  0  0  0  0
    1.7579  -18.0791    0.0000 S   0  0  0  0  0  0  0  0  0  0  0  0
    1.1961  -17.4730    0.0000 C   0  0  0  0  0  0  0  0  0  0  0  0
    1.6017  -16.7536    0.0000 C   0  0  0  0  0  0  0  0  0  0  0  0
    2.4097  -16.9163    0.0000 C   0  0  0  0  0  0  0  0  0  0  0  0
    3.9328  -16.8924    0.0000 C   0  0  0  0  0  0  0  0  0  0  0  0
    4.6435  -16.4734    0.0000 Cl  0  0  0  0  0  0  0  0  0  0  0  0
    3.2141  -16.4857    0.0000 O   0  0  0  0  0  0  0  0  0  0  0  0
  1  2  2  0  0  0  0
  2  3  1  0  0  0  0
  3  4  2  0  0  0  0
  4  5  1  0  0  0  0
  4  7  1  0  0  0  0
  5  6  2  0  0  0  0
  5 12  1  0  0  0  0
  6  1  1  0  0  0  0
  7  8  1  0  0  0  0
  8  9  1  0  0  0  0
  9 10  2  0  0  0  0
 10 11  1  0  0  0  0
 11  7  2  0  0  0  0
 12 13  1  0  0  0  0
 12 14  2  0  0  0  0
M  END
>  <MOLFORMULA>
C11 H7 Cl O S

>  <MOLWEIGHT>
2.226943000000000e+002

>  <code>
CC35502

>  <appearance>
Liquid

>  <purity>
97%

>  <product_name>
2-(2-thienyl)benzoyl chloride

>  <cansmi>
ClC(=O)c1ccccc1c1cccs1

>  <HBA2>
2

>  <HBD>
0

>  <logP>
3.7941

>  <TPSA>
45.31

>  <MW>
222.691

$$$$

 OpenBabel02131616352D

 14 15  0  0  0  0  0  0  0  0999 V2000
    3.0250    0.9292    0.0000 C   0  0  0  0  0  0  0  0  0  0  0  0
    3.7750    0.5958    0.0000 N   0  0  0  0  0  0  0  0  0  0  0  0
    1.5958   -1.5542    0.0000 C   0  0  0  0  0  0  0  0  0  0  0  0
    3.1042    1.7500    0.0000 S   0  0  0  0  0  0  0  0  0  0  0  0
    2.3125    0.5125    0.0000 C   0  0  0  0  0  0  0  0  0  0  0  0
    1.5958   -0.7292    0.0000 C   0  0  0  0  0  0  0  0  0  0  0  0
    2.3125   -0.3167    0.0000 C   0  0  0  0  0  0  0  0  0  0  0  0
    4.3250    1.2125    0.0000 C   0  0  0  0  0  0  0  0  0  0  0  0
    3.9125    1.9250    0.0000 C   0  0  0  0  0  0  0  0  0  0  0  0
    2.3125   -1.9667    0.0000 O   0  0  0  0  0  0  0  0  0  0  0  0
    0.8833   -1.9667    0.0000 Cl  0  0  0  0  0  0  0  0  0  0  0  0
    1.5958    0.9250    0.0000 C   0  0  0  0  0  0  0  0  0  0  0  0
    0.8833   -0.3167    0.0000 C   0  0  0  0  0  0  0  0  0  0  0  0
    0.8833    0.5125    0.0000 C   0  0  0  0  0  0  0  0  0  0  0  0
  2  1  2  0  0  0  0
  3  6  1  0  0  0  0
  4  1  1  0  0  0  0
  5  1  1  0  0  0  0
  6  7  2  0  0  0  0
  6 13  1  0  0  0  0
  7  5  1  0  0  0  0
  8  2  1  0  0  0  0
  9  4  1  0  0  0  0
  9  8  2  0  0  0  0
 10  3  2  0  0  0  0
 11  3  1  0  0  0  0
 12  5  2  0  0  0  0
 13 14  2  0  0  0  0
 14 12  1  0  0  0  0
M  END
>  <MOLFORMULA>
C10 H6 Cl N O S

>  <MOLWEIGHT>
2.236824000000000e+002

>  <code>
CC36502

>  <appearance>
Solid

>  <purity>
97%

>  <product_name>
3-(1,3-thiazol-2-yl)benzoyl chloride

>  <cansmi>
ClC(=O)c1cccc(c1)c1nccs1

>  <HBA2>
3

>  <HBD>
0

>  <logP>
3.1891

>  <TPSA>
58.2

>  <MW>
223.679

$$$$

 OpenBabel02131616352D

 13 14  0  0  0  0  0  0  0  0999 V2000
   -1.9458    0.0833    0.0000 S   0  0  0  0  0  0  0  0  0  0  0  0
   -1.2765    0.5658    0.0000 C   0  0  0  0  0  0  0  0  0  0  0  0
   -1.5333    1.3541    0.0000 C   0  0  0  0  0  0  0  0  0  0  0  0
   -2.6151    0.5658    0.0000 C   0  0  0  0  0  0  0  0  0  0  0  0
   -2.3564    1.3515    0.0000 C   0  0  0  0  0  0  0  0  0  0  0  0
   -2.9070    1.9663    0.0000 C   0  0  0  0  0  0  0  0  0  0  0  0
   -3.7164    1.7966    0.0000 C   0  0  0  0  0  0  0  0  0  0  0  0
   -3.9722    1.0067    0.0000 C   0  0  0  0  0  0  0  0  0  0  0  0
   -3.4199    0.3952    0.0000 C   0  0  0  0  0  0  0  0  0  0  0  0
   -4.2679    2.4102    0.0000 Br  0  0  0  0  0  0  0  0  0  0  0  0
   -0.4923    0.3097    0.0000 C   0  0  0  0  0  0  0  0  0  0  0  0
   -0.3219   -0.4975    0.0000 O   0  0  0  0  0  0  0  0  0  0  0  0
    0.1217    0.8608    0.0000 Cl  0  0  0  0  0  0  0  0  0  0  0  0
  1  2  1  0  0  0  0
  2  3  2  0  0  0  0
  2 11  1  0  0  0  0
  3  5  1  0  0  0  0
  4  1  1  0  0  0  0
  4  5  2  0  0  0  0
  5  6  1  0  0  0  0
  6  7  2  0  0  0  0
  7  8  1  0  0  0  0
  7 10  1  0  0  0  0
  8  9  2  0  0  0  0
  9  4  1  0  0  0  0
 11 12  2  0  0  0  0
 11 13  1  0  0  0  0
M  END
>  <MOLFORMULA>
C9 H4 Br Cl O S

>  <MOLWEIGHT>
2.755526000000000e+002

>  <code>
CC38802

>  <appearance>
solid

>  <purity>
97%

>  <product_name>
5-bromo-1-benzothiophene-2-carbonyl chloride

>  <cansmi>
Brc1ccc2c(c1)cc(s2)C(=O)Cl

>  <HBA2>
2

>  <HBD>
0

>  <logP>
4.0428

>  <TPSA>
45.31

>  <MW>
275.549

$$$$

 OpenBabel02131616352D

 11 12  0  0  0  0  0  0  0  0999 V2000
   -0.7625   -0.3499    0.0000 N   0  0  0  0  0  0  0  0  0  0  0  0
   -0.0932    0.1325    0.0000 C   0  0  0  0  0  0  0  0  0  0  0  0
   -0.3500    0.9208    0.0000 C   0  0  0  0  0  0  0  0  0  0  0  0
   -1.8425    1.4125    0.0000 S   0  0  0  0  0  0  0  0  0  0  0  0
   -2.5164    0.9267    0.0000 C   0  0  0  0  0  0  0  0  0  0  0  0
   -2.2626    0.1356    0.0000 C   0  0  0  0  0  0  0  0  0  0  0  0
   -1.4318    0.1325    0.0000 C   0  0  0  0  0  0  0  0  0  0  0  0
   -1.1721    0.9217    0.0000 C   0  0  0  0  0  0  0  0  0  0  0  0
    0.6910   -0.1236    0.0000 C   0  0  0  0  0  0  0  0  0  0  0  0
    0.8613   -0.9308    0.0000 O   0  0  0  0  0  0  0  0  0  0  0  0
    1.3049    0.4276    0.0000 Cl  0  0  0  0  0  0  0  0  0  0  0  0
  1  2  1  0  0  0  0
  2  9  1  0  0  0  0
  2  3  2  0  0  0  0
  3  8  1  0  0  0  0
  4  5  1  0  0  0  0
  5  6  2  0  0  0  0
  6  7  1  0  0  0  0
  7  1  1  0  0  0  0
  7  8  2  0  0  0  0
  8  4  1  0  0  0  0
  9 10  2  0  0  0  0
  9 11  1  0  0  0  0
M  END
>  <MOLFORMULA>
C7 H4 Cl N O S

>  <MOLWEIGHT>
1.856336000000000e+002

>  <code>
CC39002

>  <appearance>
Solid

>  <purity>
90%

>  <product_name>
4H-thieno[3,2-b]pyrrole-5-carbonyl chloride

>  <cansmi>
ClC(=O)c1cc2c([nH]1)ccs2

>  <HBA2>
2

>  <HBD>
1

>  <logP>
2.6084

>  <TPSA>
61.1

>  <MW>
185.631

$$$$

 OpenBabel02131616352D

 15 16  0  0  0  0  0  0  0  0999 V2000
   -3.2915    0.5598    0.0000 C   0  0  0  0  0  0  0  0  0  0  0  0
   -4.0438    0.2206    0.0000 N   0  0  0  0  0  0  0  0  0  0  0  0
   -4.6007    0.8306    0.0000 C   0  0  0  0  0  0  0  0  0  0  0  0
   -4.1870    1.5500    0.0000 O   0  0  0  0  0  0  0  0  0  0  0  0
   -3.3835    1.3782    0.0000 N   0  0  0  0  0  0  0  0  0  0  0  0
   -5.4222    0.7432    0.0000 C   0  0  0  0  0  0  0  0  0  0  0  0
   -2.5758    0.1518    0.0000 C   0  0  0  0  0  0  0  0  0  0  0  0
   -1.8647    0.5731    0.0000 C   0  0  0  0  0  0  0  0  0  0  0  0
   -1.1516    0.1603    0.0000 C   0  0  0  0  0  0  0  0  0  0  0  0
   -1.1462   -0.6652    0.0000 C   0  0  0  0  0  0  0  0  0  0  0  0
   -1.8637   -1.0779    0.0000 C   0  0  0  0  0  0  0  0  0  0  0  0
   -2.5777   -0.6685    0.0000 C   0  0  0  0  0  0  0  0  0  0  0  0
   -0.4393    0.5777    0.0000 C   0  0  0  0  0  0  0  0  0  0  0  0
   -0.4409    1.4040    0.0000 O   0  0  0  0  0  0  0  0  0  0  0  0
    0.2825    0.1662    0.0000 Cl  0  0  0  0  0  0  0  0  0  0  0  0
  1  2  1  0  0  0  0
  1  7  1  0  0  0  0
  2  3  2  0  0  0  0
  3  4  1  0  0  0  0
  3  6  1  0  0  0  0
  4  5  1  0  0  0  0
  5  1  2  0  0  0  0
  7  8  2  0  0  0  0
  8  9  1  0  0  0  0
  9 10  2  0  0  0  0
  9 13  1  0  0  0  0
 10 11  1  0  0  0  0
 11 12  2  0  0  0  0
 12  7  1  0  0  0  0
 13 14  2  0  0  0  0
 13 15  1  0  0  0  0
M  END
>  <MOLFORMULA>
C10 H7 Cl N2 O2

>  <MOLWEIGHT>
2.226303000000000e+002

>  <code>
CC39102

>  <appearance>
Solid

>  <purity>
97%

>  <product_name>
3-(5-methyl-1,2,4-oxadiazol-3-yl)benzoyl chloride

>  <cansmi>
Cc1onc(n1)c1cccc(c1)C(=O)Cl

>  <HBA2>
4

>  <HBD>
0

>  <logP>
2.424

>  <TPSA>
55.99

>  <MW>
222.628

$$$$

 OpenBabel02131616352D

 14 15  0  0  0  0  0  0  0  0999 V2000
    5.4689   -3.5286    0.0000 C   0  0  0  0  0  0  0  0  0  0  0  0
    6.1928   -3.1195    0.0000 C   0  0  0  0  0  0  0  0  0  0  0  0
    6.1974   -2.2904    0.0000 C   0  0  0  0  0  0  0  0  0  0  0  0
    5.4824   -1.8673    0.0000 C   0  0  0  0  0  0  0  0  0  0  0  0
    4.7650   -2.2773    0.0000 C   0  0  0  0  0  0  0  0  0  0  0  0
    4.7567   -3.1092    0.0000 C   0  0  0  0  0  0  0  0  0  0  0  0
    4.0513   -1.8495    0.0000 C   0  0  0  0  0  0  0  0  0  0  0  0
    3.8794   -1.0445    0.0000 N   0  0  0  0  0  0  0  0  0  0  0  0
    3.0573   -0.9587    0.0000 C   0  0  0  0  0  0  0  0  0  0  0  0
    2.7204   -1.7026    0.0000 C   0  0  0  0  0  0  0  0  0  0  0  0
    3.3271   -2.2639    0.0000 S   0  0  0  0  0  0  0  0  0  0  0  0
    6.9042   -3.5373    0.0000 C   0  0  0  0  0  0  0  0  0  0  0  0
    7.6217   -3.1300    0.0000 Cl  0  0  0  0  0  0  0  0  0  0  0  0
    6.8981   -4.3622    0.0000 O   0  0  0  0  0  0  0  0  0  0  0  0
  1  2  2  0  0  0  0
  2  3  1  0  0  0  0
  2 12  1  0  0  0  0
  3  4  2  0  0  0  0
  4  5  1  0  0  0  0
  5  7  1  0  0  0  0
  5  6  2  0  0  0  0
  6  1  1  0  0  0  0
  7  8  2  0  0  0  0
  8  9  1  0  0  0  0
  9 10  2  0  0  0  0
 10 11  1  0  0  0  0
 11  7  1  0  0  0  0
 12 13  1  0  0  0  0
 12 14  2  0  0  0  0
M  END
>  <MOLFORMULA>
C10 H6 Cl N O S

>  <MOLWEIGHT>
2.236824000000000e+002

>  <code>
CC40202

>  <appearance>
Solid

>  <purity>
97%

>  <product_name>
4-(1,3-thiazol-2-yl)benzoyl chloride

>  <cansmi>
ClC(=O)c1ccc(cc1)c1nccs1

>  <HBA2>
3

>  <HBD>
0

>  <logP>
3.1891

>  <TPSA>
58.2

>  <MW>
223.679

$$$$

 OpenBabel02131616352D

 15 16  0  0  0  0  0  0  0  0999 V2000
   -1.4868    1.7181    0.0000 C   0  0  0  0  0  0  0  0  0  0  0  0
   -0.7754    1.3016    0.0000 C   0  0  0  0  0  0  0  0  0  0  0  0
   -0.0549    1.7059    0.0000 C   0  0  0  0  0  0  0  0  0  0  0  0
   -0.7887    0.4804    0.0000 C   0  0  0  0  0  0  0  0  0  0  0  0
    0.6489    0.4519    0.0000 C   0  0  0  0  0  0  0  0  0  0  0  0
    0.6569    1.2852    0.0000 C   0  0  0  0  0  0  0  0  0  0  0  0
   -0.0886    0.0502    0.0000 C   0  0  0  0  0  0  0  0  0  0  0  0
    1.3562    0.0272    0.0000 C   0  0  0  0  0  0  0  0  0  0  0  0
    2.0777    0.4273    0.0000 Cl  0  0  0  0  0  0  0  0  0  0  0  0
    1.3420   -0.7976    0.0000 O   0  0  0  0  0  0  0  0  0  0  0  0
   -1.5664    2.5379    0.0000 C   0  0  0  0  0  0  0  0  0  0  0  0
   -2.3717    2.7141    0.0000 S   0  0  0  0  0  0  0  0  0  0  0  0
   -2.7882    2.0027    0.0000 C   0  0  0  0  0  0  0  0  0  0  0  0
   -2.2402    1.3868    0.0000 N   0  0  0  0  0  0  0  0  0  0  0  0
   -3.6092    1.9214    0.0000 C   0  0  0  0  0  0  0  0  0  0  0  0
  1 11  2  0  0  0  0
  2  1  1  0  0  0  0
  3  2  2  0  0  0  0
  4  2  1  0  0  0  0
  5  6  2  0  0  0  0
  5  8  1  0  0  0  0
  5  7  1  0  0  0  0
  6  3  1  0  0  0  0
  7  4  2  0  0  0  0
  8  9  1  0  0  0  0
  8 10  2  0  0  0  0
 11 12  1  0  0  0  0
 12 13  1  0  0  0  0
 13 14  2  0  0  0  0
 13 15  1  0  0  0  0
 14  1  1  0  0  0  0
M  END
>  <MOLFORMULA>
C11 H8 Cl N O S

>  <MOLWEIGHT>
2.377092000000000e+002

>  <code>
CC40302

>  <appearance>
Solid

>  <purity>
Tech

>  <product_name>
4-(2-methyl-1,3-thiazol-4-yl)benzoyl chloride

>  <cansmi>
ClC(=O)c1ccc(cc1)c1csc(n1)C

>  <HBA2>
3

>  <HBD>
0

>  <logP>
3.4975

>  <TPSA>
58.2

>  <MW>
237.705

$$$$

 OpenBabel02131616352D

 13 14  0  0  0  0  0  0  0  0999 V2000
    4.5250   -4.1333    0.0000 O   0  0  0  0  0  0  0  0  0  0  0  0
    5.1943   -3.6508    0.0000 C   0  0  0  0  0  0  0  0  0  0  0  0
    4.9375   -2.8625    0.0000 C   0  0  0  0  0  0  0  0  0  0  0  0
    3.8557   -3.6508    0.0000 C   0  0  0  0  0  0  0  0  0  0  0  0
    4.1144   -2.8651    0.0000 C   0  0  0  0  0  0  0  0  0  0  0  0
    3.5638   -2.2503    0.0000 C   0  0  0  0  0  0  0  0  0  0  0  0
    2.7544   -2.4200    0.0000 C   0  0  0  0  0  0  0  0  0  0  0  0
    2.4986   -3.2100    0.0000 C   0  0  0  0  0  0  0  0  0  0  0  0
    3.0509   -3.8214    0.0000 C   0  0  0  0  0  0  0  0  0  0  0  0
    5.4211   -2.1941    0.0000 C   0  0  0  0  0  0  0  0  0  0  0  0
    6.2418   -2.2788    0.0000 C   0  0  0  0  0  0  0  0  0  0  0  0
    6.7254   -1.6104    0.0000 O   0  0  0  0  0  0  0  0  0  0  0  0
    6.5788   -3.0318    0.0000 Cl  0  0  0  0  0  0  0  0  0  0  0  0
  1  2  1  0  0  0  0
  2  3  2  0  0  0  0
  3  5  1  0  0  0  0
  3 10  1  0  0  0  0
  4  1  1  0  0  0  0
  4  5  2  0  0  0  0
  5  6  1  0  0  0  0
  6  7  2  0  0  0  0
  7  8  1  0  0  0  0
  8  9  2  0  0  0  0
  9  4  1  0  0  0  0
 10 11  1  0  0  0  0
 11 12  2  0  0  0  0
 11 13  1  0  0  0  0
M  END
>  <MOLFORMULA>
C10 H7 Cl O2

>  <MOLWEIGHT>
1.946163000000000e+002

>  <code>
CC40802

>  <appearance>
Liquid

>  <purity>
97%

>  <product_name>
benzo[b]furan-3-ylacetyl chloride

>  <cansmi>
ClC(=O)Cc1coc2c1cccc2

>  <HBA2>
2

>  <HBD>
0

>  <logP>
2.7407

>  <TPSA>
30.21

>  <MW>
194.614

$$$$

 OpenBabel02131616352D

  9  9  0  0  0  0  0  0  0  0999 V2000
    3.6625   -1.6542    0.0000 C   0  0  0  0  0  0  0  0  0  0  0  0
    3.6625   -2.4834    0.0000 C   0  0  0  0  0  0  0  0  0  0  0  0
    4.3787   -2.8917    0.0000 O   0  0  0  0  0  0  0  0  0  0  0  0
    5.0949   -2.4834    0.0000 C   0  0  3  0  0  0  0  0  0  0  0  0
    5.0949   -1.6542    0.0000 C   0  0  0  0  0  0  0  0  0  0  0  0
    4.3787   -1.2333    0.0000 C   0  0  0  0  0  0  0  0  0  0  0  0
    5.8129   -2.8969    0.0000 C   0  0  0  0  0  0  0  0  0  0  0  0
    5.8117   -3.7260    0.0000 O   0  0  0  0  0  0  0  0  0  0  0  0
    6.5321   -2.4854    0.0000 Cl  0  0  0  0  0  0  0  0  0  0  0  0
  1  2  1  0  0  0  0
  1  6  1  0  0  0  0
  2  3  1  0  0  0  0
  3  4  1  0  0  0  0
  4  5  1  0  0  0  0
  4  7  1  0  0  0  0
  5  6  1  0  0  0  0
  7  8  2  0  0  0  0
  7  9  1  0  0  0  0
M  END
>  <MOLFORMULA>
C6 H9 Cl O2

>  <MOLWEIGHT>
1.485881000000000e+002

>  <code>
CC41202

>  <appearance>
Liquid

>  <purity>
97%

>  <product_name>
tetrahydropyran-2-carbonyl chloride

>  <cansmi>
ClC(=O)C1CCCCO1

>  <HBA2>
2

>  <HBD>
0

>  <logP>
1.3209

>  <TPSA>
26.3

>  <MW>
148.587

$$$$

 OpenBabel02131616352D

 13 14  0  0  0  0  0  0  0  0999 V2000
    4.8906   -2.2137    0.0000 C   0  0  0  0  0  0  0  0  0  0  0  0
    4.0573   -2.2184    0.0000 C   0  0  0  0  0  0  0  0  0  0  0  0
    3.8041   -3.0069    0.0000 N   0  0  0  0  0  0  0  0  0  0  0  0
    4.4791   -3.4958    0.0000 N   0  0  0  0  0  0  0  0  0  0  0  0
    5.1484   -2.9993    0.0000 C   0  0  0  0  0  0  0  0  0  0  0  0
    4.8817   -0.7873    0.0000 C   0  0  0  0  0  0  0  0  0  0  0  0
    4.0502   -0.7909    0.0000 C   0  0  0  0  0  0  0  0  0  0  0  0
    3.6414   -1.5080    0.0000 C   0  0  0  0  0  0  0  0  0  0  0  0
    5.2985   -1.4969    0.0000 C   0  0  0  0  0  0  0  0  0  0  0  0
    4.4838   -4.3208    0.0000 C   0  0  0  0  0  0  0  0  0  0  0  0
    5.9346   -3.2493    0.0000 C   0  0  0  0  0  0  0  0  0  0  0  0
    6.1113   -4.0552    0.0000 O   0  0  0  0  0  0  0  0  0  0  0  0
    6.5441   -2.6933    0.0000 Cl  0  0  0  0  0  0  0  0  0  0  0  0
  1  9  1  0  0  0  0
  1  2  1  0  0  0  0
  2  3  2  0  0  0  0
  3  4  1  0  0  0  0
  4  5  1  0  0  0  0
  4 10  1  0  0  0  0
  5  1  2  0  0  0  0
  5 11  1  0  0  0  0
  6  7  1  0  0  0  0
  7  8  2  0  0  0  0
  8  2  1  0  0  0  0
  9  6  2  0  0  0  0
 11 12  2  0  0  0  0
 11 13  1  0  0  0  0
M  END
>  <MOLFORMULA>
C9 H7 Cl N2 O

>  <MOLWEIGHT>
1.946203000000000e+002

>  <code>
CC44402

>  <appearance>
Solid

>  <purity>
95%

>  <product_name>
2-methyl-2H-indazole-3-carbonyl chloride

>  <cansmi>
ClC(=O)c1n(C)nc2c1cccc2

>  <HBA2>
3

>  <HBD>
0

>  <logP>
1.9523

>  <TPSA>
34.89

>  <MW>
194.618

$$$$

 OpenBabel02131616352D

 15 16  0  0  0  0  0  0  0  0999 V2000
    2.6466   -3.3224    0.0000 C   0  0  0  0  0  0  0  0  0  0  0  0
    3.2342   -3.9049    0.0000 C   0  0  0  0  0  0  0  0  0  0  0  0
    4.0304   -3.6868    0.0000 C   0  0  0  0  0  0  0  0  0  0  0  0
    4.2401   -2.8867    0.0000 C   0  0  0  0  0  0  0  0  0  0  0  0
    3.6475   -2.3049    0.0000 C   0  0  0  0  0  0  0  0  0  0  0  0
    2.8536   -2.5260    0.0000 C   0  0  0  0  0  0  0  0  0  0  0  0
    5.0331   -2.6695    0.0000 C   0  0  0  0  0  0  0  0  0  0  0  0
    5.7018   -3.1638    0.0000 N   0  0  0  0  0  0  0  0  0  0  0  0
    6.3693   -2.6817    0.0000 N   0  0  0  0  0  0  0  0  0  0  0  0
    6.1285   -1.9005    0.0000 C   0  0  0  0  0  0  0  0  0  0  0  0
    5.2994   -1.8873    0.0000 C   0  0  0  0  0  0  0  0  0  0  0  0
    5.7004   -3.9811    0.0000 C   0  0  0  0  0  0  0  0  0  0  0  0
    6.6367   -1.2477    0.0000 C   0  0  0  0  0  0  0  0  0  0  0  0
    7.4491   -1.3629    0.0000 Cl  0  0  0  0  0  0  0  0  0  0  0  0
    6.3282   -0.4757    0.0000 O   0  0  0  0  0  0  0  0  0  0  0  0
  1  2  2  0  0  0  0
  2  3  1  0  0  0  0
  3  4  2  0  0  0  0
  4  5  1  0  0  0  0
  4  7  1  0  0  0  0
  5  6  2  0  0  0  0
  6  1  1  0  0  0  0
  7  8  1  0  0  0  0
  8  9  1  0  0  0  0
  8 12  1  0  0  0  0
  9 10  2  0  0  0  0
 10 11  1  0  0  0  0
 10 13  1  0  0  0  0
 11  7  2  0  0  0  0
 13 14  1  0  0  0  0
 13 15  2  0  0  0  0
M  END
>  <MOLFORMULA>
C11 H9 Cl N2 O

>  <MOLWEIGHT>
2.206581000000000e+002

>  <code>
CC46502

>  <appearance>
Solid

>  <purity>
95%

>  <product_name>
1-methyl-5-phenyl-1H-pyrazole-3-carbonyl chloride

>  <cansmi>
ClC(=O)c1cc(n(n1)C)c1ccccc1

>  <HBA2>
3

>  <HBD>
0

>  <logP>
2.4661

>  <TPSA>
34.89

>  <MW>
220.655

$$$$

 OpenBabel02131616352D

 15 16  0  0  0  0  0  0  0  0999 V2000
    4.4023   -4.2017    0.0000 C   0  0  0  0  0  0  0  0  0  0  0  0
    4.0131   -4.9318    0.0000 C   0  0  0  0  0  0  0  0  0  0  0  0
    4.4508   -5.6318    0.0000 C   0  0  0  0  0  0  0  0  0  0  0  0
    5.2774   -5.6028    0.0000 C   0  0  0  0  0  0  0  0  0  0  0  0
    5.6645   -4.8680    0.0000 C   0  0  0  0  0  0  0  0  0  0  0  0
    5.2246   -4.1711    0.0000 C   0  0  0  0  0  0  0  0  0  0  0  0
    5.7133   -6.3000    0.0000 C   0  0  0  0  0  0  0  0  0  0  0  0
    5.4319   -7.0825    0.0000 N   0  0  0  0  0  0  0  0  0  0  0  0
    6.0855   -7.5834    0.0000 N   0  0  0  0  0  0  0  0  0  0  0  0
    6.7646   -7.1283    0.0000 C   0  0  0  0  0  0  0  0  0  0  0  0
    6.5390   -6.3303    0.0000 C   0  0  0  0  0  0  0  0  0  0  0  0
    7.5359   -7.4275    0.0000 C   0  0  0  0  0  0  0  0  0  0  0  0
    6.0677   -8.4156    0.0000 C   0  0  0  0  0  0  0  0  0  0  0  0
    7.6589   -8.2387    0.0000 Cl  0  0  0  0  0  0  0  0  0  0  0  0
    8.1867   -6.9102    0.0000 O   0  0  0  0  0  0  0  0  0  0  0  0
  1  2  2  0  0  0  0
  2  3  1  0  0  0  0
  3  4  2  0  0  0  0
  4  5  1  0  0  0  0
  4  7  1  0  0  0  0
  5  6  2  0  0  0  0
  6  1  1  0  0  0  0
  7  8  2  0  0  0  0
  8  9  1  0  0  0  0
  9 10  1  0  0  0  0
  9 13  1  0  0  0  0
 10 11  2  0  0  0  0
 10 12  1  0  0  0  0
 11  7  1  0  0  0  0
 12 14  1  0  0  0  0
 12 15  2  0  0  0  0
M  END
>  <MOLFORMULA>
C11 H9 Cl N2 O

>  <MOLWEIGHT>
2.206581000000000e+002

>  <code>
CC46602

>  <appearance>
Solid

>  <purity>
97%

>  <product_name>
1-methyl-3-phenyl-1H-pyrazole-5-carbonyl chloride

>  <cansmi>
ClC(=O)c1cc(nn1C)c1ccccc1

>  <HBA2>
3

>  <HBD>
0

>  <logP>
2.4661

>  <TPSA>
34.89

>  <MW>
220.655

$$$$

 OpenBabel02131616352D

 14 15  0  0  0  0  0  0  0  0999 V2000
    5.5198   -3.3933    0.0000 N   0  0  0  0  0  0  0  0  0  0  0  0
    6.1871   -2.9013    0.0000 N   0  0  0  0  0  0  0  0  0  0  0  0
    5.9173   -2.1164    0.0000 C   0  0  0  0  0  0  0  0  0  0  0  0
    5.0981   -2.1230    0.0000 C   0  0  0  0  0  0  0  0  0  0  0  0
    4.8452   -2.9112    0.0000 C   0  0  0  0  0  0  0  0  0  0  0  0
    4.1533   -4.2316    0.0000 O   0  0  0  0  0  0  0  0  0  0  0  0
    4.1820   -3.4041    0.0000 C   0  0  0  0  0  0  0  0  0  0  0  0
    3.4013   -3.1265    0.0000 C   0  0  0  0  0  0  0  0  0  0  0  0
    2.8915   -3.7762    0.0000 C   0  0  0  0  0  0  0  0  0  0  0  0
    3.3500   -4.4549    0.0000 C   0  0  0  0  0  0  0  0  0  0  0  0
    6.3948   -1.4385    0.0000 C   0  0  0  0  0  0  0  0  0  0  0  0
    5.5259   -4.2275    0.0000 C   0  0  0  0  0  0  0  0  0  0  0  0
    7.2196   -1.5140    0.0000 Cl  0  0  0  0  0  0  0  0  0  0  0  0
    6.0503   -0.6778    0.0000 O   0  0  0  0  0  0  0  0  0  0  0  0
  1  2  1  0  0  0  0
  1 12  1  0  0  0  0
  2  3  2  0  0  0  0
  3  4  1  0  0  0  0
  3 11  1  0  0  0  0
  4  5  2  0  0  0  0
  5  1  1  0  0  0  0
  6  7  1  0  0  0  0
  7  8  2  0  0  0  0
  7  5  1  0  0  0  0
  8  9  1  0  0  0  0
  9 10  2  0  0  0  0
 10  6  1  0  0  0  0
 11 13  1  0  0  0  0
 11 14  2  0  0  0  0
M  END
>  <MOLFORMULA>
C9 H7 Cl N2 O2

>  <MOLWEIGHT>
2.106193000000000e+002

>  <code>
CC46902

>  <appearance>
Solid

>  <purity>
97%

>  <product_name>
5-(2-furyl)-1-methyl-1H-pyrazole-3-carbonyl chloride

>  <cansmi>
Cn1nc(cc1c1ccco1)C(=O)Cl

>  <HBA2>
4

>  <HBD>
0

>  <logP>
2.0591

>  <TPSA>
48.03

>  <MW>
210.617

$$$$

 OpenBabel02131616352D

 14 15  0  0  0  0  0  0  0  0999 V2000
    5.5761   -2.9920    0.0000 N   0  0  0  0  0  0  0  0  0  0  0  0
    6.2514   -2.5111    0.0000 N   0  0  0  0  0  0  0  0  0  0  0  0
    5.9946   -1.7218    0.0000 C   0  0  0  0  0  0  0  0  0  0  0  0
    5.1755   -1.7149    0.0000 C   0  0  0  0  0  0  0  0  0  0  0  0
    4.9095   -2.4988    0.0000 C   0  0  0  0  0  0  0  0  0  0  0  0
    4.1960   -3.8076    0.0000 S   0  0  0  0  0  0  0  0  0  0  0  0
    4.2383   -2.9807    0.0000 C   0  0  0  0  0  0  0  0  0  0  0  0
    3.4623   -2.6903    0.0000 C   0  0  0  0  0  0  0  0  0  0  0  0
    2.9418   -3.3315    0.0000 C   0  0  0  0  0  0  0  0  0  0  0  0
    3.3890   -4.0176    0.0000 C   0  0  0  0  0  0  0  0  0  0  0  0
    6.4833   -1.0519    0.0000 C   0  0  0  0  0  0  0  0  0  0  0  0
    5.5685   -3.8261    0.0000 C   0  0  0  0  0  0  0  0  0  0  0  0
    7.3067   -1.1410    0.0000 Cl  0  0  0  0  0  0  0  0  0  0  0  0
    6.1514   -0.2856    0.0000 O   0  0  0  0  0  0  0  0  0  0  0  0
  1  2  1  0  0  0  0
  1 12  1  0  0  0  0
  2  3  2  0  0  0  0
  3  4  1  0  0  0  0
  3 11  1  0  0  0  0
  4  5  2  0  0  0  0
  5  1  1  0  0  0  0
  6  7  1  0  0  0  0
  7  8  2  0  0  0  0
  7  5  1  0  0  0  0
  8  9  1  0  0  0  0
  9 10  2  0  0  0  0
 10  6  1  0  0  0  0
 11 13  1  0  0  0  0
 11 14  2  0  0  0  0
M  END
>  <MOLFORMULA>
C9 H7 Cl N2 O S

>  <MOLWEIGHT>
2.266863000000000e+002

>  <code>
CC47102

>  <appearance>
Solid

>  <purity>
Tech

>  <product_name>
1-methyl-5-thien-2-yl-1H-pyrazole-3-carbonyl chloride

>  <cansmi>
Cn1nc(cc1c1cccs1)C(=O)Cl

>  <HBA2>
4

>  <HBD>
0

>  <logP>
2.5276

>  <TPSA>
63.13

>  <MW>
226.683

$$$$

 OpenBabel02131616352D

 14 15  0  0  0  0  0  0  0  0999 V2000
    5.9260   -7.1543    0.0000 N   0  0  0  0  0  0  0  0  0  0  0  0
    6.5985   -6.6720    0.0000 C   0  0  0  0  0  0  0  0  0  0  0  0
    6.3410   -5.8794    0.0000 C   0  0  0  0  0  0  0  0  0  0  0  0
    5.5243   -5.8850    0.0000 C   0  0  0  0  0  0  0  0  0  0  0  0
    5.2614   -6.6678    0.0000 N   0  0  0  0  0  0  0  0  0  0  0  0
    4.1727   -5.2338    0.0000 S   0  0  0  0  0  0  0  0  0  0  0  0
    5.0052   -5.2314    0.0000 C   0  0  0  0  0  0  0  0  0  0  0  0
    5.2517   -4.4343    0.0000 C   0  0  0  0  0  0  0  0  0  0  0  0
    4.5821   -3.9523    0.0000 C   0  0  0  0  0  0  0  0  0  0  0  0
    3.9150   -4.4403    0.0000 C   0  0  0  0  0  0  0  0  0  0  0  0
    5.9192   -7.9878    0.0000 C   0  0  0  0  0  0  0  0  0  0  0  0
    7.3890   -6.9322    0.0000 C   0  0  0  0  0  0  0  0  0  0  0  0
    7.5525   -7.7442    0.0000 O   0  0  0  0  0  0  0  0  0  0  0  0
    8.0080   -6.3880    0.0000 Cl  0  0  0  0  0  0  0  0  0  0  0  0
  1  2  1  0  0  0  0
  1 11  1  0  0  0  0
  2  3  2  0  0  0  0
  2 12  1  0  0  0  0
  3  4  1  0  0  0  0
  4  5  2  0  0  0  0
  5  1  1  0  0  0  0
  6  7  1  0  0  0  0
  7  8  2  0  0  0  0
  7  4  1  0  0  0  0
  8  9  1  0  0  0  0
  9 10  2  0  0  0  0
 10  6  1  0  0  0  0
 12 13  2  0  0  0  0
 12 14  1  0  0  0  0
M  END
>  <MOLFORMULA>
C9 H7 Cl N2 O S

>  <MOLWEIGHT>
2.266863000000000e+002

>  <code>
CC47202

>  <appearance>
Solid

>  <purity>
97%

>  <product_name>
1-methyl-3-thien-2-yl-1H-pyrazole-5-carbonyl chloride

>  <cansmi>
ClC(=O)c1cc(nn1C)c1cccs1

>  <HBA2>
4

>  <HBD>
0

>  <logP>
2.5276

>  <TPSA>
63.13

>  <MW>
226.683

$$$$

 OpenBabel02131616352D

 13 14  0  0  0  0  0  0  0  0999 V2000
    7.7374   -6.5710    0.0000 C   0  0  0  0  0  0  0  0  0  0  0  0
    8.3433   -6.0164    0.0000 Cl  0  0  0  0  0  0  0  0  0  0  0  0
    7.9154   -7.3789    0.0000 O   0  0  0  0  0  0  0  0  0  0  0  0
    6.2717   -6.8082    0.0000 S   0  0  0  0  0  0  0  0  0  0  0  0
    6.9414   -6.3172    0.0000 C   0  0  0  0  0  0  0  0  0  0  0  0
    6.6782   -5.5327    0.0000 C   0  0  0  0  0  0  0  0  0  0  0  0
    5.8658   -5.5343    0.0000 C   0  0  0  0  0  0  0  0  0  0  0  0
    5.6071   -6.3219    0.0000 C   0  0  0  0  0  0  0  0  0  0  0  0
    4.1458   -6.0500    0.0000 O   0  0  0  0  0  0  0  0  0  0  0  0
    3.4765   -6.5367    0.0000 C   0  0  0  0  0  0  0  0  0  0  0  0
    3.7250   -7.3208    0.0000 C   0  0  0  0  0  0  0  0  0  0  0  0
    4.5458   -7.3250    0.0000 C   0  0  0  0  0  0  0  0  0  0  0  0
    4.8110   -6.5408    0.0000 C   0  0  0  0  0  0  0  0  0  0  0  0
  1  3  2  0  0  0  0
  1  2  1  0  0  0  0
  4  5  1  0  0  0  0
  5  6  2  0  0  0  0
  5  1  1  0  0  0  0
  6  7  1  0  0  0  0
  7  8  2  0  0  0  0
  8  4  1  0  0  0  0
  9 10  1  0  0  0  0
 10 11  2  0  0  0  0
 11 12  1  0  0  0  0
 12 13  2  0  0  0  0
 13  9  1  0  0  0  0
 13  8  1  0  0  0  0
M  END
>  <MOLFORMULA>
C9 H5 Cl O2 S

>  <MOLWEIGHT>
2.126555000000000e+002

>  <code>
CC47702

>  <appearance>
Solid

>  <purity>
97%

>  <product_name>
5-(2-furyl)thiophene-2-carbonyl chloride

>  <cansmi>
ClC(=O)c1ccc(s1)c1ccco1

>  <HBA2>
3

>  <HBD>
0

>  <logP>
3.3871

>  <TPSA>
58.45

>  <MW>
212.653

$$$$

 OpenBabel02131616352D

 12 13  0  0  0  0  0  0  0  0999 V2000
    4.4374   -3.5141    0.0000 S   0  0  0  0  0  0  0  0  0  0  0  0
    5.1223   -3.0542    0.0000 C   0  0  0  0  0  0  0  0  0  0  0  0
    3.7827   -3.0060    0.0000 C   0  0  0  0  0  0  0  0  0  0  0  0
    4.0661   -2.2279    0.0000 C   0  0  0  0  0  0  0  0  0  0  0  0
    4.8940   -2.2538    0.0000 C   0  0  0  0  0  0  0  0  0  0  0  0
    5.3302   -1.5521    0.0000 O   0  0  0  0  0  0  0  0  0  0  0  0
    4.9432   -0.8242    0.0000 C   0  0  0  0  0  0  0  0  0  0  0  0
    4.1050   -0.8038    0.0000 C   0  0  0  0  0  0  0  0  0  0  0  0
    3.6756   -1.4962    0.0000 O   0  0  0  0  0  0  0  0  0  0  0  0
    5.9011   -3.3437    0.0000 C   0  0  0  0  0  0  0  0  0  0  0  0
    6.0387   -4.1588    0.0000 O   0  0  0  0  0  0  0  0  0  0  0  0
    6.5478   -2.8100    0.0000 Cl  0  0  0  0  0  0  0  0  0  0  0  0
  1  2  1  0  0  0  0
  2 10  1  0  0  0  0
  2  5  2  0  0  0  0
  3  1  1  0  0  0  0
  4  5  1  0  0  0  0
  4  9  1  0  0  0  0
  4  3  2  0  0  0  0
  5  6  1  0  0  0  0
  6  7  1  0  0  0  0
  7  8  1  0  0  0  0
  8  9  1  0  0  0  0
 10 11  2  0  0  0  0
 10 12  1  0  0  0  0
M  END
>  <MOLFORMULA>
C7 H5 Cl O3 S

>  <MOLWEIGHT>
2.046325000000000e+002

>  <code>
CC47802

>  <appearance>
Solid

>  <purity>
90%

>  <product_name>
2,3-dihydrothieno[3,4-b][1,4]dioxin-5-carbonyl chloride

>  <cansmi>
ClC(=O)c1scc2c1OCCO2

>  <HBA2>
4

>  <HBD>
0

>  <logP>
1.8983

>  <TPSA>
63.77

>  <MW>
204.631

$$$$

 OpenBabel02131616352D

  9  9  0  0  0  0  0  0  0  0999 V2000
    4.5750   -3.8833    0.0000 N   0  0  0  0  0  0  0  0  0  0  0  0
    5.2443   -3.3925    0.0000 N   0  0  0  0  0  0  0  0  0  0  0  0
    4.9792   -2.6042    0.0000 C   0  0  0  0  0  0  0  0  0  0  0  0
    4.1667   -2.6084    0.0000 C   0  0  0  0  0  0  0  0  0  0  0  0
    3.9099   -3.3967    0.0000 C   0  0  0  0  0  0  0  0  0  0  0  0
    4.5750   -4.7083    0.0000 C   0  0  0  0  0  0  0  0  0  0  0  0
    5.4555   -1.9199    0.0000 C   0  0  0  0  0  0  0  0  0  0  0  0
    6.2851   -1.9833    0.0000 Cl  0  0  0  0  0  0  0  0  0  0  0  0
    5.0946   -1.1750    0.0000 O   0  0  0  0  0  0  0  0  0  0  0  0
  1  6  1  0  0  0  0
  1  2  1  0  0  0  0
  2  3  2  0  0  0  0
  3  4  1  0  0  0  0
  3  7  1  0  0  0  0
  4  5  2  0  0  0  0
  5  1  1  0  0  0  0
  7  8  1  0  0  0  0
  7  9  2  0  0  0  0
M  END
>  <MOLFORMULA>
C5 H5 Cl N2 O

>  <MOLWEIGHT>
1.445605000000000e+002

>  <code>
CC48302

>  <appearance>
Liquid

>  <purity>
97%

>  <product_name>
1-methyl-1H-pyrazole-3-carbonyl chloride

>  <cansmi>
Cn1ccc(n1)C(=O)Cl

>  <HBA2>
3

>  <HBD>
0

>  <logP>
0.7991

>  <TPSA>
34.89

>  <MW>
144.559

$$$$

 OpenBabel02131616352D

 14 15  0  0  0  0  0  0  0  0999 V2000
    3.8480   -5.3969    0.0000 S   0  0  0  0  0  0  0  0  0  0  0  0
    3.4551   -6.1143    0.0000 C   0  0  0  0  0  0  0  0  0  0  0  0
    4.0292   -6.7092    0.0000 C   0  0  0  0  0  0  0  0  0  0  0  0
    4.7721   -6.3495    0.0000 C   0  0  0  0  0  0  0  0  0  0  0  0
    4.6612   -5.5430    0.0000 C   0  0  0  0  0  0  0  0  0  0  0  0
    5.4907   -6.7814    0.0000 C   0  0  0  0  0  0  0  0  0  0  0  0
    5.4736   -7.6150    0.0000 C   0  0  0  0  0  0  0  0  0  0  0  0
    6.1889   -8.0450    0.0000 C   0  0  0  0  0  0  0  0  0  0  0  0
    6.9175   -7.6265    0.0000 C   0  0  0  0  0  0  0  0  0  0  0  0
    6.9313   -6.8063    0.0000 C   0  0  0  0  0  0  0  0  0  0  0  0
    6.2188   -6.3788    0.0000 C   0  0  0  0  0  0  0  0  0  0  0  0
    7.6721   -6.4243    0.0000 C   0  0  0  0  0  0  0  0  0  0  0  0
    8.3687   -6.8674    0.0000 Cl  0  0  0  0  0  0  0  0  0  0  0  0
    7.7128   -5.5934    0.0000 O   0  0  0  0  0  0  0  0  0  0  0  0
  1  2  1  0  0  0  0
  2  3  2  0  0  0  0
  3  4  1  0  0  0  0
  4  5  2  0  0  0  0
  4  6  1  0  0  0  0
  5  1  1  0  0  0  0
  6  7  2  0  0  0  0
  7  8  1  0  0  0  0
  8  9  2  0  0  0  0
  9 10  1  0  0  0  0
 10 11  2  0  0  0  0
 10 12  1  0  0  0  0
 11  6  1  0  0  0  0
 12 13  1  0  0  0  0
 12 14  2  0  0  0  0
M  END
>  <MOLFORMULA>
C11 H7 Cl O S

>  <MOLWEIGHT>
2.226943000000000e+002

>  <code>
CC48402

>  <appearance>
Liquid

>  <purity>
95%

>  <product_name>
3-thien-3-ylbenzoyl chloride

>  <cansmi>
ClC(=O)c1cccc(c1)c1cscc1

>  <HBA2>
2

>  <HBD>
0

>  <logP>
3.7941

>  <TPSA>
45.31

>  <MW>
222.691

$$$$

 OpenBabel02131616352D

 14 15  0  0  0  0  0  0  0  0999 V2000
    2.6007   -1.6216    0.0000 C   0  0  0  0  0  0  0  0  0  0  0  0
    3.1587   -2.2294    0.0000 C   0  0  0  0  0  0  0  0  0  0  0  0
    3.9111   -1.8814    0.0000 C   0  0  0  0  0  0  0  0  0  0  0  0
    3.8138   -1.0621    0.0000 C   0  0  0  0  0  0  0  0  0  0  0  0
    3.0008   -0.9001    0.0000 S   0  0  0  0  0  0  0  0  0  0  0  0
    4.6313   -2.2840    0.0000 C   0  0  0  0  0  0  0  0  0  0  0  0
    4.6386   -3.1067    0.0000 C   0  0  0  0  0  0  0  0  0  0  0  0
    5.3579   -3.5092    0.0000 C   0  0  0  0  0  0  0  0  0  0  0  0
    6.0676   -3.0867    0.0000 C   0  0  0  0  0  0  0  0  0  0  0  0
    6.0534   -2.2576    0.0000 C   0  0  0  0  0  0  0  0  0  0  0  0
    5.3336   -1.8589    0.0000 C   0  0  0  0  0  0  0  0  0  0  0  0
    6.7883   -3.4883    0.0000 C   0  0  0  0  0  0  0  0  0  0  0  0
    6.8008   -4.3132    0.0000 O   0  0  0  0  0  0  0  0  0  0  0  0
    7.4964   -3.0649    0.0000 Cl  0  0  0  0  0  0  0  0  0  0  0  0
  1  2  2  0  0  0  0
  2  3  1  0  0  0  0
  3  4  2  0  0  0  0
  3  6  1  0  0  0  0
  4  5  1  0  0  0  0
  5  1  1  0  0  0  0
  6  7  2  0  0  0  0
  7  8  1  0  0  0  0
  8  9  2  0  0  0  0
  9 10  1  0  0  0  0
  9 12  1  0  0  0  0
 10 11  2  0  0  0  0
 11  6  1  0  0  0  0
 12 13  2  0  0  0  0
 12 14  1  0  0  0  0
M  END
>  <MOLFORMULA>
C11 H7 Cl O S

>  <MOLWEIGHT>
2.226943000000000e+002

>  <code>
CC48702

>  <appearance>
Solid

>  <purity>
97%

>  <product_name>
4-thien-3-ylbenzoyl chloride

>  <cansmi>
ClC(=O)c1ccc(cc1)c1cscc1

>  <HBA2>
2

>  <HBD>
0

>  <logP>
3.7941

>  <TPSA>
45.31

>  <MW>
222.691

$$$$

 OpenBabel02131616352D

 16 17  0  0  0  0  0  0  0  0999 V2000
    2.2228   -2.5115    0.0000 C   0  0  0  0  0  0  0  0  0  0  0  0
    2.9373   -2.9225    0.0000 C   0  0  0  0  0  0  0  0  0  0  0  0
    3.6504   -2.5108    0.0000 C   0  0  0  0  0  0  0  0  0  0  0  0
    3.6502   -1.6841    0.0000 C   0  0  0  0  0  0  0  0  0  0  0  0
    2.9352   -1.2710    0.0000 N   0  0  0  0  0  0  0  0  0  0  0  0
    2.2209   -1.6850    0.0000 C   0  0  0  0  0  0  0  0  0  0  0  0
    4.3748   -1.2625    0.0000 O   0  0  0  0  0  0  0  0  0  0  0  0
    5.0926   -1.6784    0.0000 C   0  0  0  0  0  0  0  0  0  0  0  0
    5.0970   -2.5036    0.0000 C   0  0  0  0  0  0  0  0  0  0  0  0
    5.8102   -2.9153    0.0000 C   0  0  0  0  0  0  0  0  0  0  0  0
    6.5353   -2.4978    0.0000 C   0  0  0  0  0  0  0  0  0  0  0  0
    6.5282   -1.6707    0.0000 C   0  0  0  0  0  0  0  0  0  0  0  0
    5.8064   -1.2609    0.0000 C   0  0  0  0  0  0  0  0  0  0  0  0
    7.2683   -2.9082    0.0000 C   0  0  0  0  0  0  0  0  0  0  0  0
    7.2809   -3.7333    0.0000 O   0  0  0  0  0  0  0  0  0  0  0  0
    7.9779   -2.4875    0.0000 Cl  0  0  0  0  0  0  0  0  0  0  0  0
  1  2  2  0  0  0  0
  2  3  1  0  0  0  0
  3  4  2  0  0  0  0
  4  5  1  0  0  0  0
  4  7  1  0  0  0  0
  5  6  2  0  0  0  0
  6  1  1  0  0  0  0
  7  8  1  0  0  0  0
  8  9  2  0  0  0  0
  9 10  1  0  0  0  0
 10 11  2  0  0  0  0
 11 12  1  0  0  0  0
 11 14  1  0  0  0  0
 12 13  2  0  0  0  0
 13  8  1  0  0  0  0
 14 15  2  0  0  0  0
 14 16  1  0  0  0  0
M  END
>  <MOLFORMULA>
C12 H8 Cl N O2

>  <MOLWEIGHT>
2.336532000000000e+002

>  <code>
CC48902

>  <appearance>
Solid

>  <purity>
97%

>  <product_name>
4-(pyrid-2-yloxy)benzoyl chloride

>  <cansmi>
ClC(=O)c1ccc(cc1)Oc1ccccn1

>  <HBA2>
3

>  <HBD>
0

>  <logP>
3.2529

>  <TPSA>
39.19

>  <MW>
233.65

$$$$

 OpenBabel02131616352D

 15 16  0  0  0  0  0  0  0  0999 V2000
    4.2077   -2.5313    0.0000 C   0  0  0  0  0  0  0  0  0  0  0  0
    4.2102   -1.7063    0.0000 O   0  0  0  0  0  0  0  0  0  0  0  0
    2.7861   -1.7021    0.0000 N   0  0  0  0  0  0  0  0  0  0  0  0
    2.7837   -2.5271    0.0000 C   0  0  0  0  0  0  0  0  0  0  0  0
    3.4986   -2.9458    0.0000 N   0  0  0  0  0  0  0  0  0  0  0  0
    4.9227   -2.9429    0.0000 C   0  0  0  0  0  0  0  0  0  0  0  0
    4.9191   -3.7678    0.0000 C   0  0  0  0  0  0  0  0  0  0  0  0
    5.6332   -4.1793    0.0000 C   0  0  0  0  0  0  0  0  0  0  0  0
    6.3482   -3.7658    0.0000 C   0  0  0  0  0  0  0  0  0  0  0  0
    6.3445   -2.9366    0.0000 C   0  0  0  0  0  0  0  0  0  0  0  0
    5.6298   -2.5288    0.0000 C   0  0  0  0  0  0  0  0  0  0  0  0
    2.0673   -2.9363    0.0000 C   0  0  0  0  0  0  0  0  0  0  0  0
    7.0570   -2.5206    0.0000 C   0  0  0  0  0  0  0  0  0  0  0  0
    7.7734   -2.9297    0.0000 Cl  0  0  0  0  0  0  0  0  0  0  0  0
    7.0530   -1.6957    0.0000 O   0  0  0  0  0  0  0  0  0  0  0  0
  1  2  1  0  0  0  0
  1  6  1  0  0  0  0
  2  3  1  0  0  0  0
  3  4  2  0  0  0  0
  4  5  1  0  0  0  0
  4 12  1  0  0  0  0
  5  1  2  0  0  0  0
  6  7  2  0  0  0  0
  7  8  1  0  0  0  0
  8  9  2  0  0  0  0
  9 10  1  0  0  0  0
 10 11  2  0  0  0  0
 10 13  1  0  0  0  0
 11  6  1  0  0  0  0
 13 14  1  0  0  0  0
 13 15  2  0  0  0  0
M  END
>  <MOLFORMULA>
C10 H7 Cl N2 O2

>  <MOLWEIGHT>
2.226303000000000e+002

>  <code>
CC49502

>  <appearance>
Solid

>  <purity>
97%

>  <product_name>
3-(3-methyl-1,2,4-oxadiazol-5-yl)benzoyl chloride

>  <cansmi>
Cc1noc(n1)c1cccc(c1)C(=O)Cl

>  <HBA2>
4

>  <HBD>
0

>  <logP>
2.424

>  <TPSA>
55.99

>  <MW>
222.628

$$$$

 OpenBabel02131616352D

 15 16  0  0  0  0  0  0  0  0999 V2000
   -0.8339   -0.6395    0.0000 C   0  0  0  0  0  0  0  0  0  0  0  0
   -0.1190   -1.0595    0.0000 C   0  0  0  0  0  0  0  0  0  0  0  0
   -0.1226   -1.8802    0.0000 C   0  0  0  0  0  0  0  0  0  0  0  0
    0.5957   -2.2918    0.0000 C   0  0  0  0  0  0  0  0  0  0  0  0
    1.3107   -1.8783    0.0000 C   0  0  0  0  0  0  0  0  0  0  0  0
    1.3070   -1.0491    0.0000 C   0  0  0  0  0  0  0  0  0  0  0  0
    0.5923   -0.6412    0.0000 C   0  0  0  0  0  0  0  0  0  0  0  0
    0.5876    0.1879    0.0000 C   0  0  0  0  0  0  0  0  0  0  0  0
    1.2955    0.6045    0.0000 Cl  0  0  0  0  0  0  0  0  0  0  0  0
   -0.1335    0.5922    0.0000 O   0  0  0  0  0  0  0  0  0  0  0  0
   -0.9167    0.1816    0.0000 O   0  0  0  0  0  0  0  0  0  0  0  0
   -1.7269    0.3616    0.0000 N   0  0  0  0  0  0  0  0  0  0  0  0
   -2.1469   -0.3534    0.0000 C   0  0  0  0  0  0  0  0  0  0  0  0
   -1.5984   -0.9738    0.0000 N   0  0  0  0  0  0  0  0  0  0  0  0
   -3.0014   -0.4373    0.0000 C   0  0  0  0  0  0  0  0  0  0  0  0
  1  2  1  0  0  0  0
  1 11  1  0  0  0  0
  2  3  2  0  0  0  0
  3  4  1  0  0  0  0
  4  5  2  0  0  0  0
  5  6  1  0  0  0  0
  6  7  2  0  0  0  0
  7  2  1  0  0  0  0
  7  8  1  0  0  0  0
  8  9  1  0  0  0  0
  8 10  2  0  0  0  0
 11 12  1  0  0  0  0
 12 13  2  0  0  0  0
 13 14  1  0  0  0  0
 13 15  1  0  0  0  0
 14  1  2  0  0  0  0
M  END
>  <MOLFORMULA>
C10 H7 Cl N2 O2

>  <MOLWEIGHT>
2.226303000000000e+002

>  <code>
CC49602

>  <appearance>
Liquid

>  <purity>
90%

>  <product_name>
2-(3-methyl-1,2,4-oxadiazol-5-yl)benzoyl chloride

>  <cansmi>
Cc1noc(n1)c1ccccc1C(=O)Cl

>  <HBA2>
4

>  <HBD>
0

>  <logP>
2.424

>  <TPSA>
55.99

>  <MW>
222.628

$$$$

 OpenBabel02131616352D

 15 16  0  0  0  0  0  0  0  0999 V2000
    5.1497   -7.2429    0.0000 O   0  0  0  0  0  0  0  0  0  0  0  0
    4.4762   -6.7563    0.0000 C   0  0  0  0  0  0  0  0  0  0  0  0
    4.7372   -5.9721    0.0000 C   0  0  0  0  0  0  0  0  0  0  0  0
    5.5622   -5.9721    0.0000 C   0  0  0  0  0  0  0  0  0  0  0  0
    5.8148   -6.7563    0.0000 C   0  0  0  0  0  0  0  0  0  0  0  0
    7.9514   -7.1791    0.0000 C   0  0  0  0  0  0  0  0  0  0  0  0
    7.9526   -8.0107    0.0000 C   0  0  0  0  0  0  0  0  0  0  0  0
    7.2419   -8.4235    0.0000 C   0  0  0  0  0  0  0  0  0  0  0  0
    6.5213   -8.0102    0.0000 C   0  0  0  0  0  0  0  0  0  0  0  0
    6.5242   -7.1755    0.0000 C   0  0  0  0  0  0  0  0  0  0  0  0
    7.2437   -6.7664    0.0000 C   0  0  0  0  0  0  0  0  0  0  0  0
    3.6923   -7.0137    0.0000 C   0  0  0  0  0  0  0  0  0  0  0  0
    6.0480   -5.3053    0.0000 C   0  0  0  0  0  0  0  0  0  0  0  0
    5.7133   -4.5512    0.0000 O   0  0  0  0  0  0  0  0  0  0  0  0
    6.8683   -5.3925    0.0000 Cl  0  0  0  0  0  0  0  0  0  0  0  0
  1  2  1  0  0  0  0
  2 12  1  0  0  0  0
  2  3  2  0  0  0  0
  3  4  1  0  0  0  0
  4  5  2  0  0  0  0
  4 13  1  0  0  0  0
  5  1  1  0  0  0  0
  6  7  2  0  0  0  0
  7  8  1  0  0  0  0
  8  9  2  0  0  0  0
  9 10  1  0  0  0  0
 10 11  2  0  0  0  0
 10  5  1  0  0  0  0
 11  6  1  0  0  0  0
 13 14  2  0  0  0  0
 13 15  1  0  0  0  0
M  END
>  <MOLFORMULA>
C12 H9 Cl O2

>  <MOLWEIGHT>
2.206541000000000e+002

>  <code>
CC49702

>  <appearance>
Liquid

>  <purity>
97%

>  <product_name>
5-methyl-2-phenyl-3-furoyl chloride

>  <cansmi>
Cc1cc(c(o1)c1ccccc1)C(=O)Cl

>  <HBA2>
2

>  <HBD>
0

>  <logP>
3.634

>  <TPSA>
30.21

>  <MW>
220.652

$$$$

 OpenBabel02131616352D

 16 17  0  0  0  0  0  0  0  0999 V2000
    6.8817   -3.2756    0.0000 C   0  0  0  0  0  0  0  0  0  0  0  0
    6.1683   -3.7110    0.0000 C   0  0  0  0  0  0  0  0  0  0  0  0
    5.4419   -3.3112    0.0000 C   0  0  0  0  0  0  0  0  0  0  0  0
    5.4205   -2.4807    0.0000 C   0  0  0  0  0  0  0  0  0  0  0  0
    6.1387   -2.0473    0.0000 C   0  0  0  0  0  0  0  0  0  0  0  0
    6.8622   -2.4494    0.0000 C   0  0  0  0  0  0  0  0  0  0  0  0
    4.7063   -2.0807    0.0000 O   0  0  0  0  0  0  0  0  0  0  0  0
    4.0014   -2.5095    0.0000 C   0  0  0  0  0  0  0  0  0  0  0  0
    4.0216   -3.3368    0.0000 C   0  0  0  0  0  0  0  0  0  0  0  0
    3.3176   -3.7654    0.0000 C   0  0  0  0  0  0  0  0  0  0  0  0
    2.5909   -3.3700    0.0000 C   0  0  0  0  0  0  0  0  0  0  0  0
    2.5782   -2.5428    0.0000 C   0  0  0  0  0  0  0  0  0  0  0  0
    3.2828   -2.1180    0.0000 C   0  0  0  0  0  0  0  0  0  0  0  0
    6.1267   -1.2167    0.0000 C   0  0  0  0  0  0  0  0  0  0  0  0
    6.8372   -0.7893    0.0000 Cl  0  0  0  0  0  0  0  0  0  0  0  0
    5.3947   -0.8231    0.0000 O   0  0  0  0  0  0  0  0  0  0  0  0
  1  2  2  0  0  0  0
  2  3  1  0  0  0  0
  3  4  2  0  0  0  0
  4  5  1  0  0  0  0
  4  7  1  0  0  0  0
  5  6  2  0  0  0  0
  5 14  1  0  0  0  0
  6  1  1  0  0  0  0
  7  8  1  0  0  0  0
  8  9  2  0  0  0  0
  9 10  1  0  0  0  0
 10 11  2  0  0  0  0
 11 12  1  0  0  0  0
 12 13  2  0  0  0  0
 13  8  1  0  0  0  0
 14 15  1  0  0  0  0
 14 16  2  0  0  0  0
M  END
>  <MOLFORMULA>
C13 H9 Cl O2

>  <MOLWEIGHT>
2.326651000000000e+002

>  <code>
CC49902

>  <appearance>
Solid

>  <purity>
90%

>  <product_name>
2-phenoxybenzoyl chloride

>  <cansmi>
ClC(=O)c1ccccc1Oc1ccccc1

>  <HBA2>
2

>  <HBD>
0

>  <logP>
3.8579

>  <TPSA>
26.3

>  <MW>
232.662

$$$$

 OpenBabel02131616352D

 13 14  0  0  0  0  0  0  0  0999 V2000
    1.5456   -1.1277    0.0000 C   0  0  0  0  0  0  0  0  0  0  0  0
    1.5438    0.0753    0.0000 C   0  0  0  0  0  0  0  0  0  0  0  0
    1.0266   -0.8273    0.0000 C   0  0  0  0  0  0  0  0  0  0  0  0
    1.0278   -0.2238    0.0000 C   0  0  0  0  0  0  0  0  0  0  0  0
    0.4542   -0.0362    0.0000 O   0  0  0  0  0  0  0  0  0  0  0  0
    0.0985   -0.5237    0.0000 C   0  0  0  0  0  0  0  0  0  0  0  0
    0.4522   -1.0126    0.0000 O   0  0  0  0  0  0  0  0  0  0  0  0
    2.0633   -0.2213    0.0000 C   0  0  0  0  0  0  0  0  0  0  0  0
    2.0632   -0.8287    0.0000 C   0  0  0  0  0  0  0  0  0  0  0  0
    3.1128   -0.8289    0.0000 O   0  0  0  0  0  0  0  0  0  0  0  0
    3.1129   -0.2215    0.0000 C   0  0  0  0  0  0  0  0  0  0  0  0
    2.5865    0.0840    0.0000 C   0  0  0  0  0  0  0  0  0  0  0  0
    3.6292    0.0833    0.0000 Cl  0  0  0  0  0  0  0  0  0  0  0  0
  1  9  2  0  0  0  0
  2  4  1  0  0  0  0
  3  4  2  0  0  0  0
  3  1  1  0  0  0  0
  4  5  1  0  0  0  0
  5  6  1  0  0  0  0
  6  7  1  0  0  0  0
  7  3  1  0  0  0  0
  8  9  1  0  0  0  0
  8  2  2  0  0  0  0
  8 12  1  0  0  0  0
 10 11  2  0  0  0  0
 11 12  1  0  0  0  0
 11 13  1  0  0  0  0
M  END
>  <MOLFORMULA>
C9 H7 Cl O3

>  <MOLWEIGHT>
1.986043000000000e+002

>  <code>
CC50802

>  <appearance>
Liquid

>  <purity>
97%

>  <product_name>
1,3-benzodioxol-5-ylacetyl chloride

>  <cansmi>
ClC(=O)Cc1ccc2c(c1)OCO2

>  <HBA2>
3

>  <HBD>
0

>  <logP>
1.7232

>  <TPSA>
35.53

>  <MW>
198.603

$$$$

 OpenBabel02131616352D

 15 16  0  0  0  0  0  0  0  0999 V2000
    5.0444   -3.0958    0.0000 C   0  0  0  0  0  0  0  0  0  0  0  0
    5.0433   -2.2685    0.0000 C   0  0  0  0  0  0  0  0  0  0  0  0
    5.7581   -1.8556    0.0000 C   0  0  0  0  0  0  0  0  0  0  0  0
    6.4745   -2.2689    0.0000 C   0  0  0  0  0  0  0  0  0  0  0  0
    6.4717   -3.0995    0.0000 C   0  0  0  0  0  0  0  0  0  0  0  0
    5.7563   -3.5086    0.0000 C   0  0  0  0  0  0  0  0  0  0  0  0
    4.3285   -1.8565    0.0000 C   0  0  0  0  0  0  0  0  0  0  0  0
    7.1846   -3.5147    0.0000 C   0  0  0  0  0  0  0  0  0  0  0  0
    3.5797   -2.1935    0.0000 N   0  0  0  0  0  0  0  0  0  0  0  0
    3.0271   -1.5809    0.0000 C   0  0  0  0  0  0  0  0  0  0  0  0
    3.4391   -0.8660    0.0000 N   0  0  0  0  0  0  0  0  0  0  0  0
    4.2462   -1.0370    0.0000 O   0  0  0  0  0  0  0  0  0  0  0  0
    2.2067   -1.6678    0.0000 C   0  0  0  0  0  0  0  0  0  0  0  0
    7.9006   -3.1049    0.0000 Cl  0  0  0  0  0  0  0  0  0  0  0  0
    7.1815   -4.3397    0.0000 O   0  0  0  0  0  0  0  0  0  0  0  0
  1  2  2  0  0  0  0
  2  3  1  0  0  0  0
  2  7  1  0  0  0  0
  3  4  2  0  0  0  0
  4  5  1  0  0  0  0
  5  8  1  0  0  0  0
  5  6  2  0  0  0  0
  6  1  1  0  0  0  0
  7  9  2  0  0  0  0
  8 14  1  0  0  0  0
  8 15  2  0  0  0  0
  9 10  1  0  0  0  0
 10 11  2  0  0  0  0
 10 13  1  0  0  0  0
 11 12  1  0  0  0  0
 12  7  1  0  0  0  0
M  END
>  <MOLFORMULA>
C10 H7 Cl N2 O2

>  <MOLWEIGHT>
2.226303000000000e+002

>  <code>
CC50902

>  <appearance>
Solid

>  <purity>
97%

>  <product_name>
4-(3-methyl-1,2,4-oxadiazol-5-yl)benzoyl chloride

>  <cansmi>
ClC(=O)c1ccc(cc1)c1onc(n1)C

>  <HBA2>
4

>  <HBD>
0

>  <logP>
2.424

>  <TPSA>
55.99

>  <MW>
222.628

$$$$

 OpenBabel02131616352D

 16 17  0  0  0  0  0  0  0  0999 V2000
    2.9708   -3.1292    0.0000 C   0  0  0  0  0  0  0  0  0  0  0  0
    2.9708   -3.9542    0.0000 O   0  0  0  0  0  0  0  0  0  0  0  0
    3.6829   -4.3625    0.0000 C   0  0  0  0  0  0  0  0  0  0  0  0
    4.3949   -3.9542    0.0000 C   0  0  0  0  0  0  0  0  0  0  0  0
    4.3949   -3.1292    0.0000 C   0  0  0  0  0  0  0  0  0  0  0  0
    3.6829   -2.7125    0.0000 C   0  0  0  0  0  0  0  0  0  0  0  0
    5.1105   -2.7188    0.0000 O   0  0  0  0  0  0  0  0  0  0  0  0
    5.8238   -3.1334    0.0000 C   0  0  0  0  0  0  0  0  0  0  0  0
    5.8198   -3.9594    0.0000 C   0  0  0  0  0  0  0  0  0  0  0  0
    6.5322   -4.3739    0.0000 C   0  0  0  0  0  0  0  0  0  0  0  0
    7.2489   -3.9635    0.0000 C   0  0  0  0  0  0  0  0  0  0  0  0
    7.2487   -3.1342    0.0000 C   0  0  0  0  0  0  0  0  0  0  0  0
    6.5356   -2.7234    0.0000 C   0  0  0  0  0  0  0  0  0  0  0  0
    6.5357   -1.8984    0.0000 C   0  0  0  0  0  0  0  0  0  0  0  0
    7.2502   -1.4860    0.0000 Cl  0  0  0  0  0  0  0  0  0  0  0  0
    5.8213   -1.4858    0.0000 O   0  0  0  0  0  0  0  0  0  0  0  0
  1  6  1  0  0  0  0
  1  2  1  0  0  0  0
  2  3  1  0  0  0  0
  3  4  1  0  0  0  0
  4  5  1  0  0  0  0
  5  6  1  0  0  0  0
  5  7  1  0  0  0  0
  7  8  1  0  0  0  0
  8  9  2  0  0  0  0
  9 10  1  0  0  0  0
 10 11  2  0  0  0  0
 11 12  1  0  0  0  0
 12 13  2  0  0  0  0
 13  8  1  0  0  0  0
 13 14  1  0  0  0  0
 14 15  1  0  0  0  0
 14 16  2  0  0  0  0
M  END
>  <MOLFORMULA>
C12 H13 Cl O3

>  <MOLWEIGHT>
2.406847000000000e+002

>  <code>
CC52202

>  <appearance>
Liquid

>  <purity>
97%

>  <product_name>
2-(tetrahydropyran-4-yloxy)benzoyl chloride

>  <cansmi>
ClC(=O)c1ccccc1OC1CCOCC1

>  <HBA2>
3

>  <HBD>
0

>  <logP>
2.6234

>  <TPSA>
35.53

>  <MW>
240.683

$$$$

 OpenBabel02131616352D

 16 17  0  0  0  0  0  0  0  0999 V2000
    5.8277   -7.3500    0.0000 C   0  0  0  0  0  0  0  0  0  0  0  0
    5.8266   -6.5227    0.0000 C   0  0  0  0  0  0  0  0  0  0  0  0
    6.5414   -6.1098    0.0000 C   0  0  0  0  0  0  0  0  0  0  0  0
    7.2578   -6.5231    0.0000 C   0  0  0  0  0  0  0  0  0  0  0  0
    7.2550   -7.3537    0.0000 C   0  0  0  0  0  0  0  0  0  0  0  0
    6.5396   -7.7628    0.0000 C   0  0  0  0  0  0  0  0  0  0  0  0
    5.1132   -7.7624    0.0000 O   0  0  0  0  0  0  0  0  0  0  0  0
    4.3988   -7.3497    0.0000 C   0  0  0  0  0  0  0  0  0  0  0  0
    3.6823   -7.7691    0.0000 C   0  0  0  0  0  0  0  0  0  0  0  0
    2.9701   -7.3600    0.0000 C   0  0  0  0  0  0  0  0  0  0  0  0
    2.9660   -6.5346    0.0000 O   0  0  0  0  0  0  0  0  0  0  0  0
    3.6805   -6.1201    0.0000 C   0  0  0  0  0  0  0  0  0  0  0  0
    4.3989   -6.5309    0.0000 C   0  0  0  0  0  0  0  0  0  0  0  0
    7.9730   -6.1118    0.0000 C   0  0  0  0  0  0  0  0  0  0  0  0
    8.6868   -6.5254    0.0000 Cl  0  0  0  0  0  0  0  0  0  0  0  0
    7.9742   -5.2868    0.0000 O   0  0  0  0  0  0  0  0  0  0  0  0
  1  2  2  0  0  0  0
  1  7  1  0  0  0  0
  2  3  1  0  0  0  0
  3  4  2  0  0  0  0
  4  5  1  0  0  0  0
  4 14  1  0  0  0  0
  5  6  2  0  0  0  0
  6  1  1  0  0  0  0
  7  8  1  0  0  0  0
  8  9  1  0  0  0  0
  8 13  1  0  0  0  0
  9 10  1  0  0  0  0
 10 11  1  0  0  0  0
 11 12  1  0  0  0  0
 12 13  1  0  0  0  0
 14 15  1  0  0  0  0
 14 16  2  0  0  0  0
M  END
>  <MOLFORMULA>
C12 H13 Cl O3

>  <MOLWEIGHT>
2.406847000000000e+002

>  <code>
CC52402

>  <appearance>
Solid

>  <purity>
97%

>  <product_name>
4-(tetrahydropyran-4-yloxy)benzoyl chloride

>  <cansmi>
ClC(=O)c1ccc(cc1)OC1CCOCC1

>  <HBA2>
3

>  <HBD>
0

>  <logP>
2.6234

>  <TPSA>
35.53

>  <MW>
240.683

$$$$

 OpenBabel02131616352D

 16 17  0  0  0  0  0  0  0  0999 V2000
    2.2403   -1.6833    0.0000 C   0  0  0  0  0  0  0  0  0  0  0  0
    2.2391   -2.5148    0.0000 C   0  0  0  0  0  0  0  0  0  0  0  0
    2.9581   -2.9318    0.0000 C   0  0  0  0  0  0  0  0  0  0  0  0
    3.6787   -2.5143    0.0000 C   0  0  0  0  0  0  0  0  0  0  0  0
    3.6758   -1.6796    0.0000 C   0  0  0  0  0  0  0  0  0  0  0  0
    2.9563   -1.2663    0.0000 C   0  0  0  0  0  0  0  0  0  0  0  0
    4.3917   -1.2625    0.0000 O   0  0  0  0  0  0  0  0  0  0  0  0
    5.1042   -1.6708    0.0000 C   0  0  0  0  0  0  0  0  0  0  0  0
    5.1043   -2.4961    0.0000 C   0  0  0  0  0  0  0  0  0  0  0  0
    5.8204   -2.9044    0.0000 C   0  0  0  0  0  0  0  0  0  0  0  0
    6.5315   -2.4923    0.0000 C   0  0  0  0  0  0  0  0  0  0  0  0
    6.5274   -1.6606    0.0000 C   0  0  0  0  0  0  0  0  0  0  0  0
    5.8109   -1.2550    0.0000 C   0  0  0  0  0  0  0  0  0  0  0  0
    7.2473   -2.9025    0.0000 C   0  0  0  0  0  0  0  0  0  0  0  0
    7.2500   -3.7275    0.0000 O   0  0  0  0  0  0  0  0  0  0  0  0
    7.9604   -2.4877    0.0000 Cl  0  0  0  0  0  0  0  0  0  0  0  0
  1  2  2  0  0  0  0
  2  3  1  0  0  0  0
  3  4  2  0  0  0  0
  4  5  1  0  0  0  0
  5  6  2  0  0  0  0
  5  7  1  0  0  0  0
  6  1  1  0  0  0  0
  7  8  1  0  0  0  0
  8  9  2  0  0  0  0
  9 10  1  0  0  0  0
 10 11  2  0  0  0  0
 11 12  1  0  0  0  0
 11 14  1  0  0  0  0
 12 13  2  0  0  0  0
 13  8  1  0  0  0  0
 14 15  2  0  0  0  0
 14 16  1  0  0  0  0
M  END
>  <MOLFORMULA>
C13 H9 Cl O2

>  <MOLWEIGHT>
2.326651000000000e+002

>  <code>
CC53702

>  <appearance>
Liquid

>  <purity>
97%

>  <product_name>
4-phenoxybenzoyl chloride

>  <cansmi>
ClC(=O)c1ccc(cc1)Oc1ccccc1

>  <HBA2>
2

>  <HBD>
0

>  <logP>
3.8579

>  <TPSA>
26.3

>  <MW>
232.662

$$$$

 OpenBabel02131616352D

  9  9  0  0  0  0  0  0  0  0999 V2000
    4.3653   -4.3162    0.0000 S   0  0  0  0  0  0  0  0  0  0  0  0
    3.7132   -3.8108    0.0000 C   0  0  0  0  0  0  0  0  0  0  0  0
    3.9973   -3.0319    0.0000 C   0  0  0  0  0  0  0  0  0  0  0  0
    4.8218   -3.0606    0.0000 C   0  0  0  0  0  0  0  0  0  0  0  0
    5.0510   -3.8574    0.0000 C   0  0  0  0  0  0  0  0  0  0  0  0
    3.5362   -2.3478    0.0000 Br  0  0  0  0  0  0  0  0  0  0  0  0
    5.3295   -2.4103    0.0000 C   0  0  0  0  0  0  0  0  0  0  0  0
    6.1465   -2.5248    0.0000 Cl  0  0  0  0  0  0  0  0  0  0  0  0
    5.0201   -1.6455    0.0000 O   0  0  0  0  0  0  0  0  0  0  0  0
  1  2  1  0  0  0  0
  2  3  2  0  0  0  0
  3  4  1  0  0  0  0
  3  6  1  0  0  0  0
  4  5  2  0  0  0  0
  4  7  1  0  0  0  0
  5  1  1  0  0  0  0
  7  8  1  0  0  0  0
  7  9  2  0  0  0  0
M  END
>  <MOLFORMULA>
C5 H2 Br Cl O S

>  <MOLWEIGHT>
2.254928000000000e+002

>  <code>
CC54202

>  <appearance>
Solid

>  <purity>
97%

>  <product_name>
4-bromothiophene-3-carbonyl chloride

>  <cansmi>
ClC(=O)c1cscc1Br

>  <HBA2>
2

>  <HBD>
0

>  <logP>
2.8896

>  <TPSA>
45.31

>  <MW>
225.491

$$$$

 OpenBabel02131616352D

 15 16  0  0  0  0  0  0  0  0999 V2000
    2.4303   -4.3976    0.0000 C   0  0  0  0  0  0  0  0  0  0  0  0
    3.1485   -4.8084    0.0000 C   0  0  0  0  0  0  0  0  0  0  0  0
    3.8612   -4.3919    0.0000 N   0  0  0  0  0  0  0  0  0  0  0  0
    3.8570   -3.5648    0.0000 C   0  0  0  0  0  0  0  0  0  0  0  0
    3.1340   -3.1560    0.0000 N   0  0  0  0  0  0  0  0  0  0  0  0
    2.4243   -3.5748    0.0000 C   0  0  0  0  0  0  0  0  0  0  0  0
    4.5685   -3.1473    0.0000 C   0  0  0  0  0  0  0  0  0  0  0  0
    5.2838   -3.5592    0.0000 C   0  0  0  0  0  0  0  0  0  0  0  0
    5.9948   -3.1424    0.0000 C   0  0  0  0  0  0  0  0  0  0  0  0
    5.9895   -2.3165    0.0000 C   0  0  0  0  0  0  0  0  0  0  0  0
    5.2671   -1.9093    0.0000 C   0  0  0  0  0  0  0  0  0  0  0  0
    4.5590   -2.3284    0.0000 C   0  0  0  0  0  0  0  0  0  0  0  0
    6.7005   -1.8981    0.0000 C   0  0  0  0  0  0  0  0  0  0  0  0
    7.4184   -2.3046    0.0000 Cl  0  0  0  0  0  0  0  0  0  0  0  0
    6.6936   -1.0731    0.0000 O   0  0  0  0  0  0  0  0  0  0  0  0
  1  2  2  0  0  0  0
  2  3  1  0  0  0  0
  3  4  2  0  0  0  0
  4  5  1  0  0  0  0
  4  7  1  0  0  0  0
  5  6  2  0  0  0  0
  6  1  1  0  0  0  0
  7  8  2  0  0  0  0
  8  9  1  0  0  0  0
  9 10  2  0  0  0  0
 10 11  1  0  0  0  0
 10 13  1  0  0  0  0
 11 12  2  0  0  0  0
 12  7  1  0  0  0  0
 13 14  1  0  0  0  0
 13 15  2  0  0  0  0
M  END
>  <MOLFORMULA>
C11 H7 Cl N2 O

>  <MOLWEIGHT>
2.186423000000000e+002

>  <code>
CC56202

>  <appearance>
Solid

>  <purity>
90%

>  <product_name>
4-pyrimidin-2-ylbenzoyl chloride

>  <cansmi>
ClC(=O)c1ccc(cc1)c1ncccn1

>  <HBA2>
3

>  <HBD>
0

>  <logP>
2.5226

>  <TPSA>
42.85

>  <MW>
218.639

$$$$

 OpenBabel02131616352D

 15 16  0  0  0  0  0  0  0  0999 V2000
    3.4711   -5.6747    0.0000 C   0  0  0  0  0  0  0  0  0  0  0  0
    3.4574   -6.5020    0.0000 C   0  0  0  0  0  0  0  0  0  0  0  0
    4.1658   -6.9257    0.0000 N   0  0  0  0  0  0  0  0  0  0  0  0
    4.8885   -6.5233    0.0000 C   0  0  0  0  0  0  0  0  0  0  0  0
    4.8983   -5.6929    0.0000 N   0  0  0  0  0  0  0  0  0  0  0  0
    4.1892   -5.2729    0.0000 C   0  0  0  0  0  0  0  0  0  0  0  0
    5.5972   -6.9455    0.0000 C   0  0  0  0  0  0  0  0  0  0  0  0
    5.5811   -7.7708    0.0000 C   0  0  0  0  0  0  0  0  0  0  0  0
    6.2890   -8.1929    0.0000 C   0  0  0  0  0  0  0  0  0  0  0  0
    7.0100   -7.7901    0.0000 C   0  0  0  0  0  0  0  0  0  0  0  0
    7.0187   -6.9609    0.0000 C   0  0  0  0  0  0  0  0  0  0  0  0
    6.3101   -6.5425    0.0000 C   0  0  0  0  0  0  0  0  0  0  0  0
    7.7373   -6.5557    0.0000 C   0  0  0  0  0  0  0  0  0  0  0  0
    8.4476   -6.9754    0.0000 Cl  0  0  0  0  0  0  0  0  0  0  0  0
    7.7457   -5.7307    0.0000 O   0  0  0  0  0  0  0  0  0  0  0  0
  1  2  2  0  0  0  0
  2  3  1  0  0  0  0
  3  4  2  0  0  0  0
  4  5  1  0  0  0  0
  4  7  1  0  0  0  0
  5  6  2  0  0  0  0
  6  1  1  0  0  0  0
  7  8  2  0  0  0  0
  8  9  1  0  0  0  0
  9 10  2  0  0  0  0
 10 11  1  0  0  0  0
 11 12  2  0  0  0  0
 11 13  1  0  0  0  0
 12  7  1  0  0  0  0
 13 14  1  0  0  0  0
 13 15  2  0  0  0  0
M  END
>  <MOLFORMULA>
C11 H7 Cl N2 O

>  <MOLWEIGHT>
2.186423000000000e+002

>  <code>
CC56302

>  <appearance>
Solid

>  <purity>
97%

>  <product_name>
3-pyrimidin-2-ylbenzoyl chloride

>  <cansmi>
ClC(=O)c1cccc(c1)c1ncccn1

>  <HBA2>
3

>  <HBD>
0

>  <logP>
2.5226

>  <TPSA>
42.85

>  <MW>
218.639

$$$$

 OpenBabel02131616352D

  9  9  0  0  0  0  0  0  0  0999 V2000
    4.5750   -4.2209    0.0000 S   0  0  0  0  0  0  0  0  0  0  0  0
    3.9016   -3.7342    0.0000 C   0  0  0  0  0  0  0  0  0  0  0  0
    4.1583   -2.9459    0.0000 C   0  0  0  0  0  0  0  0  0  0  0  0
    4.9874   -2.9458    0.0000 C   0  0  0  0  0  0  0  0  0  0  0  0
    5.2443   -3.7341    0.0000 C   0  0  0  0  0  0  0  0  0  0  0  0
    6.0375   -3.9541    0.0000 Br  0  0  0  0  0  0  0  0  0  0  0  0
    5.4720   -2.2781    0.0000 C   0  0  0  0  0  0  0  0  0  0  0  0
    6.2926   -2.3640    0.0000 Cl  0  0  0  0  0  0  0  0  0  0  0  0
    5.1361   -1.5246    0.0000 O   0  0  0  0  0  0  0  0  0  0  0  0
  1  2  1  0  0  0  0
  2  3  2  0  0  0  0
  3  4  1  0  0  0  0
  4  5  2  0  0  0  0
  4  7  1  0  0  0  0
  5  1  1  0  0  0  0
  5  6  1  0  0  0  0
  7  8  1  0  0  0  0
  7  9  2  0  0  0  0
M  END
>  <MOLFORMULA>
C5 H2 Br Cl O S

>  <MOLWEIGHT>
2.254928000000000e+002

>  <code>
CC56602

>  <appearance>
Solid

>  <purity>
97%

>  <product_name>
2-bromothiophene-3-carbonyl chloride

>  <cansmi>
ClC(=O)c1ccsc1Br

>  <HBA2>
2

>  <HBD>
0

>  <logP>
2.8896

>  <TPSA>
45.31

>  <MW>
225.491

$$$$

 OpenBabel02131616352D

 16 17  0  0  0  0  0  0  0  0999 V2000
    4.2833   -2.2000    0.0000 O   0  0  0  0  0  0  0  0  0  0  0  0
    5.0000   -2.6125    0.0000 C   0  0  0  0  0  0  0  0  0  0  0  0
    5.7172   -2.1988    0.0000 C   0  0  0  0  0  0  0  0  0  0  0  0
    6.4334   -2.6106    0.0000 C   0  0  0  0  0  0  0  0  0  0  0  0
    6.4328   -3.4431    0.0000 C   0  0  0  0  0  0  0  0  0  0  0  0
    5.7143   -3.8579    0.0000 C   0  0  0  0  0  0  0  0  0  0  0  0
    4.9969   -3.4354    0.0000 C   0  0  0  0  0  0  0  0  0  0  0  0
    7.1542   -2.2125    0.0000 C   0  0  0  0  0  0  0  0  0  0  0  0
    7.8667   -2.6333    0.0000 Cl  0  0  0  0  0  0  0  0  0  0  0  0
    7.1500   -1.3833    0.0000 O   0  0  0  0  0  0  0  0  0  0  0  0
    3.5694   -2.6134    0.0000 C   0  0  0  0  0  0  0  0  0  0  0  0
    3.5719   -3.4363    0.0000 C   0  0  0  0  0  0  0  0  0  0  0  0
    2.8588   -3.8497    0.0000 C   0  0  0  0  0  0  0  0  0  0  0  0
    2.1428   -3.4381    0.0000 C   0  0  0  0  0  0  0  0  0  0  0  0
    2.1443   -2.6088    0.0000 C   0  0  0  0  0  0  0  0  0  0  0  0
    2.8580   -2.1992    0.0000 C   0  0  0  0  0  0  0  0  0  0  0  0
  1 11  1  0  0  0  0
  1  2  1  0  0  0  0
  2  3  2  0  0  0  0
  3  4  1  0  0  0  0
  4  8  1  0  0  0  0
  4  5  2  0  0  0  0
  5  6  1  0  0  0  0
  6  7  2  0  0  0  0
  7  2  1  0  0  0  0
  8  9  1  0  0  0  0
  8 10  2  0  0  0  0
 11 12  2  0  0  0  0
 12 13  1  0  0  0  0
 13 14  2  0  0  0  0
 14 15  1  0  0  0  0
 15 16  2  0  0  0  0
 16 11  1  0  0  0  0
M  END
>  <MOLFORMULA>
C13 H9 Cl O2

>  <MOLWEIGHT>
2.326651000000000e+002

>  <code>
CC57102

>  <appearance>
Liquid

>  <purity>
97%

>  <product_name>
3-phenoxybenzoyl chloride

>  <cansmi>
ClC(=O)c1cccc(c1)Oc1ccccc1

>  <HBA2>
2

>  <HBD>
0

>  <logP>
3.8579

>  <TPSA>
26.3

>  <MW>
232.662

$$$$

 OpenBabel02131616352D

 13 14  0  0  0  0  0  0  0  0999 V2000
    5.0542   -5.5666    0.0000 S   0  0  0  0  0  0  0  0  0  0  0  0
    5.7235   -5.0842    0.0000 C   0  0  0  0  0  0  0  0  0  0  0  0
    4.3849   -5.0842    0.0000 C   0  0  0  0  0  0  0  0  0  0  0  0
    4.6417   -4.2959    0.0000 C   0  0  0  0  0  0  0  0  0  0  0  0
    5.4666   -4.2959    0.0000 C   0  0  0  0  0  0  0  0  0  0  0  0
    5.8768   -3.5854    0.0000 O   0  0  0  0  0  0  0  0  0  0  0  0
    5.4666   -2.8703    0.0000 C   0  0  0  0  0  0  0  0  0  0  0  0
    4.6417   -2.8703    0.0000 C   0  0  0  0  0  0  0  0  0  0  0  0
    4.2269   -3.5854    0.0000 O   0  0  0  0  0  0  0  0  0  0  0  0
    3.6006   -5.3403    0.0000 Br  0  0  0  0  0  0  0  0  0  0  0  0
    6.5077   -5.3403    0.0000 C   0  0  0  0  0  0  0  0  0  0  0  0
    6.6781   -6.1475    0.0000 O   0  0  0  0  0  0  0  0  0  0  0  0
    7.1216   -4.7891    0.0000 Cl  0  0  0  0  0  0  0  0  0  0  0  0
  1  2  1  0  0  0  0
  2  5  2  0  0  0  0
  2 11  1  0  0  0  0
  3  1  1  0  0  0  0
  3 10  1  0  0  0  0
  4  5  1  0  0  0  0
  4  9  1  0  0  0  0
  4  3  2  0  0  0  0
  5  6  1  0  0  0  0
  6  7  1  0  0  0  0
  7  8  1  0  0  0  0
  8  9  1  0  0  0  0
 11 12  2  0  0  0  0
 11 13  1  0  0  0  0
M  END
>  <MOLFORMULA>
C7 H4 Br Cl O3 S

>  <MOLWEIGHT>
2.835286000000000e+002

>  <code>
CC58102

>  <appearance>
Solid

>  <purity>
90%

>  <product_name>
7-bromo-2,3-dihydrothieno[3,4-b][1,4]dioxine-5-carbonyl chloride

>  <cansmi>
ClC(=O)c1sc(c2c1OCCO2)Br

>  <HBA2>
4

>  <HBD>
0

>  <logP>
2.6608

>  <TPSA>
63.77

>  <MW>
283.527

$$$$

 OpenBabel02131616352D

 17 18  0  0  0  0  0  0  0  0999 V2000
    4.6826   -3.1894    0.0000 C   0  0  0  0  0  0  0  0  0  0  0  0
    5.4043   -3.5977    0.0000 C   0  0  0  0  0  0  0  0  0  0  0  0
    6.1199   -3.1769    0.0000 C   0  0  0  0  0  0  0  0  0  0  0  0
    6.8370   -3.5916    0.0000 C   0  0  0  0  0  0  0  0  0  0  0  0
    6.8366   -4.4248    0.0000 C   0  0  0  0  0  0  0  0  0  0  0  0
    6.1187   -4.8399    0.0000 C   0  0  0  0  0  0  0  0  0  0  0  0
    5.4004   -4.4301    0.0000 C   0  0  0  0  0  0  0  0  0  0  0  0
    6.1169   -2.3519    0.0000 C   0  0  0  0  0  0  0  0  0  0  0  0
    5.4010   -1.9420    0.0000 O   0  0  0  0  0  0  0  0  0  0  0  0
    6.8299   -1.9368    0.0000 Cl  0  0  0  0  0  0  0  0  0  0  0  0
    3.9718   -3.6082    0.0000 O   0  0  0  0  0  0  0  0  0  0  0  0
    3.2537   -3.2021    0.0000 C   0  0  0  0  0  0  0  0  0  0  0  0
    3.2487   -2.3781    0.0000 C   0  0  0  0  0  0  0  0  0  0  0  0
    2.5315   -1.9721    0.0000 C   0  0  0  0  0  0  0  0  0  0  0  0
    1.8197   -2.3910    0.0000 C   0  0  0  0  0  0  0  0  0  0  0  0
    1.8297   -3.2202    0.0000 C   0  0  0  0  0  0  0  0  0  0  0  0
    2.5475   -3.6225    0.0000 C   0  0  0  0  0  0  0  0  0  0  0  0
  1 11  1  0  0  0  0
  1  2  1  0  0  0  0
  2  3  2  0  0  0  0
  3  8  1  0  0  0  0
  3  4  1  0  0  0  0
  4  5  2  0  0  0  0
  5  6  1  0  0  0  0
  6  7  2  0  0  0  0
  7  2  1  0  0  0  0
  8  9  2  0  0  0  0
  8 10  1  0  0  0  0
 11 12  1  0  0  0  0
 12 13  2  0  0  0  0
 13 14  1  0  0  0  0
 14 15  2  0  0  0  0
 15 16  1  0  0  0  0
 16 17  2  0  0  0  0
 17 12  1  0  0  0  0
M  END
>  <MOLFORMULA>
C14 H11 Cl O2

>  <MOLWEIGHT>
2.466919000000000e+002

>  <code>
CC58502

>  <appearance>
Solid

>  <purity>
97%

>  <product_name>
2-(phenoxymethyl)benzoyl chloride

>  <cansmi>
ClC(=O)c1ccccc1COc1ccccc1

>  <HBA2>
2

>  <HBD>
0

>  <logP>
3.6446

>  <TPSA>
26.3

>  <MW>
246.689

$$$$

 OpenBabel02131616352D

 16 16  0  0  0  0  0  0  0  0999 V2000
    1.7044   -1.7790    0.0000 C   0  0  0  0  0  0  0  0  0  0  0  0
    1.5407   -2.5900    0.0000 N   0  0  0  0  0  0  0  0  0  0  0  0
    2.1605   -3.1353    0.0000 C   0  0  0  0  0  0  0  0  0  0  0  0
    2.9442   -2.8708    0.0000 C   0  0  0  0  0  0  0  0  0  0  0  0
    3.1046   -2.0559    0.0000 C   0  0  0  0  0  0  0  0  0  0  0  0
    2.4835   -1.5141    0.0000 C   0  0  0  0  0  0  0  0  0  0  0  0
    3.8852   -1.7889    0.0000 C   0  0  0  0  0  0  0  0  0  0  0  0
    4.5612   -2.2672    0.0000 S   0  0  0  0  0  0  0  0  0  0  0  0
    5.2211   -1.7721    0.0000 C   0  0  0  0  0  0  0  0  0  0  0  0
    4.9541   -0.9914    0.0000 C   0  0  0  0  0  0  0  0  0  0  0  0
    4.1292   -1.0043    0.0000 N   0  0  0  0  0  0  0  0  0  0  0  0
    5.4286   -0.3166    0.0000 C   0  0  0  0  0  0  0  0  0  0  0  0
    6.0096   -2.0149    0.0000 C   0  0  0  0  0  0  0  0  0  0  0  0
    6.1935   -2.8191    0.0000 Cl  0  0  0  0  0  0  0  0  0  0  0  0
    6.6141   -1.4535    0.0000 O   0  0  0  0  0  0  0  0  0  0  0  0
    5.7792   -4.5333    0.0000 Cl  0  0  0  0  0  0  0  0  0  0  0  0
  1  2  2  0  0  0  0
  2  3  1  0  0  0  0
  3  4  2  0  0  0  0
  4  5  1  0  0  0  0
  5  6  2  0  0  0  0
  5  7  1  0  0  0  0
  6  1  1  0  0  0  0
  7  8  1  0  0  0  0
  8  9  1  0  0  0  0
  9 10  2  0  0  0  0
  9 13  1  0  0  0  0
 10 11  1  0  0  0  0
 10 12  1  0  0  0  0
 11  7  2  0  0  0  0
 13 14  1  0  0  0  0
 13 15  2  0  0  0  0
M  END
>  <MOLFORMULA>
C10 H7 Cl N2 O S . Cl H

>  <MOLWEIGHT>
2.751582000000000e+002

>  <code>
CC58652

>  <appearance>
Solid

>  <purity>
90%

>  <product_name>
4-methyl-2-pyrid-4-yl-1,3-thiazole-5-carbonyl chloride hydrochloride

>  <cansmi>
ClC(=O)c1sc(nc1C)c1ccncc1.Cl

>  <HBA2>
4

>  <HBD>
1

>  <logP>
3.6945

>  <TPSA>
71.09

>  <MW>
275.154

$$$$

 OpenBabel02131616352D

  9  9  0  0  0  0  0  0  0  0999 V2000
    4.3958   -3.0750    0.0000 C   0  0  0  0  0  0  0  0  0  0  0  0
    4.3958   -3.9042    0.0000 C   0  0  0  0  0  0  0  0  0  0  0  0
    5.1120   -4.3125    0.0000 S   0  0  0  0  0  0  0  0  0  0  0  0
    5.8282   -3.9042    0.0000 C   0  0  0  0  0  0  0  0  0  0  0  0
    5.8282   -3.0750    0.0000 C   0  0  0  0  0  0  0  0  0  0  0  0
    5.1120   -2.6542    0.0000 C   0  0  0  0  0  0  0  0  0  0  0  0
    5.1120   -1.8292    0.0000 C   0  0  0  0  0  0  0  0  0  0  0  0
    5.8265   -1.4167    0.0000 Cl  0  0  0  0  0  0  0  0  0  0  0  0
    4.3975   -1.4167    0.0000 O   0  0  0  0  0  0  0  0  0  0  0  0
  1  2  1  0  0  0  0
  1  6  1  0  0  0  0
  2  3  1  0  0  0  0
  3  4  1  0  0  0  0
  4  5  1  0  0  0  0
  5  6  1  0  0  0  0
  6  7  1  0  0  0  0
  7  8  1  0  0  0  0
  7  9  2  0  0  0  0
M  END
>  <MOLFORMULA>
C6 H9 Cl O S

>  <MOLWEIGHT>
1.646551000000000e+002

>  <code>
CC61902

>  <appearance>
Liquid

>  <purity>
95%

>  <product_name>
tetrahydrothiopyran-4-carbonyl chloride

>  <cansmi>
ClC(=O)C1CCSCC1

>  <HBA2>
2

>  <HBD>
0

>  <logP>
1.895

>  <TPSA>
42.37

>  <MW>
164.653

$$$$

 OpenBabel02131616352D

 19 20  0  0  0  0  0  0  0  0999 V2000
    4.5583   -3.7250    0.0000 N   0  0  0  0  0  0  0  0  0  0  0  0
    5.2276   -3.2425    0.0000 C   0  0  0  0  0  0  0  0  0  0  0  0
    4.9708   -2.4542    0.0000 C   0  0  0  0  0  0  0  0  0  0  0  0
    4.1458   -2.4542    0.0000 C   0  0  0  0  0  0  0  0  0  0  0  0
    3.8890   -3.2425    0.0000 N   0  0  0  0  0  0  0  0  0  0  0  0
    5.9402   -3.6541    0.0000 C   0  0  0  0  0  0  0  0  0  0  0  0
    5.9391   -4.4815    0.0000 C   0  0  0  0  0  0  0  0  0  0  0  0
    6.6539   -4.8944    0.0000 C   0  0  0  0  0  0  0  0  0  0  0  0
    7.3703   -4.4810    0.0000 C   0  0  0  0  0  0  0  0  0  0  0  0
    7.3675   -3.6505    0.0000 C   0  0  0  0  0  0  0  0  0  0  0  0
    6.6521   -3.2414    0.0000 C   0  0  0  0  0  0  0  0  0  0  0  0
    4.5583   -4.5500    0.0000 C   0  0  0  0  0  0  0  0  0  0  0  0
    3.6612   -1.7866    0.0000 C   0  0  0  0  0  0  0  0  0  0  0  0
    2.8333   -1.7792    0.0000 F   0  0  0  0  0  0  0  0  0  0  0  0
    3.8708   -0.9833    0.0000 F   0  0  0  0  0  0  0  0  0  0  0  0
    3.2417   -1.0667    0.0000 F   0  0  0  0  0  0  0  0  0  0  0  0
    6.6496   -2.4164    0.0000 C   0  0  0  0  0  0  0  0  0  0  0  0
    7.3629   -2.0017    0.0000 Cl  0  0  0  0  0  0  0  0  0  0  0  0
    5.9339   -2.0060    0.0000 O   0  0  0  0  0  0  0  0  0  0  0  0
  1 12  1  0  0  0  0
  1  2  1  0  0  0  0
  2  3  2  0  0  0  0
  3  4  1  0  0  0  0
  4  5  2  0  0  0  0
  4 13  1  0  0  0  0
  5  1  1  0  0  0  0
  6  2  1  0  0  0  0
  6  7  2  0  0  0  0
  7  8  1  0  0  0  0
  8  9  2  0  0  0  0
  9 10  1  0  0  0  0
 10 11  2  0  0  0  0
 11  6  1  0  0  0  0
 11 17  1  0  0  0  0
 13 14  1  0  0  0  0
 13 15  1  0  0  0  0
 13 16  1  0  0  0  0
 17 18  1  0  0  0  0
 17 19  2  0  0  0  0
M  END
>  <MOLFORMULA>
C12 H8 Cl F3 N2 O

>  <MOLWEIGHT>
2.886552000000000e+002

>  <code>
CC62102

>  <appearance>
Solid

>  <purity>
97%

>  <product_name>
2-[1-methyl-3-(trifluoromethyl)-1H-pyrazol-5-yl]benzoyl chloride

>  <cansmi>
Cn1nc(cc1c1ccccc1C(=O)Cl)C(F)(F)F

>  <HBA2>
3

>  <HBD>
0

>  <logP>
3.4849

>  <TPSA>
34.89

>  <MW>
288.653

$$$$

 OpenBabel02131616352D

 14 15  0  0  0  0  0  0  0  0999 V2000
    4.0375   -2.7083    0.0000 S   0  0  0  0  0  0  0  0  0  0  0  0
    4.7068   -2.2258    0.0000 C   0  0  0  0  0  0  0  0  0  0  0  0
    4.4500   -1.4375    0.0000 C   0  0  0  0  0  0  0  0  0  0  0  0
    3.6250   -1.4375    0.0000 C   0  0  0  0  0  0  0  0  0  0  0  0
    3.3682   -2.2258    0.0000 C   0  0  0  0  0  0  0  0  0  0  0  0
    5.4004   -2.6579    0.0000 C   0  0  0  0  0  0  0  0  0  0  0  0
    4.6892   -3.0817    0.0000 C   0  0  0  0  0  0  0  0  0  0  0  0
    4.7006   -3.9050    0.0000 C   0  0  0  0  0  0  0  0  0  0  0  0
    5.4216   -4.3107    0.0000 O   0  0  0  0  0  0  0  0  0  0  0  0
    6.1328   -3.8869    0.0000 C   0  0  0  0  0  0  0  0  0  0  0  0
    6.1230   -3.0573    0.0000 C   0  0  0  0  0  0  0  0  0  0  0  0
    6.1161   -2.2475    0.0000 C   0  0  0  0  0  0  0  0  0  0  0  0
    6.8294   -2.6622    0.0000 Cl  0  0  0  0  0  0  0  0  0  0  0  0
    6.1186   -1.4225    0.0000 O   0  0  0  0  0  0  0  0  0  0  0  0
  1  2  1  0  0  0  0
  2  3  2  0  0  0  0
  2  6  1  0  0  0  0
  3  4  1  0  0  0  0
  4  5  2  0  0  0  0
  5  1  1  0  0  0  0
  6 11  1  0  0  0  0
  6  7  1  0  0  0  0
  6 12  1  0  0  0  0
  7  8  1  0  0  0  0
  8  9  1  0  0  0  0
  9 10  1  0  0  0  0
 10 11  1  0  0  0  0
 12 13  1  0  0  0  0
 12 14  2  0  0  0  0
M  END
>  <MOLFORMULA>
C10 H11 Cl O2 S

>  <MOLWEIGHT>
2.307139000000000e+002

>  <code>
CC62202

>  <appearance>
Liquid

>  <purity>
97%

>  <product_name>
4-thien-2-yltetrahydropyran-4-carbonyl chloride

>  <cansmi>
ClC(=O)C1(CCOCC1)c1cccs1

>  <HBA2>
3

>  <HBD>
0

>  <logP>
2.5617

>  <TPSA>
54.54

>  <MW>
230.711

$$$$

 OpenBabel02131616352D

  9  9  0  0  0  0  0  0  0  0999 V2000
    4.2500   -2.7708    0.0000 N   0  0  0  0  0  0  0  0  0  0  0  0
    4.9193   -2.2883    0.0000 C   0  0  0  0  0  0  0  0  0  0  0  0
    4.6625   -1.5000    0.0000 C   0  0  0  0  0  0  0  0  0  0  0  0
    3.8375   -1.5000    0.0000 C   0  0  0  0  0  0  0  0  0  0  0  0
    3.5807   -2.2883    0.0000 N   0  0  0  0  0  0  0  0  0  0  0  0
    4.2500   -3.5958    0.0000 C   0  0  0  0  0  0  0  0  0  0  0  0
    5.7035   -2.5444    0.0000 C   0  0  0  0  0  0  0  0  0  0  0  0
    5.8738   -3.3516    0.0000 O   0  0  0  0  0  0  0  0  0  0  0  0
    6.3174   -1.9933    0.0000 Cl  0  0  0  0  0  0  0  0  0  0  0  0
  1  6  1  0  0  0  0
  1  2  1  0  0  0  0
  2  7  1  0  0  0  0
  2  3  2  0  0  0  0
  3  4  1  0  0  0  0
  4  5  2  0  0  0  0
  5  1  1  0  0  0  0
  7  8  2  0  0  0  0
  7  9  1  0  0  0  0
M  END
>  <MOLFORMULA>
C5 H5 Cl N2 O

>  <MOLWEIGHT>
1.445605000000000e+002

>  <code>
CC62302

>  <appearance>
Liquid

>  <purity>
97%

>  <product_name>
1-methyl-1H-pyrazole-5-carbonyl chloride

>  <cansmi>
Cn1nccc1C(=O)Cl

>  <HBA2>
3

>  <HBD>
0

>  <logP>
0.7991

>  <TPSA>
34.89

>  <MW>
144.559

$$$$

 OpenBabel02131616352D

 17 18  0  0  0  0  0  0  0  0999 V2000
    2.0358   -3.6956    0.0000 C   0  0  0  0  0  0  0  0  0  0  0  0
    2.7501   -4.1090    0.0000 N   0  0  0  0  0  0  0  0  0  0  0  0
    3.4667   -3.6993    0.0000 C   0  0  0  0  0  0  0  0  0  0  0  0
    3.4703   -2.8722    0.0000 C   0  0  0  0  0  0  0  0  0  0  0  0
    2.7513   -2.4523    0.0000 N   0  0  0  0  0  0  0  0  0  0  0  0
    2.0376   -2.8644    0.0000 C   0  0  0  0  0  0  0  0  0  0  0  0
    4.1858   -2.4614    0.0000 O   0  0  0  0  0  0  0  0  0  0  0  0
    4.9034   -2.8757    0.0000 C   0  0  0  0  0  0  0  0  0  0  0  0
    4.8952   -3.7011    0.0000 C   0  0  0  0  0  0  0  0  0  0  0  0
    5.6078   -4.1153    0.0000 C   0  0  0  0  0  0  0  0  0  0  0  0
    6.3243   -3.7086    0.0000 C   0  0  0  0  0  0  0  0  0  0  0  0
    6.3237   -2.8752    0.0000 C   0  0  0  0  0  0  0  0  0  0  0  0
    5.6105   -2.4647    0.0000 C   0  0  0  0  0  0  0  0  0  0  0  0
    7.0377   -2.4620    0.0000 C   0  0  0  0  0  0  0  0  0  0  0  0
    7.7526   -2.8737    0.0000 Cl  0  0  0  0  0  0  0  0  0  0  0  0
    7.0369   -1.6370    0.0000 O   0  0  0  0  0  0  0  0  0  0  0  0
    1.3236   -2.4511    0.0000 C   0  0  0  0  0  0  0  0  0  0  0  0
  1  2  2  0  0  0  0
  2  3  1  0  0  0  0
  3  4  2  0  0  0  0
  4  5  1  0  0  0  0
  4  7  1  0  0  0  0
  5  6  2  0  0  0  0
  6  1  1  0  0  0  0
  6 17  1  0  0  0  0
  7  8  1  0  0  0  0
  8  9  2  0  0  0  0
  9 10  1  0  0  0  0
 10 11  2  0  0  0  0
 11 12  1  0  0  0  0
 12 13  2  0  0  0  0
 12 14  1  0  0  0  0
 13  8  1  0  0  0  0
 14 15  1  0  0  0  0
 14 16  2  0  0  0  0
M  END
>  <MOLFORMULA>
C12 H9 Cl N2 O2

>  <MOLWEIGHT>
2.486681000000000e+002

>  <code>
CC62602

>  <appearance>
Solid

>  <purity>
97%

>  <product_name>
3-[(6-methylpyrazin-2-yl)oxy]benzoyl chloride

>  <cansmi>
Cc1cncc(n1)Oc1cccc(c1)C(=O)Cl

>  <HBA2>
4

>  <HBD>
0

>  <logP>
2.9563

>  <TPSA>
52.08

>  <MW>
248.665

$$$$

 OpenBabel02131616352D

 17 18  0  0  0  0  0  0  0  0999 V2000
    1.8635   -2.8893    0.0000 C   0  0  0  0  0  0  0  0  0  0  0  0
    2.5813   -3.3008    0.0000 N   0  0  0  0  0  0  0  0  0  0  0  0
    3.2944   -2.8807    0.0000 C   0  0  0  0  0  0  0  0  0  0  0  0
    3.2951   -2.0536    0.0000 C   0  0  0  0  0  0  0  0  0  0  0  0
    2.5725   -1.6441    0.0000 N   0  0  0  0  0  0  0  0  0  0  0  0
    1.8582   -2.0665    0.0000 C   0  0  0  0  0  0  0  0  0  0  0  0
    4.0029   -1.6409    0.0000 O   0  0  0  0  0  0  0  0  0  0  0  0
    1.1403   -1.6600    0.0000 C   0  0  0  0  0  0  0  0  0  0  0  0
    4.7198   -2.0449    0.0000 C   0  0  0  0  0  0  0  0  0  0  0  0
    4.7270   -2.8744    0.0000 C   0  0  0  0  0  0  0  0  0  0  0  0
    5.4431   -3.2783    0.0000 C   0  0  0  0  0  0  0  0  0  0  0  0
    6.1519   -2.8656    0.0000 C   0  0  0  0  0  0  0  0  0  0  0  0
    6.1484   -2.0363    0.0000 C   0  0  0  0  0  0  0  0  0  0  0  0
    5.4317   -1.6279    0.0000 C   0  0  0  0  0  0  0  0  0  0  0  0
    6.8680   -3.2752    0.0000 C   0  0  0  0  0  0  0  0  0  0  0  0
    6.8713   -4.1002    0.0000 Cl  0  0  0  0  0  0  0  0  0  0  0  0
    7.5808   -2.8599    0.0000 O   0  0  0  0  0  0  0  0  0  0  0  0
  1  2  2  0  0  0  0
  2  3  1  0  0  0  0
  3  4  2  0  0  0  0
  4  5  1  0  0  0  0
  4  7  1  0  0  0  0
  5  6  2  0  0  0  0
  6  1  1  0  0  0  0
  6  8  1  0  0  0  0
  7  9  1  0  0  0  0
  9 10  2  0  0  0  0
 10 11  1  0  0  0  0
 11 12  2  0  0  0  0
 12 13  1  0  0  0  0
 12 15  1  0  0  0  0
 13 14  2  0  0  0  0
 14  9  1  0  0  0  0
 15 16  1  0  0  0  0
 15 17  2  0  0  0  0
M  END
>  <MOLFORMULA>
C12 H9 Cl N2 O2

>  <MOLWEIGHT>
2.486681000000000e+002

>  <code>
CC62702

>  <appearance>
Solid

>  <purity>
97%

>  <product_name>
4-[(6-methylpyrazin-2-yl)oxy]benzoyl chloride

>  <cansmi>
ClC(=O)c1ccc(cc1)Oc1cncc(n1)C

>  <HBA2>
4

>  <HBD>
0

>  <logP>
2.9563

>  <TPSA>
52.08

>  <MW>
248.665

$$$$

 OpenBabel02131616352D

  9  9  0  0  0  0  0  0  0  0999 V2000
    4.9167   -3.2125    0.0000 S   0  0  0  0  0  0  0  0  0  0  0  0
    4.2474   -2.7300    0.0000 C   0  0  0  0  0  0  0  0  0  0  0  0
    4.5042   -1.9417    0.0000 N   0  0  0  0  0  0  0  0  0  0  0  0
    5.3292   -1.9417    0.0000 C   0  0  0  0  0  0  0  0  0  0  0  0
    5.5860   -2.7300    0.0000 C   0  0  0  0  0  0  0  0  0  0  0  0
    3.4631   -2.9861    0.0000 Cl  0  0  0  0  0  0  0  0  0  0  0  0
    6.3702   -2.9861    0.0000 C   0  0  0  0  0  0  0  0  0  0  0  0
    6.5405   -3.7933    0.0000 Cl  0  0  0  0  0  0  0  0  0  0  0  0
    6.9841   -2.4350    0.0000 O   0  0  0  0  0  0  0  0  0  0  0  0
  1  2  1  0  0  0  0
  2  6  1  0  0  0  0
  2  3  2  0  0  0  0
  3  4  1  0  0  0  0
  4  5  2  0  0  0  0
  5  1  1  0  0  0  0
  5  7  1  0  0  0  0
  7  8  1  0  0  0  0
  7  9  2  0  0  0  0
M  END
>  <MOLFORMULA>
C4 H Cl2 N O S

>  <MOLWEIGHT>
1.820299000000000e+002

>  <code>
CC62902

>  <appearance>
Liquid

>  <purity>
97%

>  <product_name>
2-chloro-1,3-thiazole-5-carbonyl chloride

>  <cansmi>
Clc1ncc(s1)C(=O)Cl

>  <HBA2>
3

>  <HBD>
0

>  <logP>
2.1755

>  <TPSA>
58.2

>  <MW>
182.028

$$$$

 OpenBabel02131616352D

 17 18  0  0  0  0  0  0  0  0999 V2000
   -2.0023    0.2505    0.0000 C   0  0  0  0  0  0  0  0  0  0  0  0
   -1.2843   -0.1649    0.0000 C   0  0  0  0  0  0  0  0  0  0  0  0
   -0.5657    0.2414    0.0000 C   0  0  0  0  0  0  0  0  0  0  0  0
   -0.5680    1.0701    0.0000 C   0  0  0  0  0  0  0  0  0  0  0  0
   -1.2856    1.4912    0.0000 C   0  0  0  0  0  0  0  0  0  0  0  0
   -2.0007    1.0733    0.0000 C   0  0  0  0  0  0  0  0  0  0  0  0
   -2.7149    1.4864    0.0000 C   0  0  0  0  0  0  0  0  0  0  0  0
    0.1474    1.4810    0.0000 C   0  0  0  0  0  0  0  0  0  0  0  0
    0.8609    1.0669    0.0000 Cl  0  0  0  0  0  0  0  0  0  0  0  0
    0.1493    2.3060    0.0000 O   0  0  0  0  0  0  0  0  0  0  0  0
   -3.4297    1.0745    0.0000 O   0  0  0  0  0  0  0  0  0  0  0  0
   -4.1438    1.4876    0.0000 C   0  0  0  0  0  0  0  0  0  0  0  0
   -4.1383    2.3096    0.0000 C   0  0  0  0  0  0  0  0  0  0  0  0
   -4.8516    2.7226    0.0000 C   0  0  0  0  0  0  0  0  0  0  0  0
   -5.5674    2.3106    0.0000 C   0  0  0  0  0  0  0  0  0  0  0  0
   -5.5654    1.4813    0.0000 C   0  0  0  0  0  0  0  0  0  0  0  0
   -4.8515    1.0721    0.0000 C   0  0  0  0  0  0  0  0  0  0  0  0
  1  2  2  0  0  0  0
  2  3  1  0  0  0  0
  3  4  2  0  0  0  0
  4  8  1  0  0  0  0
  4  5  1  0  0  0  0
  5  6  2  0  0  0  0
  6  1  1  0  0  0  0
  6  7  1  0  0  0  0
  7 11  1  0  0  0  0
  8  9  1  0  0  0  0
  8 10  2  0  0  0  0
 11 12  1  0  0  0  0
 12 13  1  0  0  0  0
 13 14  2  0  0  0  0
 14 15  1  0  0  0  0
 15 16  2  0  0  0  0
 16 17  1  0  0  0  0
 17 12  2  0  0  0  0
M  END
>  <MOLFORMULA>
C14 H11 Cl O2

>  <MOLWEIGHT>
2.466919000000000e+002

>  <code>
CC63602

>  <appearance>
Liquid

>  <purity>
97%

>  <product_name>
3-(phenoxymethyl)benzoyl chloride

>  <cansmi>
ClC(=O)c1cccc(c1)COc1ccccc1

>  <HBA2>
2

>  <HBD>
0

>  <logP>
3.6446

>  <TPSA>
26.3

>  <MW>
246.689

$$$$

 OpenBabel02131616352D

 17 18  0  0  0  0  0  0  0  0999 V2000
    6.3632   -3.1220    0.0000 C   0  0  0  0  0  0  0  0  0  0  0  0
    7.0724   -2.6959    0.0000 C   0  0  0  0  0  0  0  0  0  0  0  0
    7.0569   -1.8706    0.0000 C   0  0  0  0  0  0  0  0  0  0  0  0
    6.3372   -1.4704    0.0000 C   0  0  0  0  0  0  0  0  0  0  0  0
    5.6233   -1.9016    0.0000 C   0  0  0  0  0  0  0  0  0  0  0  0
    5.6464   -2.7255    0.0000 C   0  0  0  0  0  0  0  0  0  0  0  0
    4.9369   -3.1535    0.0000 C   0  0  0  0  0  0  0  0  0  0  0  0
    4.2136   -2.7567    0.0000 O   0  0  0  0  0  0  0  0  0  0  0  0
    3.5041   -3.1847    0.0000 C   0  0  0  0  0  0  0  0  0  0  0  0
    2.7879   -2.7840    0.0000 C   0  0  0  0  0  0  0  0  0  0  0  0
    2.0831   -3.2114    0.0000 C   0  0  0  0  0  0  0  0  0  0  0  0
    2.1007   -4.0371    0.0000 C   0  0  0  0  0  0  0  0  0  0  0  0
    2.8290   -4.4336    0.0000 C   0  0  0  0  0  0  0  0  0  0  0  0
    3.5308   -3.9998    0.0000 C   0  0  0  0  0  0  0  0  0  0  0  0
    7.7641   -1.4457    0.0000 C   0  0  0  0  0  0  0  0  0  0  0  0
    8.4857   -1.8457    0.0000 Cl  0  0  0  0  0  0  0  0  0  0  0  0
    7.7498   -0.6208    0.0000 O   0  0  0  0  0  0  0  0  0  0  0  0
  1  2  2  0  0  0  0
  2  3  1  0  0  0  0
  3 15  1  0  0  0  0
  3  4  2  0  0  0  0
  4  5  1  0  0  0  0
  5  6  2  0  0  0  0
  6  1  1  0  0  0  0
  6  7  1  0  0  0  0
  7  8  1  0  0  0  0
  8  9  1  0  0  0  0
  9 10  2  0  0  0  0
 10 11  1  0  0  0  0
 11 12  2  0  0  0  0
 12 13  1  0  0  0  0
 13 14  2  0  0  0  0
 14  9  1  0  0  0  0
 15 16  1  0  0  0  0
 15 17  2  0  0  0  0
M  END
>  <MOLFORMULA>
C14 H11 Cl O2

>  <MOLWEIGHT>
2.466919000000000e+002

>  <code>
CC63702

>  <appearance>
Solid

>  <purity>
97%

>  <product_name>
4-(phenoxymethyl)benzoyl chloride

>  <cansmi>
ClC(=O)c1ccc(cc1)COc1ccccc1

>  <HBA2>
2

>  <HBD>
0

>  <logP>
3.6446

>  <TPSA>
26.3

>  <MW>
246.689

$$$$

 OpenBabel02131616352D

 10 10  0  0  0  0  0  0  0  0999 V2000
   -2.0500   -4.0166    0.0000 N   0  0  0  0  0  0  0  0  0  0  0  0
   -1.3807   -3.5342    0.0000 N   0  0  0  0  0  0  0  0  0  0  0  0
   -1.6375   -2.7459    0.0000 C   0  0  0  0  0  0  0  0  0  0  0  0
   -2.4625   -2.7459    0.0000 C   0  0  0  0  0  0  0  0  0  0  0  0
   -2.7193   -3.5342    0.0000 C   0  0  0  0  0  0  0  0  0  0  0  0
   -2.0500   -4.8416    0.0000 C   0  0  0  0  0  0  0  0  0  0  0  0
   -1.1528   -2.0782    0.0000 C   0  0  0  0  0  0  0  0  0  0  0  0
   -0.3323   -2.1642    0.0000 Cl  0  0  0  0  0  0  0  0  0  0  0  0
   -1.4887   -1.3247    0.0000 O   0  0  0  0  0  0  0  0  0  0  0  0
   -2.9472   -2.0782    0.0000 Br  0  0  0  0  0  0  0  0  0  0  0  0
  1  6  1  0  0  0  0
  1  2  1  0  0  0  0
  2  3  2  0  0  0  0
  3  7  1  0  0  0  0
  3  4  1  0  0  0  0
  4  5  2  0  0  0  0
  4 10  1  0  0  0  0
  5  1  1  0  0  0  0
  7  8  1  0  0  0  0
  7  9  2  0  0  0  0
M  END
>  <MOLFORMULA>
C5 H4 Br Cl N2 O

>  <MOLWEIGHT>
2.234566000000000e+002

>  <code>
CC63902

>  <appearance>
Solid

>  <purity>
97%

>  <product_name>
4-bromo-1-methyl-1H-pyrazole-3-carbonyl chloride

>  <cansmi>
Cn1cc(c(n1)C(=O)Cl)Br

>  <HBA2>
3

>  <HBD>
0

>  <logP>
1.5616

>  <TPSA>
34.89

>  <MW>
223.455

$$$$

 OpenBabel02131616352D

  9  9  0  0  0  0  0  0  0  0999 V2000
    5.1202   -3.7604    0.0000 C   0  0  0  0  0  0  0  0  0  0  0  0
    5.1227   -2.9354    0.0000 C   0  0  0  0  0  0  0  0  0  0  0  0
    3.6986   -2.9312    0.0000 C   0  0  0  0  0  0  0  0  0  0  0  0
    3.6962   -3.7562    0.0000 C   0  0  0  0  0  0  0  0  0  0  0  0
    4.4111   -4.1750    0.0000 O   0  0  0  0  0  0  0  0  0  0  0  0
    5.7077   -2.3538    0.0000 C   0  0  0  0  0  0  0  0  0  0  0  0
    5.8352   -4.1720    0.0000 Br  0  0  0  0  0  0  0  0  0  0  0  0
    6.5040   -2.5697    0.0000 Cl  0  0  0  0  0  0  0  0  0  0  0  0
    5.4966   -1.5563    0.0000 O   0  0  0  0  0  0  0  0  0  0  0  0
  1  2  2  0  0  0  0
  1  7  1  0  0  0  0
  2  3  1  0  0  0  0
  2  6  1  0  0  0  0
  3  4  2  0  0  0  0
  4  5  1  0  0  0  0
  5  1  1  0  0  0  0
  6  8  1  0  0  0  0
  6  9  2  0  0  0  0
M  END
>  <MOLFORMULA>
C5 H2 Br Cl O2

>  <MOLWEIGHT>
2.094258000000000e+002

>  <code>
CC64702

>  <appearance>
Liquid

>  <purity>
97%

>  <product_name>
2-bromo-3-furoyl chloride

>  <cansmi>
ClC(=O)c1ccoc1Br

>  <HBA2>
2

>  <HBD>
0

>  <logP>
2.4211

>  <TPSA>
30.21

>  <MW>
209.425

$$$$

 OpenBabel02131616352D

 20 21  0  0  0  0  0  0  0  0999 V2000
    4.3923   -2.5979    0.0000 N   0  0  0  0  0  0  0  0  0  0  0  0
    4.3940   -1.8021    0.0000 C   0  0  0  0  0  0  0  0  0  0  0  0
    5.7680   -1.7979    0.0000 C   0  0  0  0  0  0  0  0  0  0  0  0
    5.7705   -2.5937    0.0000 C   0  0  0  0  0  0  0  0  0  0  0  0
    5.0805   -3.0000    0.0000 N   0  0  0  0  0  0  0  0  0  0  0  0
    6.4660   -2.9904    0.0000 O   0  0  0  0  0  0  0  0  0  0  0  0
    5.0809   -3.7958    0.0000 C   0  0  0  0  0  0  0  0  0  0  0  0
    3.8256   -1.2371    0.0000 C   0  0  0  0  0  0  0  0  0  0  0  0
    3.2708   -0.6667    0.0000 F   0  0  0  0  0  0  0  0  0  0  0  0
    3.8375   -0.4375    0.0000 F   0  0  0  0  0  0  0  0  0  0  0  0
    3.0333   -1.2333    0.0000 F   0  0  0  0  0  0  0  0  0  0  0  0
    6.4703   -3.8154    0.0000 C   0  0  0  0  0  0  0  0  0  0  0  0
    5.7585   -4.2288    0.0000 C   0  0  0  0  0  0  0  0  0  0  0  0
    5.7625   -5.0530    0.0000 C   0  0  0  0  0  0  0  0  0  0  0  0
    6.4797   -5.4625    0.0000 C   0  0  0  0  0  0  0  0  0  0  0  0
    7.1943   -5.0418    0.0000 C   0  0  0  0  0  0  0  0  0  0  0  0
    7.1868   -4.2190    0.0000 C   0  0  0  0  0  0  0  0  0  0  0  0
    6.3496   -1.2128    0.0000 C   0  0  0  0  0  0  0  0  0  0  0  0
    7.1471   -1.4238    0.0000 Cl  0  0  0  0  0  0  0  0  0  0  0  0
    6.1336   -0.4165    0.0000 O   0  0  0  0  0  0  0  0  0  0  0  0
  1  2  2  0  0  0  0
  2  3  1  0  0  0  0
  2  8  1  0  0  0  0
  3  4  2  0  0  0  0
  3 18  1  0  0  0  0
  4  6  1  0  0  0  0
  4  5  1  0  0  0  0
  5  7  1  0  0  0  0
  5  1  1  0  0  0  0
  6 12  1  0  0  0  0
  8 10  1  0  0  0  0
  8 11  1  0  0  0  0
  8  9  1  0  0  0  0
 12 13  2  0  0  0  0
 13 14  1  0  0  0  0
 14 15  2  0  0  0  0
 15 16  1  0  0  0  0
 16 17  2  0  0  0  0
 17 12  1  0  0  0  0
 18 19  1  0  0  0  0
 18 20  2  0  0  0  0
M  END
>  <MOLFORMULA>
C12 H8 Cl F3 N2 O2

>  <MOLWEIGHT>
3.046542000000000e+002

>  <code>
CC64802

>  <appearance>
Solid

>  <purity>
97%

>  <product_name>
1-methyl-5-phenoxy-3-(trifluoromethyl)-1H-pyrazole-4-carbonyl chloride

>  <cansmi>
Cn1nc(c(c1Oc1ccccc1)C(=O)Cl)C(F)(F)F

>  <HBA2>
4

>  <HBD>
0

>  <logP>
3.6102

>  <TPSA>
44.12

>  <MW>
304.652

$$$$

 OpenBabel02131616352D

  9  9  0  0  0  0  0  0  0  0999 V2000
    2.3875   -0.5875    0.0000 S   0  0  0  0  0  0  0  0  0  0  0  0
    3.0333   -0.1959    0.0000 C   0  0  0  0  0  0  0  0  0  0  0  0
    1.7458   -0.1959    0.0000 C   0  0  0  0  0  0  0  0  0  0  0  0
    3.0333    0.5416    0.0000 C   0  0  0  0  0  0  0  0  0  0  0  0
    1.7458    0.5416    0.0000 C   0  0  0  0  0  0  0  0  0  0  0  0
    1.0959   -0.5750    0.0000 C   0  0  0  0  0  0  0  0  0  0  0  0
    3.6914   -0.5664    0.0000 C   0  0  0  0  0  0  0  0  0  0  0  0
    3.6996   -1.3217    0.0000 Cl  0  0  0  0  0  0  0  0  0  0  0  0
    4.3414   -0.1818    0.0000 O   0  0  0  0  0  0  0  0  0  0  0  0
  2  7  1  0  0  0  0
  2  1  1  0  0  0  0
  3  1  1  0  0  0  0
  4  2  2  0  0  0  0
  4  5  1  0  0  0  0
  5  3  2  0  0  0  0
  6  3  1  0  0  0  0
  7  8  1  0  0  0  0
  7  9  2  0  0  0  0
M  END
>  <MOLFORMULA>
C6 H5 Cl O S

>  <MOLWEIGHT>
1.606235000000000e+002

>  <code>
CC65002

>  <appearance>
Liquid

>  <purity>
97%

>  <product_name>
5-methylthiophene-2-carbonyl chloride

>  <cansmi>
Cc1ccc(s1)C(=O)Cl

>  <HBA2>
2

>  <HBD>
0

>  <logP>
2.4355

>  <TPSA>
45.31

>  <MW>
160.621

$$$$

 OpenBabel02131616352D

 15 16  0  0  0  0  0  0  0  0999 V2000
    5.4612   -1.9111    0.0000 C   0  0  0  0  0  0  0  0  0  0  0  0
    4.7370   -2.3289    0.0000 N   0  0  0  0  0  0  0  0  0  0  0  0
    4.7460   -3.1613    0.0000 C   0  0  0  0  0  0  0  0  0  0  0  0
    5.4665   -3.5749    0.0000 N   0  0  0  0  0  0  0  0  0  0  0  0
    6.1872   -3.1479    0.0000 C   0  0  0  0  0  0  0  0  0  0  0  0
    6.1747   -2.3211    0.0000 C   0  0  0  0  0  0  0  0  0  0  0  0
    4.0270   -3.5663    0.0000 C   0  0  0  0  0  0  0  0  0  0  0  0
    3.3135   -3.1511    0.0000 C   0  0  0  0  0  0  0  0  0  0  0  0
    2.5949   -3.5596    0.0000 C   0  0  0  0  0  0  0  0  0  0  0  0
    2.5935   -4.3891    0.0000 C   0  0  0  0  0  0  0  0  0  0  0  0
    3.3124   -4.8013    0.0000 C   0  0  0  0  0  0  0  0  0  0  0  0
    4.0281   -4.3904    0.0000 C   0  0  0  0  0  0  0  0  0  0  0  0
    6.8855   -1.9024    0.0000 C   0  0  0  0  0  0  0  0  0  0  0  0
    7.6035   -2.3087    0.0000 Cl  0  0  0  0  0  0  0  0  0  0  0  0
    6.8784   -1.0775    0.0000 O   0  0  0  0  0  0  0  0  0  0  0  0
  1  2  2  0  0  0  0
  2  3  1  0  0  0  0
  3  4  2  0  0  0  0
  3  7  1  0  0  0  0
  4  5  1  0  0  0  0
  5  6  2  0  0  0  0
  6  1  1  0  0  0  0
  6 13  1  0  0  0  0
  7  8  2  0  0  0  0
  8  9  1  0  0  0  0
  9 10  2  0  0  0  0
 10 11  1  0  0  0  0
 11 12  2  0  0  0  0
 12  7  1  0  0  0  0
 13 14  1  0  0  0  0
 13 15  2  0  0  0  0
M  END
>  <MOLFORMULA>
C11 H7 Cl N2 O

>  <MOLWEIGHT>
2.186423000000000e+002

>  <code>
CC66302

>  <appearance>
Solid

>  <purity>
97%

>  <product_name>
2-phenylpyrimidine-5-carbonyl chloride

>  <cansmi>
ClC(=O)c1cnc(nc1)c1ccccc1

>  <HBA2>
3

>  <HBD>
0

>  <logP>
2.5226

>  <TPSA>
42.85

>  <MW>
218.639

$$$$

 OpenBabel02131616352D

 14 15  0  0  0  0  0  0  0  0999 V2000
    3.8349   -2.3226    0.0000 C   0  0  0  0  0  0  0  0  0  0  0  0
    4.5533   -1.9097    0.0000 C   0  0  0  0  0  0  0  0  0  0  0  0
    5.2719   -2.3312    0.0000 N   0  0  0  0  0  0  0  0  0  0  0  0
    5.9926   -1.9170    0.0000 C   0  0  0  0  0  0  0  0  0  0  0  0
    5.9958   -1.0857    0.0000 C   0  0  0  0  0  0  0  0  0  0  0  0
    5.2725   -0.6703    0.0000 C   0  0  0  0  0  0  0  0  0  0  0  0
    4.5548   -1.0827    0.0000 N   0  0  0  0  0  0  0  0  0  0  0  0
    6.7153   -0.6747    0.0000 C   0  0  0  0  0  0  0  0  0  0  0  0
    7.4331   -1.0887    0.0000 Cl  0  0  0  0  0  0  0  0  0  0  0  0
    6.7170    0.1545    0.0000 O   0  0  0  0  0  0  0  0  0  0  0  0
    3.0829   -1.9833    0.0000 C   0  0  0  0  0  0  0  0  0  0  0  0
    2.5299   -2.5928    0.0000 C   0  0  0  0  0  0  0  0  0  0  0  0
    2.9386   -3.3113    0.0000 C   0  0  0  0  0  0  0  0  0  0  0  0
    3.7484   -3.1432    0.0000 S   0  0  0  0  0  0  0  0  0  0  0  0
  1 11  2  0  0  0  0
  2  1  1  0  0  0  0
  2  3  2  0  0  0  0
  3  4  1  0  0  0  0
  4  5  2  0  0  0  0
  5  8  1  0  0  0  0
  5  6  1  0  0  0  0
  6  7  2  0  0  0  0
  7  2  1  0  0  0  0
  8  9  1  0  0  0  0
  8 10  2  0  0  0  0
 11 12  1  0  0  0  0
 12 13  2  0  0  0  0
 13 14  1  0  0  0  0
 14  1  1  0  0  0  0
M  END
>  <MOLFORMULA>
C9 H5 Cl N2 O S

>  <MOLWEIGHT>
2.246705000000000e+002

>  <code>
CC66502

>  <appearance>
Solid

>  <purity>
95%

>  <product_name>
2-thien-2-ylpyrimidine-5-carbonyl chloride

>  <cansmi>
ClC(=O)c1cnc(nc1)c1cccs1

>  <HBA2>
4

>  <HBD>
0

>  <logP>
2.5841

>  <TPSA>
71.09

>  <MW>
224.667

$$$$

 OpenBabel02131616352D

 10 10  0  0  0  0  0  0  0  0999 V2000
    3.9708   -3.7000    0.0000 C   0  0  0  0  0  0  0  0  0  0  0  0
    3.9708   -4.5292    0.0000 C   0  0  0  0  0  0  0  0  0  0  0  0
    4.6829   -4.9375    0.0000 O   0  0  0  0  0  0  0  0  0  0  0  0
    5.3990   -4.5292    0.0000 C   0  0  0  0  0  0  0  0  0  0  0  0
    5.3990   -3.7000    0.0000 C   0  0  0  0  0  0  0  0  0  0  0  0
    4.6829   -3.2792    0.0000 C   0  0  0  0  0  0  0  0  0  0  0  0
    4.6829   -2.4500    0.0000 C   0  0  0  0  0  0  0  0  0  0  0  0
    5.4015   -2.0375    0.0000 C   0  0  0  0  0  0  0  0  0  0  0  0
    6.1149   -2.4518    0.0000 Cl  0  0  0  0  0  0  0  0  0  0  0  0
    5.4036   -1.2125    0.0000 O   0  0  0  0  0  0  0  0  0  0  0  0
  1  2  1  0  0  0  0
  1  6  1  0  0  0  0
  2  3  1  0  0  0  0
  3  4  1  0  0  0  0
  4  5  1  0  0  0  0
  5  6  1  0  0  0  0
  6  7  1  0  0  0  0
  7  8  1  0  0  0  0
  8  9  1  0  0  0  0
  8 10  2  0  0  0  0
M  END
>  <MOLFORMULA>
C7 H11 Cl O2

>  <MOLWEIGHT>
1.626149000000000e+002

>  <code>
CC67402

>  <appearance>
Liquid

>  <purity>
95%

>  <product_name>
tetrahydropyran-4-ylacetyl chloride

>  <cansmi>
ClC(=O)CC1CCOCC1

>  <HBA2>
2

>  <HBD>
0

>  <logP>
1.5685

>  <TPSA>
26.3

>  <MW>
162.614

$$$$

 OpenBabel02131616352D

 15 16  0  0  0  0  0  0  0  0999 V2000
    3.3125   -2.8416    0.0000 S   0  0  0  0  0  0  0  0  0  0  0  0
    3.9818   -2.3592    0.0000 C   0  0  0  0  0  0  0  0  0  0  0  0
    3.7250   -1.5709    0.0000 C   0  0  0  0  0  0  0  0  0  0  0  0
    2.9000   -1.5709    0.0000 C   0  0  0  0  0  0  0  0  0  0  0  0
    2.6432   -2.3592    0.0000 C   0  0  0  0  0  0  0  0  0  0  0  0
    4.6944   -2.7708    0.0000 C   0  0  0  0  0  0  0  0  0  0  0  0
    4.6932   -3.5982    0.0000 C   0  0  0  0  0  0  0  0  0  0  0  0
    5.4081   -4.0110    0.0000 C   0  0  0  0  0  0  0  0  0  0  0  0
    6.1245   -3.5977    0.0000 C   0  0  0  0  0  0  0  0  0  0  0  0
    6.1216   -2.7672    0.0000 C   0  0  0  0  0  0  0  0  0  0  0  0
    5.4063   -2.3580    0.0000 C   0  0  0  0  0  0  0  0  0  0  0  0
    4.2097   -0.9032    0.0000 Br  0  0  0  0  0  0  0  0  0  0  0  0
    6.8396   -4.0091    0.0000 C   0  0  0  0  0  0  0  0  0  0  0  0
    6.8409   -4.8341    0.0000 Cl  0  0  0  0  0  0  0  0  0  0  0  0
    7.5534   -3.5954    0.0000 O   0  0  0  0  0  0  0  0  0  0  0  0
  1  2  1  0  0  0  0
  2  3  2  0  0  0  0
  3  4  1  0  0  0  0
  3 12  1  0  0  0  0
  4  5  2  0  0  0  0
  5  1  1  0  0  0  0
  6  2  1  0  0  0  0
  6  7  2  0  0  0  0
  7  8  1  0  0  0  0
  8  9  2  0  0  0  0
  9 10  1  0  0  0  0
  9 13  1  0  0  0  0
 10 11  2  0  0  0  0
 11  6  1  0  0  0  0
 13 14  1  0  0  0  0
 13 15  2  0  0  0  0
M  END
>  <MOLFORMULA>
C11 H6 Br Cl O S

>  <MOLWEIGHT>
3.015904000000000e+002

>  <code>
CC67802

>  <appearance>
Solid

>  <purity>
95%

>  <product_name>
4-(3-bromothien-2-yl)benzoyl chloride

>  <cansmi>
ClC(=O)c1ccc(cc1)c1sccc1Br

>  <HBA2>
2

>  <HBD>
0

>  <logP>
4.5566

>  <TPSA>
45.31

>  <MW>
301.587

$$$$

 OpenBabel02131616352D

 10 10  0  0  0  0  0  0  0  0999 V2000
    1.3500   -2.7500    0.0000 S   0  0  0  0  0  0  0  0  0  0  0  0
    2.0193   -2.2675    0.0000 C   0  0  0  0  0  0  0  0  0  0  0  0
    1.7625   -1.4792    0.0000 C   0  0  0  0  0  0  0  0  0  0  0  0
    0.9375   -1.4792    0.0000 C   0  0  0  0  0  0  0  0  0  0  0  0
    0.6807   -2.2675    0.0000 C   0  0  0  0  0  0  0  0  0  0  0  0
   -0.1035   -2.5236    0.0000 Cl  0  0  0  0  0  0  0  0  0  0  0  0
    2.8035   -2.5236    0.0000 Cl  0  0  0  0  0  0  0  0  0  0  0  0
    2.2472   -0.8116    0.0000 C   0  0  0  0  0  0  0  0  0  0  0  0
    3.0677   -0.8975    0.0000 Cl  0  0  0  0  0  0  0  0  0  0  0  0
    1.9113   -0.0580    0.0000 O   0  0  0  0  0  0  0  0  0  0  0  0
  1  2  1  0  0  0  0
  2  7  1  0  0  0  0
  2  3  2  0  0  0  0
  3  8  1  0  0  0  0
  3  4  1  0  0  0  0
  4  5  2  0  0  0  0
  5  1  1  0  0  0  0
  5  6  1  0  0  0  0
  8  9  1  0  0  0  0
  8 10  2  0  0  0  0
M  END
>  <MOLFORMULA>
C5 H Cl3 O S

>  <MOLWEIGHT>
2.154869000000000e+002

>  <code>
CD09458

>  <appearance>
liquid

>  <purity>
95%

>  <product_name>
2,5-dichlorothiophene-3-carbonyl chloride

>  <cansmi>
Clc1sc(c(c1)C(=O)Cl)Cl

>  <HBA2>
2

>  <HBD>
0

>  <logP>
3.4339

>  <TPSA>
45.31

>  <MW>
215.485

$$$$

 OpenBabel02131616352D

 19 19  0  0  0  0  0  0  0  0999 V2000
    4.6917   -3.5583    0.0000 S   0  0  0  0  0  0  0  0  0  0  0  0
    5.4126   -3.1458    0.0000 C   0  0  0  0  0  0  0  0  0  0  0  0
    3.9792   -3.1458    0.0000 N   0  0  0  0  0  0  0  0  0  0  0  0
    7.5501   -1.8958    0.0000 C   0  0  0  0  0  0  0  0  0  0  0  0
    5.2750   -4.1375    0.0000 O   0  0  0  0  0  0  0  0  0  0  0  0
    4.0959   -4.1375    0.0000 O   0  0  0  0  0  0  0  0  0  0  0  0
    6.8376   -2.3125    0.0000 C   0  0  0  0  0  0  0  0  0  0  0  0
    7.5501   -1.0708    0.0000 O   0  0  0  0  0  0  0  0  0  0  0  0
    5.4126   -2.3125    0.0000 C   0  0  0  0  0  0  0  0  0  0  0  0
    6.1250   -3.5583    0.0000 C   0  0  0  0  0  0  0  0  0  0  0  0
    6.8459   -3.1458    0.0000 C   0  0  0  0  0  0  0  0  0  0  0  0
    6.1250   -1.9041    0.0000 C   0  0  0  0  0  0  0  0  0  0  0  0
    8.2709   -2.3083    0.0000 Cl  0  0  0  0  0  0  0  0  0  0  0  0
    3.2625   -3.5542    0.0000 C   0  0  0  0  0  0  0  0  0  0  0  0
    3.9792   -2.3125    0.0000 C   0  0  0  0  0  0  0  0  0  0  0  0
    3.2626   -1.9042    0.0000 C   0  0  0  0  0  0  0  0  0  0  0  0
    2.5459   -3.1416    0.0000 C   0  0  0  0  0  0  0  0  0  0  0  0
    1.8334   -3.5542    0.0000 C   0  0  0  0  0  0  0  0  0  0  0  0
    2.5459   -2.3125    0.0000 C   0  0  0  0  0  0  0  0  0  0  0  0
  2  1  1  0  0  0  0
  3  1  1  0  0  0  0
  4  7  1  0  0  0  0
  5  1  2  0  0  0  0
  6  1  2  0  0  0  0
  7 11  1  0  0  0  0
  8  4  2  0  0  0  0
  9  2  2  0  0  0  0
 10  2  1  0  0  0  0
 11 10  2  0  0  0  0
 12  9  1  0  0  0  0
 12  7  2  0  0  0  0
 13  4  1  0  0  0  0
 14  3  1  0  0  0  0
 15  3  1  0  0  0  0
 16 15  1  0  0  0  0
 17 14  1  0  0  0  0
 18 17  1  0  0  0  0
 19 16  1  0  0  0  0
M  END
>  <MOLFORMULA>
C13 H18 Cl N O3 S

>  <MOLWEIGHT>
3.038082000000000e+002

>  <code>
DSHS00754

>  <appearance>
solid

>  <purity>
TECH

>  <product_name>
4-[(dipropylamino)sulfonyl]benzene-1-carbonyl chloride

>  <cansmi>
CCCN(S(=O)(=O)c1ccc(cc1)C(=O)Cl)CCC

>  <HBA2>
4

>  <HBD>
0

>  <logP>
3.9571

>  <TPSA>
62.83

>  <MW>
303.805

$$$$

 OpenBabel02131616352D

 13 13  0  0  0  0  0  0  0  0999 V2000
   -2.6583   -2.4750    0.0000 N   0  0  0  0  0  0  0  0  0  0  0  0
   -1.9890   -1.9925    0.0000 C   0  0  0  0  0  0  0  0  0  0  0  0
   -2.2458   -1.2042    0.0000 C   0  0  0  0  0  0  0  0  0  0  0  0
   -3.0708   -1.2042    0.0000 C   0  0  0  0  0  0  0  0  0  0  0  0
   -3.3276   -1.9925    0.0000 N   0  0  0  0  0  0  0  0  0  0  0  0
   -2.6583   -3.3000    0.0000 C   0  0  0  0  0  0  0  0  0  0  0  0
   -3.5555   -0.5366    0.0000 C   0  0  0  0  0  0  0  0  0  0  0  0
   -3.2197    0.2170    0.0000 F   0  0  0  0  0  0  0  0  0  0  0  0
   -4.3760   -0.6225    0.0000 F   0  0  0  0  0  0  0  0  0  0  0  0
   -2.7852   -0.2412    0.0000 F   0  0  0  0  0  0  0  0  0  0  0  0
   -1.7612   -0.5366    0.0000 C   0  0  0  0  0  0  0  0  0  0  0  0
   -0.9407   -0.6225    0.0000 Cl  0  0  0  0  0  0  0  0  0  0  0  0
   -2.0970    0.2170    0.0000 O   0  0  0  0  0  0  0  0  0  0  0  0
  1  2  1  0  0  0  0
  1  6  1  0  0  0  0
  2  3  2  0  0  0  0
  3  4  1  0  0  0  0
  3 11  1  0  0  0  0
  4  5  2  0  0  0  0
  4  7  1  0  0  0  0
  5  1  1  0  0  0  0
  7  8  1  0  0  0  0
  7  9  1  0  0  0  0
  7 10  1  0  0  0  0
 11 12  1  0  0  0  0
 11 13  2  0  0  0  0
M  END
>  <MOLFORMULA>
C6 H4 Cl F3 N2 O

>  <MOLWEIGHT>
2.125576000000000e+002

>  <code>
GK00779

>  <appearance>
liquid

>  <purity>
95%

>  <product_name>
1-methyl-3-(trifluoromethyl)-1H-pyrazole-4-carbonyl chloride

>  <cansmi>
Cn1cc(c(n1)C(F)(F)F)C(=O)Cl

>  <HBA2>
3

>  <HBD>
0

>  <logP>
1.8179

>  <TPSA>
34.89

>  <MW>
212.557

$$$$

 OpenBabel02131616352D

  9  9  0  0  0  0  0  0  0  0999 V2000
   -2.2834   -0.5458    0.0000 S   0  0  0  0  0  0  0  0  0  0  0  0
   -1.6141   -0.0633    0.0000 C   0  0  0  0  0  0  0  0  0  0  0  0
   -1.8709    0.7250    0.0000 C   0  0  0  0  0  0  0  0  0  0  0  0
   -2.6959    0.7250    0.0000 C   0  0  0  0  0  0  0  0  0  0  0  0
   -2.9527   -0.0633    0.0000 C   0  0  0  0  0  0  0  0  0  0  0  0
   -1.3862    1.3926    0.0000 Cl  0  0  0  0  0  0  0  0  0  0  0  0
   -0.8298   -0.3194    0.0000 C   0  0  0  0  0  0  0  0  0  0  0  0
   -0.6595   -1.1266    0.0000 O   0  0  0  0  0  0  0  0  0  0  0  0
   -0.2159    0.2317    0.0000 Cl  0  0  0  0  0  0  0  0  0  0  0  0
  1  2  1  0  0  0  0
  2  7  1  0  0  0  0
  2  3  2  0  0  0  0
  3  6  1  0  0  0  0
  3  4  1  0  0  0  0
  4  5  2  0  0  0  0
  5  1  1  0  0  0  0
  7  8  2  0  0  0  0
  7  9  1  0  0  0  0
M  END
>  <MOLFORMULA>
C5 H2 Cl2 O S

>  <MOLWEIGHT>
1.810418000000000e+002

>  <code>
GK01307

>  <appearance>
solid

>  <purity>
97%

>  <product_name>
3-chlorothiophene-2-carbonyl chloride

>  <cansmi>
ClC(=O)c1sccc1Cl

>  <HBA2>
2

>  <HBD>
0

>  <logP>
2.7805

>  <TPSA>
45.31

>  <MW>
181.04

$$$$

 OpenBabel02131616352D

 10 10  0  0  0  0  0  0  0  0999 V2000
   -1.1584   -1.0458    0.0000 S   0  0  0  0  0  0  0  0  0  0  0  0
   -0.4891   -0.5633    0.0000 C   0  0  0  0  0  0  0  0  0  0  0  0
   -0.7459    0.2250    0.0000 C   0  0  0  0  0  0  0  0  0  0  0  0
   -1.5709    0.2250    0.0000 C   0  0  0  0  0  0  0  0  0  0  0  0
   -1.8277   -0.5633    0.0000 C   0  0  0  0  0  0  0  0  0  0  0  0
   -0.2612    0.8926    0.0000 Cl  0  0  0  0  0  0  0  0  0  0  0  0
    0.2952   -0.8194    0.0000 C   0  0  0  0  0  0  0  0  0  0  0  0
    0.4655   -1.6266    0.0000 O   0  0  0  0  0  0  0  0  0  0  0  0
    0.9091   -0.2683    0.0000 Cl  0  0  0  0  0  0  0  0  0  0  0  0
   -2.0556    0.8926    0.0000 C   0  0  0  0  0  0  0  0  0  0  0  0
  1  2  1  0  0  0  0
  2  7  1  0  0  0  0
  2  3  2  0  0  0  0
  3  6  1  0  0  0  0
  3  4  1  0  0  0  0
  4  5  2  0  0  0  0
  4 10  1  0  0  0  0
  5  1  1  0  0  0  0
  7  8  2  0  0  0  0
  7  9  1  0  0  0  0
M  END
>  <MOLFORMULA>
C6 H4 Cl2 O S

>  <MOLWEIGHT>
1.950686000000000e+002

>  <code>
GK01405

>  <appearance>
solid

>  <purity>
97%

>  <product_name>
3-chloro-4-methyl-2-thiophenecarbonyl chloride

>  <cansmi>
ClC(=O)c1scc(c1Cl)C

>  <HBA2>
2

>  <HBD>
0

>  <logP>
3.0889

>  <TPSA>
45.31

>  <MW>
195.066

$$$$

 OpenBabel02131616352D

 18 19  0  0  0  0  0  0  0  0999 V2000
   -2.4667    0.8125    0.0000 N   0  0  0  0  0  0  0  0  0  0  0  0
   -1.7974    1.2950    0.0000 C   0  0  0  0  0  0  0  0  0  0  0  0
   -2.0542    2.0833    0.0000 C   0  0  0  0  0  0  0  0  0  0  0  0
   -2.8792    2.0833    0.0000 C   0  0  0  0  0  0  0  0  0  0  0  0
   -3.1360    1.2950    0.0000 N   0  0  0  0  0  0  0  0  0  0  0  0
   -2.4667   -0.0125    0.0000 C   0  0  0  0  0  0  0  0  0  0  0  0
   -3.1835   -0.4231    0.0000 C   0  0  0  0  0  0  0  0  0  0  0  0
   -3.1838   -1.2473    0.0000 C   0  0  0  0  0  0  0  0  0  0  0  0
   -2.4688   -1.6607    0.0000 C   0  0  0  0  0  0  0  0  0  0  0  0
   -1.7520   -1.2437    0.0000 C   0  0  0  0  0  0  0  0  0  0  0  0
   -1.7552   -0.4209    0.0000 C   0  0  0  0  0  0  0  0  0  0  0  0
   -1.5695    2.7509    0.0000 C   0  0  0  0  0  0  0  0  0  0  0  0
   -0.7490    2.6650    0.0000 Cl  0  0  0  0  0  0  0  0  0  0  0  0
   -1.9053    3.5045    0.0000 O   0  0  0  0  0  0  0  0  0  0  0  0
   -1.0131    1.0389    0.0000 C   0  0  0  0  0  0  0  0  0  0  0  0
   -0.8428    0.2317    0.0000 F   0  0  0  0  0  0  0  0  0  0  0  0
   -0.3992    1.5900    0.0000 F   0  0  0  0  0  0  0  0  0  0  0  0
   -1.4635    0.3477    0.0000 F   0  0  0  0  0  0  0  0  0  0  0  0
  1  6  1  0  0  0  0
  1  2  1  0  0  0  0
  2  3  2  0  0  0  0
  2 15  1  0  0  0  0
  3 12  1  0  0  0  0
  3  4  1  0  0  0  0
  4  5  2  0  0  0  0
  5  1  1  0  0  0  0
  6  7  2  0  0  0  0
  7  8  1  0  0  0  0
  8  9  2  0  0  0  0
  9 10  1  0  0  0  0
 10 11  2  0  0  0  0
 11  6  1  0  0  0  0
 12 13  1  0  0  0  0
 12 14  2  0  0  0  0
 15 16  1  0  0  0  0
 15 17  1  0  0  0  0
 15 18  1  0  0  0  0
M  END
>  <MOLFORMULA>
C11 H6 Cl F3 N2 O

>  <MOLWEIGHT>
2.746284000000000e+002

>  <code>
GK01494

>  <appearance>
solid

>  <purity>
97%

>  <product_name>
1-phenyl-5-(trifluoromethyl)-1H-pyrazole-4-carbonyl chloride

>  <cansmi>
ClC(=O)c1cnn(c1C(F)(F)F)c1ccccc1

>  <HBA2>
3

>  <HBD>
0

>  <logP>
3.2701

>  <TPSA>
34.89

>  <MW>
274.626

$$$$

 OpenBabel02131616352D

 17 18  0  0  0  0  0  0  0  0999 V2000
   -2.3833   -1.8458    0.0000 N   0  0  0  0  0  0  0  0  0  0  0  0
   -1.7140   -1.3633    0.0000 C   0  0  0  0  0  0  0  0  0  0  0  0
   -1.9708   -0.5750    0.0000 C   0  0  0  0  0  0  0  0  0  0  0  0
   -2.7958   -0.5750    0.0000 C   0  0  0  0  0  0  0  0  0  0  0  0
   -3.0526   -1.3633    0.0000 N   0  0  0  0  0  0  0  0  0  0  0  0
   -2.3833   -2.6708    0.0000 C   0  0  0  0  0  0  0  0  0  0  0  0
   -3.1001   -3.0814    0.0000 C   0  0  0  0  0  0  0  0  0  0  0  0
   -3.1004   -3.9056    0.0000 C   0  0  0  0  0  0  0  0  0  0  0  0
   -2.3854   -4.3190    0.0000 C   0  0  0  0  0  0  0  0  0  0  0  0
   -1.6686   -3.9020    0.0000 C   0  0  0  0  0  0  0  0  0  0  0  0
   -1.6718   -3.0792    0.0000 C   0  0  0  0  0  0  0  0  0  0  0  0
   -1.4861    0.0926    0.0000 C   0  0  0  0  0  0  0  0  0  0  0  0
   -0.6656    0.0067    0.0000 Cl  0  0  0  0  0  0  0  0  0  0  0  0
   -1.8219    0.8462    0.0000 O   0  0  0  0  0  0  0  0  0  0  0  0
   -0.9297   -1.6194    0.0000 C   0  0  0  0  0  0  0  0  0  0  0  0
   -0.3158   -1.0683    0.0000 C   0  0  0  0  0  0  0  0  0  0  0  0
    0.4684   -1.3243    0.0000 C   0  0  0  0  0  0  0  0  0  0  0  0
  1  6  1  0  0  0  0
  1  2  1  0  0  0  0
  2  3  2  0  0  0  0
  2 15  1  0  0  0  0
  3 12  1  0  0  0  0
  3  4  1  0  0  0  0
  4  5  2  0  0  0  0
  5  1  1  0  0  0  0
  6  7  2  0  0  0  0
  7  8  1  0  0  0  0
  8  9  2  0  0  0  0
  9 10  1  0  0  0  0
 10 11  2  0  0  0  0
 11  6  1  0  0  0  0
 12 13  1  0  0  0  0
 12 14  2  0  0  0  0
 15 16  1  0  0  0  0
 16 17  1  0  0  0  0
M  END
>  <MOLFORMULA>
C13 H13 Cl N2 O

>  <MOLWEIGHT>
2.487117000000000e+002

>  <code>
GK01531

>  <appearance>
liquid

>  <purity>
97%

>  <product_name>
1-phenyl-5-propyl-1H-pyrazole-4-carbonyl chloride

>  <cansmi>
CCCc1c(cnn1c1ccccc1)C(=O)Cl

>  <HBA2>
3

>  <HBD>
0

>  <logP>
3.2038

>  <TPSA>
34.89

>  <MW>
248.708

$$$$

 OpenBabel02131616352D

 18 19  0  0  0  0  0  0  0  0999 V2000
   -2.2542   -1.7250    0.0000 N   0  0  0  0  0  0  0  0  0  0  0  0
   -1.5849   -1.2425    0.0000 C   0  0  0  0  0  0  0  0  0  0  0  0
   -1.8417   -0.4542    0.0000 C   0  0  0  0  0  0  0  0  0  0  0  0
   -2.6667   -0.4542    0.0000 C   0  0  0  0  0  0  0  0  0  0  0  0
   -2.9235   -1.2425    0.0000 N   0  0  0  0  0  0  0  0  0  0  0  0
   -2.2542   -2.5500    0.0000 C   0  0  0  0  0  0  0  0  0  0  0  0
   -2.9710   -2.9606    0.0000 C   0  0  0  0  0  0  0  0  0  0  0  0
   -2.9713   -3.7848    0.0000 C   0  0  0  0  0  0  0  0  0  0  0  0
   -2.2563   -4.1982    0.0000 C   0  0  0  0  0  0  0  0  0  0  0  0
   -1.5395   -3.7812    0.0000 C   0  0  0  0  0  0  0  0  0  0  0  0
   -1.5427   -2.9584    0.0000 C   0  0  0  0  0  0  0  0  0  0  0  0
   -1.3570    0.2134    0.0000 C   0  0  0  0  0  0  0  0  0  0  0  0
   -0.5365    0.1275    0.0000 Cl  0  0  0  0  0  0  0  0  0  0  0  0
   -1.6928    0.9670    0.0000 O   0  0  0  0  0  0  0  0  0  0  0  0
   -0.8006   -1.4986    0.0000 C   0  0  0  0  0  0  0  0  0  0  0  0
   -0.1867   -0.9475    0.0000 C   0  0  0  0  0  0  0  0  0  0  0  0
    0.5975   -1.2035    0.0000 C   0  0  0  0  0  0  0  0  0  0  0  0
   -2.2625   -5.0208    0.0000 Cl  0  0  0  0  0  0  0  0  0  0  0  0
  1  6  1  0  0  0  0
  1  2  1  0  0  0  0
  2  3  2  0  0  0  0
  2 15  1  0  0  0  0
  3 12  1  0  0  0  0
  3  4  1  0  0  0  0
  4  5  2  0  0  0  0
  5  1  1  0  0  0  0
  6  7  2  0  0  0  0
  7  8  1  0  0  0  0
  8  9  2  0  0  0  0
  9 10  1  0  0  0  0
  9 18  1  0  0  0  0
 10 11  2  0  0  0  0
 11  6  1  0  0  0  0
 12 13  1  0  0  0  0
 12 14  2  0  0  0  0
 15 16  1  0  0  0  0
 16 17  1  0  0  0  0
M  END
>  <MOLFORMULA>
C13 H12 Cl2 N2 O

>  <MOLWEIGHT>
2.831568000000000e+002

>  <code>
GK01548

>  <appearance>
solid

>  <purity>
97%

>  <product_name>
1-(4-chlorophenyl)-5-propyl-1H-pyrazole-4-carbonyl chloride

>  <cansmi>
CCCc1c(cnn1c1ccc(cc1)Cl)C(=O)Cl

>  <HBA2>
3

>  <HBD>
0

>  <logP>
3.8572

>  <TPSA>
34.89

>  <MW>
283.153

$$$$

 OpenBabel02131616352D

 19 20  0  0  0  0  0  0  0  0999 V2000
   -2.3542   -2.0209    0.0000 N   0  0  0  0  0  0  0  0  0  0  0  0
   -1.6849   -1.5384    0.0000 C   0  0  0  0  0  0  0  0  0  0  0  0
   -1.9417   -0.7501    0.0000 C   0  0  0  0  0  0  0  0  0  0  0  0
   -2.7667   -0.7501    0.0000 C   0  0  0  0  0  0  0  0  0  0  0  0
   -3.0235   -1.5384    0.0000 N   0  0  0  0  0  0  0  0  0  0  0  0
   -2.3542   -2.8459    0.0000 C   0  0  0  0  0  0  0  0  0  0  0  0
   -3.0710   -3.2565    0.0000 C   0  0  0  0  0  0  0  0  0  0  0  0
   -3.0713   -4.0807    0.0000 C   0  0  0  0  0  0  0  0  0  0  0  0
   -2.3563   -4.4941    0.0000 C   0  0  0  0  0  0  0  0  0  0  0  0
   -1.6395   -4.0771    0.0000 C   0  0  0  0  0  0  0  0  0  0  0  0
   -1.6427   -3.2543    0.0000 C   0  0  0  0  0  0  0  0  0  0  0  0
   -1.4570   -0.0825    0.0000 C   0  0  0  0  0  0  0  0  0  0  0  0
   -0.6365   -0.1684    0.0000 Cl  0  0  0  0  0  0  0  0  0  0  0  0
   -1.7928    0.6711    0.0000 O   0  0  0  0  0  0  0  0  0  0  0  0
   -0.9006   -1.7945    0.0000 C   0  0  0  0  0  0  0  0  0  0  0  0
   -0.7303   -2.6017    0.0000 F   0  0  0  0  0  0  0  0  0  0  0  0
   -0.2867   -1.2434    0.0000 F   0  0  0  0  0  0  0  0  0  0  0  0
   -1.3510   -2.4857    0.0000 F   0  0  0  0  0  0  0  0  0  0  0  0
   -2.3552   -5.3191    0.0000 Cl  0  0  0  0  0  0  0  0  0  0  0  0
  1  6  1  0  0  0  0
  1  2  1  0  0  0  0
  2  3  2  0  0  0  0
  2 15  1  0  0  0  0
  3 12  1  0  0  0  0
  3  4  1  0  0  0  0
  4  5  2  0  0  0  0
  5  1  1  0  0  0  0
  6  7  2  0  0  0  0
  7  8  1  0  0  0  0
  8  9  2  0  0  0  0
  9 10  1  0  0  0  0
  9 19  1  0  0  0  0
 10 11  2  0  0  0  0
 11  6  1  0  0  0  0
 12 13  1  0  0  0  0
 12 14  2  0  0  0  0
 15 16  1  0  0  0  0
 15 17  1  0  0  0  0
 15 18  1  0  0  0  0
M  END
>  <MOLFORMULA>
C11 H5 Cl2 F3 N2 O

>  <MOLWEIGHT>
3.090735000000000e+002

>  <code>
GK01565

>  <appearance>
solid

>  <purity>
97%

>  <product_name>
1-(4-chlorophenyl)-5-(trifluoromethyl)-1H-pyrazole-4-carbonyl chloride

>  <cansmi>
Clc1ccc(cc1)n1ncc(c1C(F)(F)F)C(=O)Cl

>  <HBA2>
3

>  <HBD>
0

>  <logP>
3.9235

>  <TPSA>
34.89

>  <MW>
309.071

$$$$

 OpenBabel02131616352D

 21 22  0  0  0  0  0  0  0  0999 V2000
   -0.0750    1.7708    0.0000 C   0  0  0  0  0  0  0  0  0  0  0  0
   -0.0833    3.1333    0.0000 C   0  0  0  0  0  0  0  0  0  0  0  0
   -1.2583    1.0750    0.0000 N   0  0  0  0  0  0  0  0  0  0  0  0
   -2.4500    1.7708    0.0000 N   0  0  0  0  0  0  0  0  0  0  0  0
    1.1167    1.0750    0.0000 C   0  0  0  0  0  0  0  0  0  0  0  0
   -1.2500   -4.4417    0.0000 N   0  0  0  0  0  0  0  0  0  0  0  0
   -2.4500    3.1333    0.0000 C   0  0  0  0  0  0  0  0  0  0  0  0
    1.1042    3.8208    0.0000 C   0  0  0  0  0  0  0  0  0  0  0  0
   -1.2583   -0.2875    0.0000 C   0  0  0  0  0  0  0  0  0  0  0  0
   -1.2583   -3.0167    0.0000 C   0  0  0  0  0  0  0  0  0  0  0  0
   -2.4750   -5.1667    0.0000 O   0  0  0  0  0  0  0  0  0  0  0  0
   -0.0083   -5.1500    0.0000 O   0  0  0  0  0  0  0  0  0  0  0  0
    1.1042    5.1667    0.0000 O   0  0  0  0  0  0  0  0  0  0  0  0
    2.4667    1.5958    0.0000 F   0  0  0  0  0  0  0  0  0  0  0  0
    2.1917    0.4583    0.0000 F   0  0  0  0  0  0  0  0  0  0  0  0
    1.3417   -0.3375    0.0000 F   0  0  0  0  0  0  0  0  0  0  0  0
   -2.4500   -0.9625    0.0000 C   0  0  0  0  0  0  0  0  0  0  0  0
   -0.0750   -0.9625    0.0000 C   0  0  0  0  0  0  0  0  0  0  0  0
   -0.0750   -2.3375    0.0000 C   0  0  0  0  0  0  0  0  0  0  0  0
   -2.4500   -2.3375    0.0000 C   0  0  0  0  0  0  0  0  0  0  0  0
    2.2917    3.1333    0.0000 Cl  0  0  0  0  0  0  0  0  0  0  0  0
  2  1  2  0  0  0  0
  3  1  1  0  0  0  0
  4  3  1  0  0  0  0
  4  7  2  0  0  0  0
  5  1  1  0  0  0  0
  6 10  1  0  0  0  0
  7  2  1  0  0  0  0
  8  2  1  0  0  0  0
  9  3  1  0  0  0  0
 10 19  2  0  0  0  0
 11  6  2  0  0  0  0
 12  6  2  0  0  0  0
 13  8  2  0  0  0  0
 14  5  1  0  0  0  0
 15  5  1  0  0  0  0
 16  5  1  0  0  0  0
 17  9  1  0  0  0  0
 18  9  2  0  0  0  0
 19 18  1  0  0  0  0
 20 17  2  0  0  0  0
 20 10  1  0  0  0  0
 21  8  1  0  0  0  0
M  END
>  <MOLFORMULA>
C11 H5 Cl F3 N3 O3

>  <MOLWEIGHT>
3.196255000000000e+002

>  <code>
GK02134

>  <appearance>
solid

>  <purity>
95%

>  <product_name>
1-(4-nitrophenyl)-5-(trifluoromethyl)-1H-pyrazole-4-carbonyl chloride

>  <cansmi>
ClC(=O)c1cnn(c1C(F)(F)F)c1ccc(cc1)N(=O)=O

>  <HBA2>
3

>  <HBD>
0

>  <logP>
3.7015

>  <TPSA>
80.71

>  <MW>
319.624

$$$$

 OpenBabel02131616352D

 10 10  0  0  0  0  0  0  0  0999 V2000
   -2.7625   -1.0125    0.0000 N   0  0  0  0  0  0  0  0  0  0  0  0
   -2.0932   -0.5301    0.0000 C   0  0  0  0  0  0  0  0  0  0  0  0
   -2.3500    0.2582    0.0000 C   0  0  0  0  0  0  0  0  0  0  0  0
   -3.1750    0.2582    0.0000 C   0  0  0  0  0  0  0  0  0  0  0  0
   -3.4318   -0.5301    0.0000 N   0  0  0  0  0  0  0  0  0  0  0  0
   -2.7625   -1.8375    0.0000 C   0  0  0  0  0  0  0  0  0  0  0  0
   -1.3090   -0.7862    0.0000 Cl  0  0  0  0  0  0  0  0  0  0  0  0
   -1.8653    0.9259    0.0000 C   0  0  0  0  0  0  0  0  0  0  0  0
   -1.0448    0.8400    0.0000 Cl  0  0  0  0  0  0  0  0  0  0  0  0
   -2.2012    1.6795    0.0000 O   0  0  0  0  0  0  0  0  0  0  0  0
  1  2  1  0  0  0  0
  1  6  1  0  0  0  0
  2  7  1  0  0  0  0
  2  3  2  0  0  0  0
  3  4  1  0  0  0  0
  3  8  1  0  0  0  0
  4  5  2  0  0  0  0
  5  1  1  0  0  0  0
  8  9  1  0  0  0  0
  8 10  2  0  0  0  0
M  END
>  <MOLFORMULA>
C5 H4 Cl2 N2 O

>  <MOLWEIGHT>
1.790056000000000e+002

>  <code>
GK03657

>  <appearance>
solid

>  <purity>
95%

>  <product_name>
5-chloro-1-methyl-1H-pyrazole-4-carbonyl chloride

>  <cansmi>
ClC(=O)c1cnn(c1Cl)C

>  <HBA2>
3

>  <HBD>
0

>  <logP>
1.4525

>  <TPSA>
34.89

>  <MW>
179.004

$$$$

 OpenBabel02131616352D

 11 11  0  0  0  0  0  0  0  0999 V2000
   -1.7916   -2.3915    0.0000 S   0  0  0  0  0  0  0  0  0  0  0  0
   -1.1223   -1.9091    0.0000 C   0  0  0  0  0  0  0  0  0  0  0  0
   -1.3791   -1.1208    0.0000 C   0  0  0  0  0  0  0  0  0  0  0  0
   -2.2041   -1.1208    0.0000 C   0  0  0  0  0  0  0  0  0  0  0  0
   -2.4609   -1.9091    0.0000 C   0  0  0  0  0  0  0  0  0  0  0  0
   -2.6888   -0.4531    0.0000 O   0  0  0  0  0  0  0  0  0  0  0  0
   -0.8944   -0.4531    0.0000 C   0  0  0  0  0  0  0  0  0  0  0  0
   -0.0739   -0.5391    0.0000 Cl  0  0  0  0  0  0  0  0  0  0  0  0
   -1.2303    0.3004    0.0000 O   0  0  0  0  0  0  0  0  0  0  0  0
   -3.5093   -0.5390    0.0000 C   0  0  0  0  0  0  0  0  0  0  0  0
   -3.2452   -2.1653    0.0000 Cl  0  0  0  0  0  0  0  0  0  0  0  0
  1  2  1  0  0  0  0
  2  3  2  0  0  0  0
  3  7  1  0  0  0  0
  3  4  1  0  0  0  0
  4  6  1  0  0  0  0
  4  5  2  0  0  0  0
  5  1  1  0  0  0  0
  5 11  1  0  0  0  0
  6 10  1  0  0  0  0
  7  8  1  0  0  0  0
  7  9  2  0  0  0  0
M  END
>  <MOLFORMULA>
C6 H4 Cl2 O2 S

>  <MOLWEIGHT>
2.110676000000000e+002

>  <code>
KM00461

>  <appearance>
solid

>  <purity>
97%

>  <product_name>
5-chloro-4-methoxythiophene-3-carbonyl chloride

>  <cansmi>
COc1c(Cl)scc1C(=O)Cl

>  <HBA2>
3

>  <HBD>
0

>  <logP>
2.7891

>  <TPSA>
54.54

>  <MW>
211.066

$$$$

 OpenBabel02131616352D

 11 11  0  0  0  0  0  0  0  0999 V2000
   -1.4083   -2.8623    0.0000 S   0  0  0  0  0  0  0  0  0  0  0  0
   -0.7390   -2.3799    0.0000 C   0  0  0  0  0  0  0  0  0  0  0  0
   -0.9958   -1.5916    0.0000 C   0  0  0  0  0  0  0  0  0  0  0  0
   -1.8208   -1.5916    0.0000 C   0  0  0  0  0  0  0  0  0  0  0  0
   -2.0776   -2.3799    0.0000 C   0  0  0  0  0  0  0  0  0  0  0  0
   -2.3055   -0.9239    0.0000 O   0  0  0  0  0  0  0  0  0  0  0  0
   -0.5111   -0.9239    0.0000 C   0  0  0  0  0  0  0  0  0  0  0  0
    0.3094   -1.0099    0.0000 Cl  0  0  0  0  0  0  0  0  0  0  0  0
   -0.8470   -0.1704    0.0000 O   0  0  0  0  0  0  0  0  0  0  0  0
   -3.1260   -1.0098    0.0000 C   0  0  0  0  0  0  0  0  0  0  0  0
   -2.8619   -2.6361    0.0000 Br  0  0  0  0  0  0  0  0  0  0  0  0
  1  2  1  0  0  0  0
  2  3  2  0  0  0  0
  3  7  1  0  0  0  0
  3  4  1  0  0  0  0
  4  6  1  0  0  0  0
  4  5  2  0  0  0  0
  5  1  1  0  0  0  0
  5 11  1  0  0  0  0
  6 10  1  0  0  0  0
  7  8  1  0  0  0  0
  7  9  2  0  0  0  0
M  END
>  <MOLFORMULA>
C6 H4 Br Cl O2 S

>  <MOLWEIGHT>
2.555186000000000e+002

>  <code>
KM00621

>  <appearance>
solid

>  <purity>
97%

>  <product_name>
5-bromo-4-methoxythiophene-3-carbonyl chloride

>  <cansmi>
COc1c(Br)scc1C(=O)Cl

>  <HBA2>
3

>  <HBD>
0

>  <logP>
2.8982

>  <TPSA>
54.54

>  <MW>
255.517

$$$$

 OpenBabel02131616352D

 19 20  0  0  0  0  0  0  0  0999 V2000
   -0.1083   -0.6333    0.0000 S   0  0  0  0  0  0  0  0  0  0  0  0
    0.5610   -0.1508    0.0000 C   0  0  0  0  0  0  0  0  0  0  0  0
    0.3042    0.6375    0.0000 C   0  0  0  0  0  0  0  0  0  0  0  0
   -0.5208    0.6375    0.0000 C   0  0  0  0  0  0  0  0  0  0  0  0
   -0.7776   -0.1508    0.0000 C   0  0  0  0  0  0  0  0  0  0  0  0
    1.3452   -0.4069    0.0000 C   0  0  0  0  0  0  0  0  0  0  0  0
    1.5156   -1.2141    0.0000 O   0  0  0  0  0  0  0  0  0  0  0  0
    1.9592    0.1442    0.0000 Cl  0  0  0  0  0  0  0  0  0  0  0  0
    0.7889    1.3051    0.0000 C   0  0  0  0  0  0  0  0  0  0  0  0
   -1.0055    1.3051    0.0000 S   0  0  0  0  0  0  0  0  0  0  0  0
   -1.8260    1.2191    0.0000 C   0  0  0  0  0  0  0  0  0  0  0  0
   -2.3123    1.8848    0.0000 C   0  0  0  0  0  0  0  0  0  0  0  0
   -3.1321    1.7992    0.0000 C   0  0  0  0  0  0  0  0  0  0  0  0
   -3.4686    1.0450    0.0000 C   0  0  0  0  0  0  0  0  0  0  0  0
   -2.9793    0.3755    0.0000 C   0  0  0  0  0  0  0  0  0  0  0  0
   -2.1612    0.4644    0.0000 C   0  0  0  0  0  0  0  0  0  0  0  0
   -1.2250    2.1083    0.0000 O   0  0  0  0  0  0  0  0  0  0  0  0
   -0.2958    1.7250    0.0000 O   0  0  0  0  0  0  0  0  0  0  0  0
   -4.2890    0.9580    0.0000 Cl  0  0  0  0  0  0  0  0  0  0  0  0
  1  2  1  0  0  0  0
  2  6  1  0  0  0  0
  2  3  2  0  0  0  0
  3  4  1  0  0  0  0
  3  9  1  0  0  0  0
  4 10  1  0  0  0  0
  4  5  2  0  0  0  0
  5  1  1  0  0  0  0
  6  7  2  0  0  0  0
  6  8  1  0  0  0  0
 10 11  1  0  0  0  0
 10 17  2  0  0  0  0
 10 18  2  0  0  0  0
 11 12  2  0  0  0  0
 12 13  1  0  0  0  0
 13 14  2  0  0  0  0
 14 15  1  0  0  0  0
 14 19  1  0  0  0  0
 15 16  2  0  0  0  0
 16 11  1  0  0  0  0
M  END
>  <MOLFORMULA>
C12 H8 Cl2 O3 S2

>  <MOLWEIGHT>
3.352302000000000e+002

>  <code>
KM01345

>  <appearance>
solid

>  <purity>
90%

>  <product_name>
4-[(4-chlorophenyl)sulfonyl]-3-methylthiophene-2-carbonyl chloride

>  <cansmi>
Clc1ccc(cc1)S(=O)(=O)c1csc(c1C)C(=O)Cl

>  <HBA2>
4

>  <HBD>
0

>  <logP>
5.0025

>  <TPSA>
87.83

>  <MW>
335.226

$$$$

 OpenBabel02131616352D

 13 13  0  0  0  0  0  0  0  0999 V2000
   -2.9959    0.2210    0.0000 S   0  0  0  0  0  0  0  0  0  0  0  0
   -2.3266    0.7034    0.0000 C   0  0  0  0  0  0  0  0  0  0  0  0
   -2.5834    1.4917    0.0000 C   0  0  0  0  0  0  0  0  0  0  0  0
   -3.4084    1.4917    0.0000 C   0  0  0  0  0  0  0  0  0  0  0  0
   -3.6652    0.7034    0.0000 C   0  0  0  0  0  0  0  0  0  0  0  0
   -2.0987    2.1594    0.0000 Cl  0  0  0  0  0  0  0  0  0  0  0  0
   -3.8931    2.1594    0.0000 S   0  0  0  0  0  0  0  0  0  0  0  0
   -4.7136    2.0734    0.0000 C   0  0  0  0  0  0  0  0  0  0  0  0
   -4.1126    2.9626    0.0000 O   0  0  0  0  0  0  0  0  0  0  0  0
   -3.1001    2.3793    0.0000 O   0  0  0  0  0  0  0  0  0  0  0  0
   -1.5424    0.4472    0.0000 C   0  0  0  0  0  0  0  0  0  0  0  0
   -1.3721   -0.3600    0.0000 O   0  0  0  0  0  0  0  0  0  0  0  0
   -0.9285    0.9983    0.0000 Cl  0  0  0  0  0  0  0  0  0  0  0  0
  1  2  1  0  0  0  0
  2  3  2  0  0  0  0
  2 11  1  0  0  0  0
  3  4  1  0  0  0  0
  3  6  1  0  0  0  0
  4  5  2  0  0  0  0
  4  7  1  0  0  0  0
  5  1  1  0  0  0  0
  7  9  2  0  0  0  0
  7 10  2  0  0  0  0
  7  8  1  0  0  0  0
 11 12  2  0  0  0  0
 11 13  1  0  0  0  0
M  END
>  <MOLFORMULA>
C6 H4 Cl2 O3 S2

>  <MOLWEIGHT>
2.591326000000000e+002

>  <code>
KM02079

>  <appearance>
solid

>  <purity>
97%

>  <product_name>
3-chloro-4-(methylsulfonyl)thiophene-2-carbonyl chloride

>  <cansmi>
ClC(=O)c1scc(c1Cl)S(=O)(=O)C

>  <HBA2>
4

>  <HBD>
0

>  <logP>
3.2648

>  <TPSA>
87.83

>  <MW>
259.13

$$$$

 OpenBabel02131616352D

 15 15  0  0  0  0  0  0  0  0999 V2000
   -1.9876   -1.7957    0.0000 S   0  0  0  0  0  0  0  0  0  0  0  0
   -1.3183   -1.3133    0.0000 C   0  0  0  0  0  0  0  0  0  0  0  0
   -1.5751   -0.5250    0.0000 C   0  0  0  0  0  0  0  0  0  0  0  0
   -2.4001   -0.5250    0.0000 C   0  0  0  0  0  0  0  0  0  0  0  0
   -2.6569   -1.3133    0.0000 C   0  0  0  0  0  0  0  0  0  0  0  0
   -1.0904    0.1427    0.0000 Cl  0  0  0  0  0  0  0  0  0  0  0  0
   -2.8848    0.1427    0.0000 S   0  0  0  0  0  0  0  0  0  0  0  0
   -3.7053    0.0567    0.0000 C   0  0  0  0  0  0  0  0  0  0  0  0
   -3.1043    0.9459    0.0000 O   0  0  0  0  0  0  0  0  0  0  0  0
   -2.0918    0.3626    0.0000 O   0  0  0  0  0  0  0  0  0  0  0  0
   -0.5341   -1.5695    0.0000 C   0  0  0  0  0  0  0  0  0  0  0  0
   -0.3638   -2.3767    0.0000 O   0  0  0  0  0  0  0  0  0  0  0  0
    0.0798   -1.0184    0.0000 Cl  0  0  0  0  0  0  0  0  0  0  0  0
   -4.1900    0.7243    0.0000 C   0  0  0  0  0  0  0  0  0  0  0  0
   -4.0410   -0.6969    0.0000 C   0  0  0  0  0  0  0  0  0  0  0  0
  1  2  1  0  0  0  0
  2 11  1  0  0  0  0
  2  3  2  0  0  0  0
  3  4  1  0  0  0  0
  3  6  1  0  0  0  0
  4  7  1  0  0  0  0
  4  5  2  0  0  0  0
  5  1  1  0  0  0  0
  7 10  2  0  0  0  0
  7  8  1  0  0  0  0
  7  9  2  0  0  0  0
  8 14  1  0  0  0  0
  8 15  1  0  0  0  0
 11 12  2  0  0  0  0
 11 13  1  0  0  0  0
M  END
>  <MOLFORMULA>
C8 H8 Cl2 O3 S2

>  <MOLWEIGHT>
2.871862000000000e+002

>  <code>
KM02851

>  <appearance>
solid

>  <purity>
97%

>  <product_name>
3-chloro-4-(isopropylsulfonyl)thiophene-2-carbonyl chloride

>  <cansmi>
ClC(=O)c1scc(c1Cl)S(=O)(=O)C(C)C

>  <HBA2>
4

>  <HBD>
0

>  <logP>
4.0434

>  <TPSA>
87.83

>  <MW>
287.183

$$$$

 OpenBabel02131616352D

 17 18  0  0  0  0  0  0  0  0999 V2000
    4.3361   -3.6251    0.0000 C   0  0  0  0  0  0  0  0  0  0  0  0
    4.3349   -2.8059    0.0000 C   0  0  0  0  0  0  0  0  0  0  0  0
    5.0456   -2.3973    0.0000 C   0  0  0  0  0  0  0  0  0  0  0  0
    5.7537   -2.8064    0.0000 C   0  0  0  0  0  0  0  0  0  0  0  0
    5.7508   -3.6287    0.0000 C   0  0  0  0  0  0  0  0  0  0  0  0
    5.0438   -4.0378    0.0000 C   0  0  0  0  0  0  0  0  0  0  0  0
    3.6231   -2.3984    0.0000 O   0  0  0  0  0  0  0  0  0  0  0  0
    3.6245   -4.0330    0.0000 O   0  0  0  0  0  0  0  0  0  0  0  0
    3.6241   -4.8496    0.0000 C   0  0  0  0  0  0  0  0  0  0  0  0
    6.4616   -2.3994    0.0000 C   0  0  0  0  0  0  0  0  0  0  0  0
    6.4672   -1.5745    0.0000 O   0  0  0  0  0  0  0  0  0  0  0  0
    7.1762   -2.8091    0.0000 Cl  0  0  0  0  0  0  0  0  0  0  0  0
    3.6175   -1.5526    0.0000 C   0  0  0  0  0  0  0  0  0  0  0  0
    2.9320   -1.0589    0.0000 C   0  0  0  0  0  0  0  0  0  0  0  0
    3.1857   -0.2518    0.0000 C   0  0  0  0  0  0  0  0  0  0  0  0
    4.0357   -0.2462    0.0000 C   0  0  0  0  0  0  0  0  0  0  0  0
    4.3001   -1.0499    0.0000 C   0  0  0  0  0  0  0  0  0  0  0  0
  1  8  1  0  0  0  0
  1  2  2  0  0  0  0
  2  7  1  0  0  0  0
  2  3  1  0  0  0  0
  3  4  2  0  0  0  0
  4 10  1  0  0  0  0
  4  5  1  0  0  0  0
  5  6  2  0  0  0  0
  6  1  1  0  0  0  0
  7 13  1  0  0  0  0
  8  9  1  0  0  0  0
 10 11  2  0  0  0  0
 10 12  1  0  0  0  0
 13 14  1  0  0  0  0
 14 15  1  0  0  0  0
 15 16  1  0  0  0  0
 16 17  1  0  0  0  0
 17 13  1  0  0  0  0
M  END
>  <MOLFORMULA>
C13 H15 Cl O3

>  <MOLWEIGHT>
2.547115000000000e+002

>  <code>
KM09085

>  <appearance>
solid

>  <purity>
97%

>  <product_name>
3-(cyclopentyloxy)-4-methoxybenzoyl chloride

>  <cansmi>
COc1ccc(cc1OC1CCCC1)C(=O)Cl

>  <HBA2>
3

>  <HBD>
0

>  <logP>
3.3956

>  <TPSA>
35.53

>  <MW>
254.709

$$$$

 OpenBabel02131616352D

 15 16  0  0  0  0  0  0  0  0999 V2000
    0.1749    0.3250    0.0000 C   0  0  0  0  0  0  0  0  0  0  0  0
   -1.2459    0.3208    0.0000 C   0  0  0  0  0  0  0  0  0  0  0  0
   -0.5376   -0.0917    0.0000 C   0  0  0  0  0  0  0  0  0  0  0  0
   -1.2459   -1.3168    0.0000 C   0  0  0  0  0  0  0  0  0  0  0  0
   -0.5376   -0.9042    0.0000 C   0  0  0  0  0  0  0  0  0  0  0  0
    0.1749    1.1416    0.0000 O   0  0  0  0  0  0  0  0  0  0  0  0
    0.8832   -0.0917    0.0000 Cl  0  0  0  0  0  0  0  0  0  0  0  0
   -2.7323   -1.1600    0.0000 N   0  0  0  0  0  0  0  0  0  0  0  0
   -3.2119   -0.4979    0.0000 N   0  0  0  0  0  0  0  0  0  0  0  0
   -2.7322    0.1642    0.0000 N   0  0  0  0  0  0  0  0  0  0  0  0
   -1.9542   -0.0917    0.0000 C   0  0  0  0  0  0  0  0  0  0  0  0
   -1.9543   -0.9042    0.0000 C   0  0  0  0  0  0  0  0  0  0  0  0
   -2.9957   -1.9696    0.0000 C   0  0  0  0  0  0  0  0  0  0  0  0
   -2.4229   -2.6077    0.0000 C   0  0  0  0  0  0  0  0  0  0  0  0
   -3.8318   -2.1493    0.0000 C   0  0  0  0  0  0  0  0  0  0  0  0
  1  3  1  0  0  0  0
  2 11  2  0  0  0  0
  3  5  2  0  0  0  0
  3  2  1  0  0  0  0
  4 12  2  0  0  0  0
  5  4  1  0  0  0  0
  6  1  2  0  0  0  0
  7  1  1  0  0  0  0
  8  9  1  0  0  0  0
  8 13  1  0  0  0  0
  9 10  2  0  0  0  0
 10 11  1  0  0  0  0
 11 12  1  0  0  0  0
 12  8  1  0  0  0  0
 13 14  1  0  0  0  0
 13 15  1  0  0  0  0
M  END
>  <MOLFORMULA>
C10 H10 Cl N3 O

>  <MOLWEIGHT>
2.236620000000000e+002

>  <code>
KM10494

>  <appearance>
Solid

>  <purity>
95%

>  <product_name>
1-isopropyl-1H-1,2,3-benzotriazole-5-carbonyl chloride

>  <cansmi>
ClC(=O)c1ccc2c(c1)nnn2C(C)C

>  <HBA2>
4

>  <HBD>
0

>  <logP>
2.3912

>  <TPSA>
47.78

>  <MW>
223.659

$$$$

 OpenBabel02131616352D

 14 15  0  0  0  0  0  0  0  0999 V2000
   -0.2583   -1.7875    0.0000 O   0  0  0  0  0  0  0  0  0  0  0  0
    0.4110   -1.3050    0.0000 C   0  0  0  0  0  0  0  0  0  0  0  0
    0.1542   -0.5167    0.0000 N   0  0  0  0  0  0  0  0  0  0  0  0
   -0.6708   -0.5167    0.0000 N   0  0  0  0  0  0  0  0  0  0  0  0
   -0.9276   -1.3050    0.0000 C   0  0  0  0  0  0  0  0  0  0  0  0
   -1.7119   -1.5611    0.0000 C   0  0  0  0  0  0  0  0  0  0  0  0
   -2.3223   -1.0086    0.0000 C   0  0  0  0  0  0  0  0  0  0  0  0
   -3.1059   -1.2641    0.0000 C   0  0  0  0  0  0  0  0  0  0  0  0
   -3.2768   -2.0721    0.0000 C   0  0  0  0  0  0  0  0  0  0  0  0
   -2.6580   -2.6241    0.0000 C   0  0  0  0  0  0  0  0  0  0  0  0
   -1.8767   -2.3656    0.0000 C   0  0  0  0  0  0  0  0  0  0  0  0
    1.1952   -1.5611    0.0000 C   0  0  0  0  0  0  0  0  0  0  0  0
    1.3655   -2.3683    0.0000 O   0  0  0  0  0  0  0  0  0  0  0  0
    1.8091   -1.0100    0.0000 Cl  0  0  0  0  0  0  0  0  0  0  0  0
  1  2  1  0  0  0  0
  2  3  2  0  0  0  0
  2 12  1  0  0  0  0
  3  4  1  0  0  0  0
  4  5  2  0  0  0  0
  5  1  1  0  0  0  0
  5  6  1  0  0  0  0
  6  7  2  0  0  0  0
  7  8  1  0  0  0  0
  8  9  2  0  0  0  0
  9 10  1  0  0  0  0
 10 11  2  0  0  0  0
 11  6  1  0  0  0  0
 12 13  2  0  0  0  0
 12 14  1  0  0  0  0
M  END
>  <MOLFORMULA>
C9 H5 Cl N2 O2

>  <MOLWEIGHT>
2.086035000000000e+002

>  <code>
MO00074

>  <appearance>
solid

>  <purity>
90%

>  <product_name>
5-phenyl-1,3,4-oxadiazole-2-carbonyl chloride

>  <cansmi>
ClC(=O)c1nnc(o1)c1ccccc1

>  <HBA2>
4

>  <HBD>
0

>  <logP>
2.1156

>  <TPSA>
55.99

>  <MW>
208.601

$$$$

 OpenBabel02131616352D

 18 19  0  0  0  0  0  0  0  0999 V2000
    4.3960   -2.7095    0.0000 N   0  0  0  0  0  0  0  0  0  0  0  0
    7.2300   -4.3756    0.0000 C   0  0  0  0  0  0  0  0  0  0  0  0
    5.1041   -3.1246    0.0000 C   0  0  0  0  0  0  0  0  0  0  0  0
    6.5183   -3.9584    0.0000 C   0  0  0  0  0  0  0  0  0  0  0  0
    7.2198   -5.2004    0.0000 O   0  0  0  0  0  0  0  0  0  0  0  0
    5.0917   -3.9530    0.0000 C   0  0  0  0  0  0  0  0  0  0  0  0
    5.8145   -2.7200    0.0000 C   0  0  0  0  0  0  0  0  0  0  0  0
    6.5191   -3.1330    0.0000 C   0  0  0  0  0  0  0  0  0  0  0  0
    5.8035   -4.3702    0.0000 C   0  0  0  0  0  0  0  0  0  0  0  0
    7.9383   -3.9747    0.0000 Cl  0  0  0  0  0  0  0  0  0  0  0  0
    4.3155   -1.8971    0.0000 N   0  0  0  0  0  0  0  0  0  0  0  0
    3.5125   -1.7210    0.0000 C   0  0  0  0  0  0  0  0  0  0  0  0
    3.0974   -2.4291    0.0000 C   0  0  0  0  0  0  0  0  0  0  0  0
    3.6432   -3.0439    0.0000 C   0  0  0  0  0  0  0  0  0  0  0  0
    3.1723   -0.9403    0.0000 C   0  0  0  0  0  0  0  0  0  0  0  0
    3.6778   -0.2566    0.0000 F   0  0  0  0  0  0  0  0  0  0  0  0
    2.3245   -0.8468    0.0000 F   0  0  0  0  0  0  0  0  0  0  0  0
    4.0144   -0.8127    0.0000 F   0  0  0  0  0  0  0  0  0  0  0  0
  1 11  1  0  0  0  0
  2  4  1  0  0  0  0
  3  1  1  0  0  0  0
  4  8  1  0  0  0  0
  5  2  2  0  0  0  0
  6  3  2  0  0  0  0
  7  3  1  0  0  0  0
  8  7  2  0  0  0  0
  9  6  1  0  0  0  0
  9  4  2  0  0  0  0
 10  2  1  0  0  0  0
 11 12  2  0  0  0  0
 12 13  1  0  0  0  0
 12 15  1  0  0  0  0
 13 14  2  0  0  0  0
 14  1  1  0  0  0  0
 15 16  1  0  0  0  0
 15 17  1  0  0  0  0
 15 18  1  0  0  0  0
M  END
>  <MOLFORMULA>
C11 H6 Cl F3 N2 O

>  <MOLWEIGHT>
2.746284000000000e+002

>  <code>
MO00078

>  <appearance>
liquid

>  <purity>
90%

>  <product_name>
4-[3-(trifluoromethyl)-1H-pyrazol-1-yl]benzoyl chloride

>  <cansmi>
ClC(=O)c1ccc(cc1)n1ccc(n1)C(F)(F)F

>  <HBA2>
3

>  <HBD>
0

>  <logP>
3.2701

>  <TPSA>
34.89

>  <MW>
274.626

$$$$

 OpenBabel02131616352D

 16 17  0  0  0  0  0  0  0  0999 V2000
   -2.2000   -0.7667    0.0000 N   0  0  0  0  0  0  0  0  0  0  0  0
   -2.2000   -1.5875    0.0000 C   0  0  0  0  0  0  0  0  0  0  0  0
   -2.9208   -2.0000    0.0000 C   0  0  0  0  0  0  0  0  0  0  0  0
   -1.4917   -2.0000    0.0000 C   0  0  0  0  0  0  0  0  0  0  0  0
   -2.2084   -3.2333    0.0000 C   0  0  0  0  0  0  0  0  0  0  0  0
   -2.9208   -2.8209    0.0000 C   0  0  0  0  0  0  0  0  0  0  0  0
   -1.4917   -2.8125    0.0000 C   0  0  0  0  0  0  0  0  0  0  0  0
   -1.5387   -0.2805    0.0000 C   0  0  0  0  0  0  0  0  0  0  0  0
   -1.7917    0.4974    0.0000 C   0  0  0  0  0  0  0  0  0  0  0  0
   -2.6125    0.4974    0.0000 C   0  0  0  0  0  0  0  0  0  0  0  0
   -2.8655   -0.2805    0.0000 N   0  0  0  0  0  0  0  0  0  0  0  0
   -0.7249   -0.5479    0.0000 C   0  0  0  0  0  0  0  0  0  0  0  0
   -1.2902    1.1899    0.0000 C   0  0  0  0  0  0  0  0  0  0  0  0
   -0.4363    1.0994    0.0000 Cl  0  0  0  0  0  0  0  0  0  0  0  0
   -1.6260    1.9435    0.0000 O   0  0  0  0  0  0  0  0  0  0  0  0
   -0.7764   -1.5888    0.0000 C   0  0  0  0  0  0  0  0  0  0  0  0
  1  8  1  0  0  0  0
  2  1  1  0  0  0  0
  3  2  2  0  0  0  0
  4  2  1  0  0  0  0
  4 16  1  0  0  0  0
  5  7  1  0  0  0  0
  6  3  1  0  0  0  0
  6  5  2  0  0  0  0
  7  4  2  0  0  0  0
  8  9  2  0  0  0  0
  8 12  1  0  0  0  0
  9 10  1  0  0  0  0
  9 13  1  0  0  0  0
 10 11  2  0  0  0  0
 11  1  1  0  0  0  0
 13 14  1  0  0  0  0
 13 15  2  0  0  0  0
M  END
>  <MOLFORMULA>
C12 H11 Cl N2 O

>  <MOLWEIGHT>
2.346849000000000e+002

>  <code>
MO00313

>  <appearance>
liquid

>  <purity>
97%

>  <product_name>
5-methyl-1-(2-methylphenyl)-1H-pyrazole-4-carbonyl chloride

>  <cansmi>
Cc1ccccc1n1ncc(c1C)C(=O)Cl

>  <HBA2>
3

>  <HBD>
0

>  <logP>
2.8681

>  <TPSA>
34.89

>  <MW>
234.682

$$$$

 OpenBabel02131616352D

 16 17  0  0  0  0  0  0  0  0999 V2000
   -0.2583   -4.8666    0.0000 O   0  0  0  0  0  0  0  0  0  0  0  0
    0.4110   -4.3842    0.0000 C   0  0  0  0  0  0  0  0  0  0  0  0
    0.1542   -3.5959    0.0000 C   0  0  0  0  0  0  0  0  0  0  0  0
   -0.6708   -3.5959    0.0000 C   0  0  0  0  0  0  0  0  0  0  0  0
   -0.9276   -4.3842    0.0000 N   0  0  0  0  0  0  0  0  0  0  0  0
    1.1952   -4.6403    0.0000 C   0  0  0  0  0  0  0  0  0  0  0  0
    0.6389   -2.9282    0.0000 C   0  0  0  0  0  0  0  0  0  0  0  0
    1.4594   -3.0142    0.0000 Cl  0  0  0  0  0  0  0  0  0  0  0  0
    0.3030   -2.1747    0.0000 O   0  0  0  0  0  0  0  0  0  0  0  0
   -1.1555   -2.9282    0.0000 C   0  0  0  0  0  0  0  0  0  0  0  0
   -0.8192   -2.1773    0.0000 C   0  0  0  0  0  0  0  0  0  0  0  0
   -1.3031   -1.5100    0.0000 C   0  0  0  0  0  0  0  0  0  0  0  0
   -2.1245   -1.5956    0.0000 C   0  0  0  0  0  0  0  0  0  0  0  0
   -2.4597   -2.3541    0.0000 C   0  0  0  0  0  0  0  0  0  0  0  0
   -1.9737   -3.0182    0.0000 C   0  0  0  0  0  0  0  0  0  0  0  0
   -2.6101   -0.9286    0.0000 F   0  0  0  0  0  0  0  0  0  0  0  0
  1  2  1  0  0  0  0
  2  6  1  0  0  0  0
  2  3  2  0  0  0  0
  3  4  1  0  0  0  0
  3  7  1  0  0  0  0
  4 10  1  0  0  0  0
  4  5  2  0  0  0  0
  5  1  1  0  0  0  0
  7  8  1  0  0  0  0
  7  9  2  0  0  0  0
 10 11  2  0  0  0  0
 11 12  1  0  0  0  0
 12 13  2  0  0  0  0
 13 14  1  0  0  0  0
 13 16  1  0  0  0  0
 14 15  2  0  0  0  0
 15 10  1  0  0  0  0
M  END
>  <MOLFORMULA>
C11 H7 Cl F N O2

>  <MOLWEIGHT>
2.396323000000000e+002

>  <code>
MO00393

>  <appearance>
solid

>  <purity>
97%

>  <product_name>
3-(4-fluorophenyl)-5-methyl-4-isoxazolecarbonyl chloride

>  <cansmi>
Fc1ccc(cc1)c1noc(c1C(=O)Cl)C

>  <HBA2>
3

>  <HBD>
0

>  <logP>
3.1681

>  <TPSA>
43.1

>  <MW>
239.63

$$$$

 OpenBabel02131616352D

 17 18  0  0  0  0  0  0  0  0999 V2000
   -1.3042   -2.3124    0.0000 O   0  0  0  0  0  0  0  0  0  0  0  0
   -0.6349   -1.8300    0.0000 C   0  0  0  0  0  0  0  0  0  0  0  0
   -0.8917   -1.0417    0.0000 C   0  0  0  0  0  0  0  0  0  0  0  0
   -1.7167   -1.0417    0.0000 C   0  0  0  0  0  0  0  0  0  0  0  0
   -1.9735   -1.8300    0.0000 N   0  0  0  0  0  0  0  0  0  0  0  0
    0.1493   -2.0861    0.0000 C   0  0  0  0  0  0  0  0  0  0  0  0
   -0.4070   -0.3740    0.0000 C   0  0  0  0  0  0  0  0  0  0  0  0
    0.4135   -0.4600    0.0000 Cl  0  0  0  0  0  0  0  0  0  0  0  0
   -0.7429    0.3795    0.0000 O   0  0  0  0  0  0  0  0  0  0  0  0
   -2.2014   -0.3740    0.0000 C   0  0  0  0  0  0  0  0  0  0  0  0
   -1.8651    0.3769    0.0000 C   0  0  0  0  0  0  0  0  0  0  0  0
   -2.3490    1.0442    0.0000 C   0  0  0  0  0  0  0  0  0  0  0  0
   -3.1704    0.9586    0.0000 C   0  0  0  0  0  0  0  0  0  0  0  0
   -3.5056    0.2001    0.0000 C   0  0  0  0  0  0  0  0  0  0  0  0
   -3.0196   -0.4640    0.0000 C   0  0  0  0  0  0  0  0  0  0  0  0
   -3.6560    1.6256    0.0000 O   0  0  0  0  0  0  0  0  0  0  0  0
   -3.3211    2.3796    0.0000 C   0  0  0  0  0  0  0  0  0  0  0  0
  1  2  1  0  0  0  0
  2  6  1  0  0  0  0
  2  3  2  0  0  0  0
  3  4  1  0  0  0  0
  3  7  1  0  0  0  0
  4 10  1  0  0  0  0
  4  5  2  0  0  0  0
  5  1  1  0  0  0  0
  7  8  1  0  0  0  0
  7  9  2  0  0  0  0
 10 11  2  0  0  0  0
 11 12  1  0  0  0  0
 12 13  2  0  0  0  0
 13 14  1  0  0  0  0
 13 16  1  0  0  0  0
 14 15  2  0  0  0  0
 15 10  1  0  0  0  0
 16 17  1  0  0  0  0
M  END
>  <MOLFORMULA>
C12 H10 Cl N O3

>  <MOLWEIGHT>
2.516680000000000e+002

>  <code>
MO00394

>  <appearance>
solid

>  <purity>
97%

>  <product_name>
3-(4-methoxyphenyl)-5-methyl-4-isoxazolecarbonyl chloride

>  <cansmi>
COc1ccc(cc1)c1noc(c1C(=O)Cl)C

>  <HBA2>
4

>  <HBD>
0

>  <logP>
3.0376

>  <TPSA>
52.33

>  <MW>
251.666

$$$$

 OpenBabel02131616352D

 16 17  0  0  0  0  0  0  0  0999 V2000
   -1.3500   -0.2500    0.0000 O   0  0  0  0  0  0  0  0  0  0  0  0
   -0.6807    0.2325    0.0000 C   0  0  0  0  0  0  0  0  0  0  0  0
   -0.9375    1.0208    0.0000 C   0  0  0  0  0  0  0  0  0  0  0  0
   -1.7625    1.0208    0.0000 N   0  0  0  0  0  0  0  0  0  0  0  0
   -2.0193    0.2325    0.0000 C   0  0  0  0  0  0  0  0  0  0  0  0
   -0.4528    1.6884    0.0000 C   0  0  0  0  0  0  0  0  0  0  0  0
    0.3677    1.6025    0.0000 Cl  0  0  0  0  0  0  0  0  0  0  0  0
   -0.7886    2.4420    0.0000 O   0  0  0  0  0  0  0  0  0  0  0  0
    0.1036   -0.0236    0.0000 C   0  0  0  0  0  0  0  0  0  0  0  0
    0.2714   -0.8296    0.0000 C   0  0  0  0  0  0  0  0  0  0  0  0
    1.0548   -1.0858    0.0000 C   0  0  0  0  0  0  0  0  0  0  0  0
    1.6697   -0.5344    0.0000 C   0  0  0  0  0  0  0  0  0  0  0  0
    1.4959    0.2764    0.0000 C   0  0  0  0  0  0  0  0  0  0  0  0
    0.7127    0.5288    0.0000 C   0  0  0  0  0  0  0  0  0  0  0  0
    2.4543   -0.7895    0.0000 O   0  0  0  0  0  0  0  0  0  0  0  0
    2.6257   -1.5965    0.0000 C   0  0  0  0  0  0  0  0  0  0  0  0
  1  2  1  0  0  0  0
  2  9  1  0  0  0  0
  2  3  2  0  0  0  0
  3  4  1  0  0  0  0
  3  6  1  0  0  0  0
  4  5  2  0  0  0  0
  5  1  1  0  0  0  0
  6  8  2  0  0  0  0
  6  7  1  0  0  0  0
  9 10  2  0  0  0  0
 10 11  1  0  0  0  0
 11 12  2  0  0  0  0
 12 13  1  0  0  0  0
 12 15  1  0  0  0  0
 13 14  2  0  0  0  0
 14  9  1  0  0  0  0
 15 16  1  0  0  0  0
M  END
>  <MOLFORMULA>
C11 H8 Cl N O3

>  <MOLWEIGHT>
2.376412000000000e+002

>  <code>
MO00455

>  <appearance>
solid

>  <purity>
97%

>  <product_name>
5-(4-methoxyphenyl)-1,3-oxazole-4-carbonyl chloride

>  <cansmi>
COc1ccc(cc1)c1ocnc1C(=O)Cl

>  <HBA2>
4

>  <HBD>
0

>  <logP>
2.7292

>  <TPSA>
52.33

>  <MW>
237.639

$$$$

 OpenBabel02131616352D

 15 16  0  0  0  0  0  0  0  0999 V2000
   -3.3489    1.4020    0.0000 N   0  0  0  0  0  0  0  0  0  0  0  0
   -2.8077    0.7831    0.0000 C   0  0  0  0  0  0  0  0  0  0  0  0
   -2.0022    0.9399    0.0000 C   0  0  0  0  0  0  0  0  0  0  0  0
   -3.0847    2.1761    0.0000 O   0  0  0  0  0  0  0  0  0  0  0  0
   -4.1545    1.2410    0.0000 O   0  0  0  0  0  0  0  0  0  0  0  0
   -2.5279   -0.6049    0.0000 C   0  0  0  0  0  0  0  0  0  0  0  0
   -3.0693   -0.0005    0.0000 C   0  0  0  0  0  0  0  0  0  0  0  0
   -1.0777   -0.9369    0.0000 S   0  0  0  0  0  0  0  0  0  0  0  0
   -0.4076   -0.4655    0.0000 C   0  0  0  0  0  0  0  0  0  0  0  0
   -0.6491    0.3177    0.0000 C   0  0  0  0  0  0  0  0  0  0  0  0
   -1.4673    0.3290    0.0000 C   0  0  0  0  0  0  0  0  0  0  0  0
   -1.7345   -0.4472    0.0000 C   0  0  0  0  0  0  0  0  0  0  0  0
    0.3983   -0.7400    0.0000 C   0  0  0  0  0  0  0  0  0  0  0  0
    0.5665   -1.5786    0.0000 O   0  0  0  0  0  0  0  0  0  0  0  0
    1.0443   -0.1802    0.0000 Cl  0  0  0  0  0  0  0  0  0  0  0  0
  1  2  1  0  0  0  0
  2  7  1  0  0  0  0
  2  3  2  0  0  0  0
  3 11  1  0  0  0  0
  4  1  2  0  0  0  0
  5  1  2  0  0  0  0
  6 12  1  0  0  0  0
  7  6  2  0  0  0  0
  8  9  1  0  0  0  0
  9 10  2  0  0  0  0
  9 13  1  0  0  0  0
 10 11  1  0  0  0  0
 11 12  2  0  0  0  0
 12  8  1  0  0  0  0
 13 14  2  0  0  0  0
 13 15  1  0  0  0  0
M  END
>  <MOLFORMULA>
C9 H4 Cl N O3 S

>  <MOLWEIGHT>
2.416536000000000e+002

>  <code>
MO00752

>  <appearance>
solid

>  <purity>
97%

>  <product_name>
5-nitro-1-benzothiophene-2-carbonyl chloride

>  <cansmi>
ClC(=O)c1cc2c(s1)ccc(c2)N(=O)=O

>  <HBA2>
2

>  <HBD>
0

>  <logP>
3.7117

>  <TPSA>
91.13

>  <MW>
241.651

$$$$

 OpenBabel02131616352D

 19 20  0  0  0  0  0  0  0  0999 V2000
    1.1000    0.1833    0.0000 S   0  0  0  0  0  0  0  0  0  0  0  0
    1.7693    0.6658    0.0000 C   0  0  0  0  0  0  0  0  0  0  0  0
    1.5125    1.4541    0.0000 C   0  0  0  0  0  0  0  0  0  0  0  0
    0.6875    1.4541    0.0000 N   0  0  0  0  0  0  0  0  0  0  0  0
    0.4307    0.6658    0.0000 C   0  0  0  0  0  0  0  0  0  0  0  0
   -0.3535    0.4097    0.0000 C   0  0  0  0  0  0  0  0  0  0  0  0
   -0.9667    0.9591    0.0000 C   0  0  0  0  0  0  0  0  0  0  0  0
   -1.7503    0.7036    0.0000 C   0  0  0  0  0  0  0  0  0  0  0  0
   -1.9213   -0.1044    0.0000 C   0  0  0  0  0  0  0  0  0  0  0  0
   -1.3024   -0.6564    0.0000 C   0  0  0  0  0  0  0  0  0  0  0  0
   -0.5212   -0.3979    0.0000 C   0  0  0  0  0  0  0  0  0  0  0  0
   -2.7052   -0.3615    0.0000 C   0  0  0  0  0  0  0  0  0  0  0  0
   -3.3198    0.1888    0.0000 F   0  0  0  0  0  0  0  0  0  0  0  0
   -2.8744   -1.1690    0.0000 F   0  0  0  0  0  0  0  0  0  0  0  0
   -2.7507    0.4622    0.0000 F   0  0  0  0  0  0  0  0  0  0  0  0
    1.9972    2.1217    0.0000 C   0  0  0  0  0  0  0  0  0  0  0  0
    2.5535    0.4097    0.0000 C   0  0  0  0  0  0  0  0  0  0  0  0
    3.1675    0.9608    0.0000 Cl  0  0  0  0  0  0  0  0  0  0  0  0
    2.7238   -0.3975    0.0000 O   0  0  0  0  0  0  0  0  0  0  0  0
  1  2  1  0  0  0  0
  2  3  2  0  0  0  0
  2 17  1  0  0  0  0
  3  4  1  0  0  0  0
  3 16  1  0  0  0  0
  4  5  2  0  0  0  0
  5  1  1  0  0  0  0
  5  6  1  0  0  0  0
  6  7  2  0  0  0  0
  7  8  1  0  0  0  0
  8  9  2  0  0  0  0
  9 10  1  0  0  0  0
  9 12  1  0  0  0  0
 10 11  2  0  0  0  0
 11  6  1  0  0  0  0
 12 13  1  0  0  0  0
 12 14  1  0  0  0  0
 12 15  1  0  0  0  0
 17 18  1  0  0  0  0
 17 19  2  0  0  0  0
M  END
>  <MOLFORMULA>
C12 H7 Cl F3 N O S

>  <MOLWEIGHT>
3.057063000000000e+002

>  <code>
MO00856

>  <appearance>
solid

>  <purity>
97%

>  <product_name>
4-methyl-2-[4-(trifluoromethyl)phenyl]-1,3-thiazole-5-carbonyl chloride

>  <cansmi>
ClC(=O)c1sc(nc1C)c1ccc(cc1)C(F)(F)F

>  <HBA2>
3

>  <HBD>
0

>  <logP>
4.5163

>  <TPSA>
58.2

>  <MW>
305.703

$$$$

 OpenBabel02131616352D

 13 14  0  0  0  0  0  0  0  0999 V2000
   -0.2250   -1.8166    0.0000 S   0  0  0  0  0  0  0  0  0  0  0  0
    0.4443   -1.3342    0.0000 C   0  0  0  0  0  0  0  0  0  0  0  0
    0.1875   -0.5459    0.0000 C   0  0  0  0  0  0  0  0  0  0  0  0
   -0.8943   -1.3342    0.0000 C   0  0  0  0  0  0  0  0  0  0  0  0
   -0.6356   -0.5484    0.0000 C   0  0  0  0  0  0  0  0  0  0  0  0
   -1.1862    0.0664    0.0000 C   0  0  0  0  0  0  0  0  0  0  0  0
   -1.9956   -0.1033    0.0000 C   0  0  0  0  0  0  0  0  0  0  0  0
   -2.2514   -0.8933    0.0000 C   0  0  0  0  0  0  0  0  0  0  0  0
   -1.6991   -1.5047    0.0000 C   0  0  0  0  0  0  0  0  0  0  0  0
   -2.5471    0.5103    0.0000 C   0  0  0  0  0  0  0  0  0  0  0  0
    1.2285   -1.5903    0.0000 C   0  0  0  0  0  0  0  0  0  0  0  0
    1.3989   -2.3975    0.0000 O   0  0  0  0  0  0  0  0  0  0  0  0
    1.8425   -1.0391    0.0000 Cl  0  0  0  0  0  0  0  0  0  0  0  0
  1  2  1  0  0  0  0
  2  3  2  0  0  0  0
  2 11  1  0  0  0  0
  3  5  1  0  0  0  0
  4  1  1  0  0  0  0
  4  5  2  0  0  0  0
  5  6  1  0  0  0  0
  6  7  2  0  0  0  0
  7  8  1  0  0  0  0
  7 10  1  0  0  0  0
  8  9  2  0  0  0  0
  9  4  1  0  0  0  0
 11 12  2  0  0  0  0
 11 13  1  0  0  0  0
M  END
>  <MOLFORMULA>
C10 H7 Cl O S

>  <MOLWEIGHT>
2.106833000000000e+002

>  <code>
MO00922

>  <appearance>
solid

>  <purity>
95%

>  <product_name>
5-methyl-1-benzothiophene-2-carbonyl chloride

>  <cansmi>
Cc1ccc2c(c1)cc(s2)C(=O)Cl

>  <HBA2>
2

>  <HBD>
0

>  <logP>
3.5887

>  <TPSA>
45.31

>  <MW>
210.68

$$$$

 OpenBabel02131616352D

 18 19  0  0  0  0  0  0  0  0999 V2000
   -0.0958   -0.0292    0.0000 S   0  0  0  0  0  0  0  0  0  0  0  0
    0.5735    0.4533    0.0000 C   0  0  0  0  0  0  0  0  0  0  0  0
    0.3167    1.2416    0.0000 C   0  0  0  0  0  0  0  0  0  0  0  0
   -0.5083    1.2416    0.0000 N   0  0  0  0  0  0  0  0  0  0  0  0
   -0.7651    0.4533    0.0000 C   0  0  0  0  0  0  0  0  0  0  0  0
    0.8014    1.9092    0.0000 C   0  0  0  0  0  0  0  0  0  0  0  0
    1.6219    1.8233    0.0000 Cl  0  0  0  0  0  0  0  0  0  0  0  0
    0.4655    2.6628    0.0000 O   0  0  0  0  0  0  0  0  0  0  0  0
   -1.5493    0.1972    0.0000 C   0  0  0  0  0  0  0  0  0  0  0  0
   -2.1597    0.7497    0.0000 C   0  0  0  0  0  0  0  0  0  0  0  0
   -2.9433    0.4942    0.0000 C   0  0  0  0  0  0  0  0  0  0  0  0
   -3.1143   -0.3138    0.0000 C   0  0  0  0  0  0  0  0  0  0  0  0
   -2.4954   -0.8658    0.0000 C   0  0  0  0  0  0  0  0  0  0  0  0
   -1.7142   -0.6073    0.0000 C   0  0  0  0  0  0  0  0  0  0  0  0
   -3.8982   -0.5710    0.0000 C   0  0  0  0  0  0  0  0  0  0  0  0
   -4.5128   -0.0206    0.0000 F   0  0  0  0  0  0  0  0  0  0  0  0
   -4.0675   -1.3784    0.0000 F   0  0  0  0  0  0  0  0  0  0  0  0
   -3.9437    0.2528    0.0000 F   0  0  0  0  0  0  0  0  0  0  0  0
  1  2  1  0  0  0  0
  2  3  2  0  0  0  0
  3  4  1  0  0  0  0
  3  6  1  0  0  0  0
  4  5  2  0  0  0  0
  5  9  1  0  0  0  0
  5  1  1  0  0  0  0
  6  7  1  0  0  0  0
  6  8  2  0  0  0  0
  9 10  2  0  0  0  0
 10 11  1  0  0  0  0
 11 12  2  0  0  0  0
 12 13  1  0  0  0  0
 12 15  1  0  0  0  0
 13 14  2  0  0  0  0
 14  9  1  0  0  0  0
 15 16  1  0  0  0  0
 15 17  1  0  0  0  0
 15 18  1  0  0  0  0
M  END
>  <MOLFORMULA>
C11 H5 Cl F3 N O S

>  <MOLWEIGHT>
2.916795000000000e+002

>  <code>
MO07081

>  <appearance>
Solid

>  <purity>
97%

>  <product_name>
2-[4-(trifluoromethyl)phenyl]-1,3-thiazole-4-carbonyl chloride

>  <cansmi>
ClC(=O)c1csc(n1)c1ccc(cc1)C(F)(F)F

>  <HBA2>
3

>  <HBD>
0

>  <logP>
4.2079

>  <TPSA>
58.2

>  <MW>
291.677

$$$$

 OpenBabel02131616352D

 19 20  0  0  0  0  0  0  0  0999 V2000
    5.7083   -1.5875    0.0000 C   0  0  0  0  0  0  0  0  0  0  0  0
    6.3834   -1.9750    0.0000 C   0  0  0  0  0  0  0  0  0  0  0  0
    5.7208   -3.1375    0.0000 C   0  0  0  0  0  0  0  0  0  0  0  0
    6.3834   -2.7583    0.0000 C   0  0  0  0  0  0  0  0  0  0  0  0
    7.0981   -1.5614    0.0000 C   0  0  0  0  0  0  0  0  0  0  0  0
    7.8059   -1.9727    0.0000 Cl  0  0  0  0  0  0  0  0  0  0  0  0
    7.0968   -0.7446    0.0000 O   0  0  0  0  0  0  0  0  0  0  0  0
    5.0332   -2.7584    0.0000 C   0  0  0  0  0  0  0  0  0  0  0  0
    5.0248   -1.9819    0.0000 C   0  0  0  0  0  0  0  0  0  0  0  0
    4.2838   -1.7499    0.0000 N   0  0  0  0  0  0  0  0  0  0  0  0
    3.8341   -2.3831    0.0000 C   0  0  0  0  0  0  0  0  0  0  0  0
    4.2973   -3.0063    0.0000 N   0  0  0  0  0  0  0  0  0  0  0  0
    4.0654   -3.7473    0.0000 C   0  0  0  0  0  0  0  0  0  0  0  0
    3.3076   -3.9170    0.0000 C   0  0  0  0  0  0  0  0  0  0  0  0
    4.5912   -4.3187    0.0000 C   0  0  0  0  0  0  0  0  0  0  0  0
    3.0575   -2.3915    0.0000 C   0  0  0  0  0  0  0  0  0  0  0  0
    2.6620   -1.7232    0.0000 F   0  0  0  0  0  0  0  0  0  0  0  0
    2.6765   -3.0682    0.0000 F   0  0  0  0  0  0  0  0  0  0  0  0
    3.2504   -1.6392    0.0000 F   0  0  0  0  0  0  0  0  0  0  0  0
  1  9  1  0  0  0  0
  2  1  2  0  0  0  0
  2  4  1  0  0  0  0
  2  5  1  0  0  0  0
  3  8  1  0  0  0  0
  4  3  2  0  0  0  0
  5  6  1  0  0  0  0
  5  7  2  0  0  0  0
  8  9  2  0  0  0  0
  9 10  1  0  0  0  0
 10 11  2  0  0  0  0
 11 12  1  0  0  0  0
 11 16  1  0  0  0  0
 12  8  1  0  0  0  0
 12 13  1  0  0  0  0
 13 14  1  0  0  0  0
 13 15  1  0  0  0  0
 16 17  1  0  0  0  0
 16 18  1  0  0  0  0
 16 19  1  0  0  0  0
M  END
>  <MOLFORMULA>
C12 H10 Cl F3 N2 O

>  <MOLWEIGHT>
2.906710000000000e+002

>  <code>
MO07138

>  <appearance>
Solid

>  <purity>
90%

>  <product_name>
1-isopropyl-2-(trifluoromethyl)-1H-benzimidazole-5-carbonyl chloride

>  <cansmi>
ClC(=O)c1ccc2c(c1)nc(n2C(C)C)C(F)(F)F

>  <HBA2>
3

>  <HBD>
0

>  <logP>
4.015

>  <TPSA>
34.89

>  <MW>
290.669

$$$$

 OpenBabel02131616352D

 13 14  0  0  0  0  0  0  0  0999 V2000
   -1.0068    0.0959    0.0000 C   0  0  0  0  0  0  0  0  0  0  0  0
   -1.0057   -0.7315    0.0000 C   0  0  0  0  0  0  0  0  0  0  0  0
   -1.7206   -1.1485    0.0000 C   0  0  0  0  0  0  0  0  0  0  0  0
   -1.7188    0.5087    0.0000 C   0  0  0  0  0  0  0  0  0  0  0  0
   -0.2909   -1.1476    0.0000 Br  0  0  0  0  0  0  0  0  0  0  0  0
   -1.7183    1.3379    0.0000 C   0  0  0  0  0  0  0  0  0  0  0  0
   -2.4366    1.7507    0.0000 O   0  0  0  0  0  0  0  0  0  0  0  0
   -1.0035    1.7498    0.0000 Cl  0  0  0  0  0  0  0  0  0  0  0  0
   -2.4385   -0.7269    0.0000 C   0  0  0  0  0  0  0  0  0  0  0  0
   -2.4378    0.0953    0.0000 C   0  0  0  0  0  0  0  0  0  0  0  0
   -3.2215    0.3498    0.0000 O   0  0  0  0  0  0  0  0  0  0  0  0
   -3.7019   -0.3146    0.0000 C   0  0  0  0  0  0  0  0  0  0  0  0
   -3.2227   -0.9799    0.0000 C   0  0  0  0  0  0  0  0  0  0  0  0
  1  2  2  0  0  0  0
  2  5  1  0  0  0  0
  2  3  1  0  0  0  0
  3  9  2  0  0  0  0
  4  6  1  0  0  0  0
  4  1  1  0  0  0  0
  6  7  2  0  0  0  0
  6  8  1  0  0  0  0
  9 10  1  0  0  0  0
 10  4  2  0  0  0  0
 10 11  1  0  0  0  0
 11 12  1  0  0  0  0
 12 13  1  0  0  0  0
 13  9  1  0  0  0  0
M  END
>  <MOLFORMULA>
C9 H6 Br Cl O2

>  <MOLWEIGHT>
2.615014000000000e+002

>  <code>
MO07140

>  <appearance>
solid

>  <purity>
90%

>  <product_name>
5-Bromo-2,3-dihydrobenzo[b]furan-7-carbonyl chloride

>  <cansmi>
Brc1cc2CCOc2c(c1)C(=O)Cl

>  <HBA2>
2

>  <HBD>
0

>  <logP>
2.763

>  <TPSA>
26.3

>  <MW>
261.5

$$$$

 OpenBabel02131616352D

 13 13  0  0  0  0  0  0  0  0999 V2000
    7.6500   -6.0750    0.0000 C   0  0  0  0  0  0  0  0  0  0  0  0
    4.7792   -6.0625    0.0000 C   0  0  0  0  0  0  0  0  0  0  0  0
    6.9292   -6.4917    0.0000 C   0  0  0  0  0  0  0  0  0  0  0  0
    5.4958   -6.4833    0.0000 C   0  0  0  0  0  0  0  0  0  0  0  0
    6.2167   -6.0667    0.0000 C   0  0  0  0  0  0  0  0  0  0  0  0
    7.6500   -5.2417    0.0000 O   0  0  0  0  0  0  0  0  0  0  0  0
    4.7833   -5.2333    0.0000 O   0  0  0  0  0  0  0  0  0  0  0  0
    8.3667   -6.4917    0.0000 Cl  0  0  0  0  0  0  0  0  0  0  0  0
    4.0583   -6.4708    0.0000 O   0  0  0  0  0  0  0  0  0  0  0  0
    6.9292   -7.3208    0.0000 C   0  0  0  0  0  0  0  0  0  0  0  0
    5.4958   -7.3208    0.0000 C   0  0  0  0  0  0  0  0  0  0  0  0
    6.2167   -7.7375    0.0000 C   0  0  0  0  0  0  0  0  0  0  0  0
    3.3417   -6.0583    0.0000 C   0  0  0  0  0  0  0  0  0  0  0  0
  2  4  1  0  0  0  0
  3  1  1  0  0  0  0
  4  5  2  0  0  0  0
  4 11  1  0  0  0  0
  5  3  1  0  0  0  0
  6  1  2  0  0  0  0
  7  2  2  0  0  0  0
  8  1  1  0  0  0  0
  9  2  1  0  0  0  0
 10  3  2  0  0  0  0
 11 12  2  0  0  0  0
 12 10  1  0  0  0  0
 13  9  1  0  0  0  0
M  END
>  <MOLFORMULA>
C9 H7 Cl O3

>  <MOLWEIGHT>
1.986043000000000e+002

>  <code>
MO07998

>  <appearance>
Liquid

>  <purity>
97%

>  <product_name>
methyl 3-(chloroformyl)benzoate

>  <cansmi>
COC(=O)c1cccc(c1)C(=O)Cl

>  <HBA2>
3

>  <HBD>
0

>  <logP>
1.8522

>  <TPSA>
43.37

>  <MW>
198.603

$$$$

 OpenBabel02131616352D

 14 15  0  0  0  0  0  0  0  0999 V2000
    4.3875   -8.8792    0.0000 C   0  0  0  0  0  0  0  0  0  0  0  0
    2.3042   -8.9000    0.0000 C   0  0  0  0  0  0  0  0  0  0  0  0
    2.8250   -8.5917    0.0000 C   0  0  0  0  0  0  0  0  0  0  0  0
    3.3417   -8.8917    0.0000 C   0  0  0  0  0  0  0  0  0  0  0  0
    4.3917   -9.4792    0.0000 O   0  0  0  0  0  0  0  0  0  0  0  0
    2.3042   -9.5000    0.0000 C   0  0  0  0  0  0  0  0  0  0  0  0
    3.8625   -8.5875    0.0000 C   0  0  0  0  0  0  0  0  0  0  0  0
    2.8292   -9.8000    0.0000 C   0  0  0  0  0  0  0  0  0  0  0  0
    4.9042   -8.5792    0.0000 Cl  0  0  0  0  0  0  0  0  0  0  0  0
    3.3500   -9.4917    0.0000 C   0  0  0  0  0  0  0  0  0  0  0  0
    1.7875   -8.6000    0.0000 C   0  0  0  0  0  0  0  0  0  0  0  0
    1.7875   -9.8042    0.0000 C   0  0  0  0  0  0  0  0  0  0  0  0
    1.2667   -8.9000    0.0000 C   0  0  0  0  0  0  0  0  0  0  0  0
    1.2667   -9.5042    0.0000 C   0  0  0  0  0  0  0  0  0  0  0  0
  2  3  1  0  0  0  0
  3  4  2  0  0  0  0
  4  7  1  0  0  0  0
  5  1  2  0  0  0  0
  6  8  1  0  0  0  0
  6  2  1  0  0  0  0
  7  1  1  0  0  0  0
  8 10  2  0  0  0  0
  9  1  1  0  0  0  0
 10  4  1  0  0  0  0
 11  2  2  0  0  0  0
 12  6  2  0  0  0  0
 13 11  1  0  0  0  0
 14 12  1  0  0  0  0
 14 13  2  0  0  0  0
M  END
>  <MOLFORMULA>
C12 H9 Cl O

>  <MOLWEIGHT>
2.046551000000000e+002

>  <code>
PD00828

>  <appearance>
solid

>  <purity>
97%

>  <product_name>
2-(2-naphthyl)acetyl chloride

>  <cansmi>
ClC(=O)Cc1ccc2c(c1)cccc2

>  <HBA2>
1

>  <HBD>
0

>  <logP>
3.1477

>  <TPSA>
17.07

>  <MW>
204.652

$$$$

 OpenBabel02131616352D

 14 14  0  0  0  0  0  0  0  0999 V2000
    3.7167   -0.0334    0.0000 C   0  0  0  0  0  0  0  0  0  0  0  0
    4.4292    0.3750    0.0000 C   0  0  0  0  0  0  0  0  0  0  0  0
    3.0000    0.3750    0.0000 O   0  0  0  0  0  0  0  0  0  0  0  0
    4.4292    1.2041    0.0000 O   0  0  0  0  0  0  0  0  0  0  0  0
    2.2834   -0.0334    0.0000 C   0  0  0  0  0  0  0  0  0  0  0  0
    5.1459   -0.0334    0.0000 Cl  0  0  0  0  0  0  0  0  0  0  0  0
    0.8542   -0.8667    0.0000 C   0  0  0  0  0  0  0  0  0  0  0  0
    0.1375   -1.2792    0.0000 Cl  0  0  0  0  0  0  0  0  0  0  0  0
    2.2834   -0.8667    0.0000 C   0  0  0  0  0  0  0  0  0  0  0  0
    1.5667    0.3750    0.0000 C   0  0  0  0  0  0  0  0  0  0  0  0
    1.5667   -1.2792    0.0000 C   0  0  0  0  0  0  0  0  0  0  0  0
    0.8542   -0.0334    0.0000 C   0  0  0  0  0  0  0  0  0  0  0  0
    3.2375   -0.5000    0.0000 C   0  0  0  0  0  0  0  0  0  0  0  0
    4.1458   -0.4709    0.0000 C   0  0  0  0  0  0  0  0  0  0  0  0
  2  1  1  0  0  0  0
  3  1  1  0  0  0  0
  4  2  2  0  0  0  0
  5  3  1  0  0  0  0
  6  2  1  0  0  0  0
  7 12  2  0  0  0  0
  7 11  1  0  0  0  0
  8  7  1  0  0  0  0
  9  5  1  0  0  0  0
 10  5  2  0  0  0  0
 11  9  2  0  0  0  0
 12 10  1  0  0  0  0
 13  1  1  0  0  0  0
 14  1  1  0  0  0  0
M  END
>  <MOLFORMULA>
C10 H10 Cl2 O2

>  <MOLWEIGHT>
2.330930000000000e+002

>  <code>
RDP00158

>  <appearance>
liquid

>  <purity>
95%

>  <product_name>
2-(4-chlorophenoxy)-2-methylpropanoyl chloride

>  <cansmi>
Clc1ccc(cc1)OC(C(=O)Cl)(C)C

>  <HBA2>
2

>  <HBD>
0

>  <logP>
3.2628

>  <TPSA>
26.3

>  <MW>
233.091

$$$$

 OpenBabel02131616352D

 14 15  0  0  0  0  0  0  0  0999 V2000
    2.0000    0.0125    0.0000 C   0  0  0  0  0  0  0  0  0  0  0  0
    0.6500    0.7833    0.0000 C   0  0  0  0  0  0  0  0  0  0  0  0
    3.3250    0.7875    0.0000 C   0  0  0  0  0  0  0  0  0  0  0  0
   -0.6833    0.0000    0.0000 C   0  0  0  0  0  0  0  0  0  0  0  0
    0.6625   -2.3167    0.0000 O   0  0  0  0  0  0  0  0  0  0  0  0
   -0.6708   -1.5500    0.0000 C   0  0  0  0  0  0  0  0  0  0  0  0
    2.0042   -1.5375    0.0000 C   0  0  0  0  0  0  0  0  0  0  0  0
   -2.0125    0.7625    0.0000 C   0  0  0  0  0  0  0  0  0  0  0  0
    3.3167    2.3292    0.0000 O   0  0  0  0  0  0  0  0  0  0  0  0
   -2.0083   -2.3167    0.0000 C   0  0  0  0  0  0  0  0  0  0  0  0
    4.6625    0.0333    0.0000 Cl  0  0  0  0  0  0  0  0  0  0  0  0
   -3.3333   -0.0042    0.0000 C   0  0  0  0  0  0  0  0  0  0  0  0
   -3.3375   -1.5542    0.0000 C   0  0  0  0  0  0  0  0  0  0  0  0
   -4.6625    0.7625    0.0000 Cl  0  0  0  0  0  0  0  0  0  0  0  0
  2  1  2  0  0  0  0
  3  1  1  0  0  0  0
  4  2  1  0  0  0  0
  5  7  1  0  0  0  0
  6  5  1  0  0  0  0
  6  4  1  0  0  0  0
  7  1  1  0  0  0  0
  8  4  2  0  0  0  0
  9  3  2  0  0  0  0
 10  6  2  0  0  0  0
 11  3  1  0  0  0  0
 12  8  1  0  0  0  0
 13 10  1  0  0  0  0
 13 12  2  0  0  0  0
 14 12  1  0  0  0  0
M  END
>  <MOLFORMULA>
C10 H6 Cl2 O2

>  <MOLWEIGHT>
2.290614000000000e+002

>  <code>
RDR03724

>  <appearance>
solid

>  <purity>
95%

>  <product_name>
6-chloro-2H-chromene-3-carbonyl chloride

>  <cansmi>
Clc1ccc2c(c1)C=C(CO2)C(=O)Cl

>  <HBA2>
2

>  <HBD>
0

>  <logP>
2.8812

>  <TPSA>
26.3

>  <MW>
229.059

$$$$

 OpenBabel02131616352D

 12 12  0  0  0  0  0  0  0  0999 V2000
    1.3042   -0.0042    0.0000 C   0  0  0  0  0  0  0  0  0  0  0  0
    2.6375    0.7708    0.0000 C   0  0  0  0  0  0  0  0  0  0  0  0
    1.3042   -1.5417    0.0000 C   0  0  0  0  0  0  0  0  0  0  0  0
   -0.0250    0.7708    0.0000 C   0  0  0  0  0  0  0  0  0  0  0  0
    2.6375    2.3083    0.0000 O   0  0  0  0  0  0  0  0  0  0  0  0
   -0.0250   -2.3042    0.0000 C   0  0  0  0  0  0  0  0  0  0  0  0
    3.9542   -0.0042    0.0000 Cl  0  0  0  0  0  0  0  0  0  0  0  0
   -1.3583   -0.0042    0.0000 C   0  0  0  0  0  0  0  0  0  0  0  0
    2.6375   -2.3042    0.0000 Br  0  0  0  0  0  0  0  0  0  0  0  0
   -1.3583   -1.5417    0.0000 C   0  0  0  0  0  0  0  0  0  0  0  0
   -2.6583    0.7458    0.0000 O   0  0  0  0  0  0  0  0  0  0  0  0
   -3.9625    0.0125    0.0000 C   0  0  0  0  0  0  0  0  0  0  0  0
  2  1  1  0  0  0  0
  3  1  1  0  0  0  0
  4  1  2  0  0  0  0
  5  2  2  0  0  0  0
  6  3  2  0  0  0  0
  7  2  1  0  0  0  0
  8  4  1  0  0  0  0
  9  3  1  0  0  0  0
 10  8  2  0  0  0  0
 10  6  1  0  0  0  0
 11  8  1  0  0  0  0
 12 11  1  0  0  0  0
M  END
>  <MOLFORMULA>
C8 H6 Br Cl O2

>  <MOLWEIGHT>
2.494904000000000e+002

>  <code>
RF00407

>  <appearance>
liquid

>  <purity>
97%

>  <product_name>
2-bromo-5-methoxybenzene-1-carbonyl chloride

>  <cansmi>
COc1ccc(c(c1)C(=O)Cl)Br

>  <HBA2>
2

>  <HBD>
0

>  <logP>
2.8367

>  <TPSA>
26.3

>  <MW>
249.489

$$$$

 OpenBabel02131616352D

 14 15  0  0  0  0  0  0  0  0999 V2000
    0.6667   -0.3792    0.0000 C   0  0  0  0  0  0  0  0  0  0  0  0
    2.0083    1.9208    0.0000 C   0  0  0  0  0  0  0  0  0  0  0  0
   -0.6708   -1.1417    0.0000 C   0  0  0  0  0  0  0  0  0  0  0  0
    0.6750    1.1625    0.0000 C   0  0  0  0  0  0  0  0  0  0  0  0
    2.0167    3.4625    0.0000 O   0  0  0  0  0  0  0  0  0  0  0  0
   -0.6750   -2.6875    0.0000 C   0  0  0  0  0  0  0  0  0  0  0  0
    3.3292    1.1583    0.0000 Cl  0  0  0  0  0  0  0  0  0  0  0  0
    1.9917   -1.1542    0.0000 C   0  0  0  0  0  0  0  0  0  0  0  0
    1.9917   -2.6917    0.0000 C   0  0  0  0  0  0  0  0  0  0  0  0
   -2.0000   -0.3750    0.0000 C   0  0  0  0  0  0  0  0  0  0  0  0
    0.6542   -3.4542    0.0000 C   0  0  0  0  0  0  0  0  0  0  0  0
   -2.0000   -3.4542    0.0000 C   0  0  0  0  0  0  0  0  0  0  0  0
   -3.3333   -1.1417    0.0000 C   0  0  0  0  0  0  0  0  0  0  0  0
   -3.3333   -2.6875    0.0000 C   0  0  0  0  0  0  0  0  0  0  0  0
  2  4  1  0  0  0  0
  3  1  1  0  0  0  0
  4  1  1  0  0  0  0
  5  2  2  0  0  0  0
  6  3  1  0  0  0  0
  7  2  1  0  0  0  0
  8  1  2  0  0  0  0
  9  8  1  0  0  0  0
 10  3  2  0  0  0  0
 11  9  2  0  0  0  0
 11  6  1  0  0  0  0
 12  6  2  0  0  0  0
 13 10  1  0  0  0  0
 14 13  2  0  0  0  0
 14 12  1  0  0  0  0
M  END
>  <MOLFORMULA>
C12 H9 Cl O

>  <MOLWEIGHT>
2.046551000000000e+002

>  <code>
S07397

>  <appearance>
liquid

>  <purity>
97%

>  <product_name>
2-(1-naphthyl)ethanoyl chloride

>  <cansmi>
ClC(=O)Cc1cccc2c1cccc2

>  <HBA2>
1

>  <HBD>
0

>  <logP>
3.1477

>  <TPSA>
17.07

>  <MW>
204.652

$$$$

 OpenBabel02131616352D

 17 18  0  0  0  0  0  0  0  0999 V2000
   -1.7500   -1.7541    0.0000 O   0  0  0  0  0  0  0  0  0  0  0  0
   -1.0724   -1.2675    0.0000 C   0  0  0  0  0  0  0  0  0  0  0  0
   -1.3334   -0.4709    0.0000 C   0  0  0  0  0  0  0  0  0  0  0  0
   -2.1667   -0.4709    0.0000 C   0  0  0  0  0  0  0  0  0  0  0  0
   -2.4235   -1.2675    0.0000 N   0  0  0  0  0  0  0  0  0  0  0  0
   -0.2798   -1.5236    0.0000 C   0  0  0  0  0  0  0  0  0  0  0  0
   -2.6555    0.2051    0.0000 C   0  0  0  0  0  0  0  0  0  0  0  0
   -0.8445    0.2051    0.0000 C   0  0  0  0  0  0  0  0  0  0  0  0
   -0.0157    0.1150    0.0000 Cl  0  0  0  0  0  0  0  0  0  0  0  0
   -1.1803    0.8628    0.0000 O   0  0  0  0  0  0  0  0  0  0  0  0
   -2.3150    0.9644    0.0000 C   0  0  0  0  0  0  0  0  0  0  0  0
   -2.8032    1.6358    0.0000 C   0  0  0  0  0  0  0  0  0  0  0  0
   -3.6329    1.5502    0.0000 C   0  0  0  0  0  0  0  0  0  0  0  0
   -3.9723    0.7834    0.0000 C   0  0  0  0  0  0  0  0  0  0  0  0
   -3.4821    0.1110    0.0000 C   0  0  0  0  0  0  0  0  0  0  0  0
   -3.8187   -0.6482    0.0000 Cl  0  0  0  0  0  0  0  0  0  0  0  0
   -1.5959    1.3875    0.0000 Cl  0  0  0  0  0  0  0  0  0  0  0  0
  1  2  1  0  0  0  0
  2  6  1  0  0  0  0
  2  3  2  0  0  0  0
  3  4  1  0  0  0  0
  3  8  1  0  0  0  0
  4  5  2  0  0  0  0
  4  7  1  0  0  0  0
  5  1  1  0  0  0  0
  7 11  2  0  0  0  0
  8  9  1  0  0  0  0
  8 10  2  0  0  0  0
 11 12  1  0  0  0  0
 11 17  1  0  0  0  0
 12 13  2  0  0  0  0
 13 14  1  0  0  0  0
 14 15  2  0  0  0  0
 15  7  1  0  0  0  0
 15 16  1  0  0  0  0
M  END
>  <MOLFORMULA>
C11 H6 Cl3 N O2

>  <MOLWEIGHT>
2.905324000000000e+002

>  <code>
SB00576

>  <appearance>
solid

>  <purity>
97%

>  <product_name>
3-(2,6-dichlorophenyl)-5-methylisoxazole-4-carbonyl chloride

>  <cansmi>
Clc1cccc(c1c1noc(c1C(=O)Cl)C)Cl

>  <HBA2>
3

>  <HBD>
0

>  <logP>
4.3358

>  <TPSA>
43.1

>  <MW>
290.53

$$$$

 OpenBabel02131616352D

 17 18  0  0  0  0  0  0  0  0999 V2000
   -0.8417   -1.6916    0.0000 O   0  0  0  0  0  0  0  0  0  0  0  0
   -0.1641   -1.2050    0.0000 C   0  0  0  0  0  0  0  0  0  0  0  0
   -0.4251   -0.4084    0.0000 C   0  0  0  0  0  0  0  0  0  0  0  0
   -1.2584   -0.4084    0.0000 C   0  0  0  0  0  0  0  0  0  0  0  0
   -1.5152   -1.2050    0.0000 N   0  0  0  0  0  0  0  0  0  0  0  0
    0.6285   -1.4611    0.0000 C   0  0  0  0  0  0  0  0  0  0  0  0
   -1.7472    0.2676    0.0000 C   0  0  0  0  0  0  0  0  0  0  0  0
    0.0638    0.2676    0.0000 C   0  0  0  0  0  0  0  0  0  0  0  0
    0.8926    0.1775    0.0000 Cl  0  0  0  0  0  0  0  0  0  0  0  0
   -0.2720    0.9253    0.0000 O   0  0  0  0  0  0  0  0  0  0  0  0
   -1.4067    1.0269    0.0000 C   0  0  0  0  0  0  0  0  0  0  0  0
   -1.8949    1.6983    0.0000 C   0  0  0  0  0  0  0  0  0  0  0  0
   -2.7246    1.6127    0.0000 C   0  0  0  0  0  0  0  0  0  0  0  0
   -3.0640    0.8459    0.0000 C   0  0  0  0  0  0  0  0  0  0  0  0
   -2.5738    0.1735    0.0000 C   0  0  0  0  0  0  0  0  0  0  0  0
   -2.9104   -0.5857    0.0000 F   0  0  0  0  0  0  0  0  0  0  0  0
   -0.6876    1.4500    0.0000 Cl  0  0  0  0  0  0  0  0  0  0  0  0
  1  2  1  0  0  0  0
  2  6  1  0  0  0  0
  2  3  2  0  0  0  0
  3  4  1  0  0  0  0
  3  8  1  0  0  0  0
  4  5  2  0  0  0  0
  4  7  1  0  0  0  0
  5  1  1  0  0  0  0
  7 11  2  0  0  0  0
  8  9  1  0  0  0  0
  8 10  2  0  0  0  0
 11 12  1  0  0  0  0
 11 17  1  0  0  0  0
 12 13  2  0  0  0  0
 13 14  1  0  0  0  0
 14 15  2  0  0  0  0
 15  7  1  0  0  0  0
 15 16  1  0  0  0  0
M  END
>  <MOLFORMULA>
C11 H6 Cl2 F N O2

>  <MOLWEIGHT>
2.740774000000000e+002

>  <code>
SB00578

>  <appearance>
solid

>  <purity>
97%

>  <product_name>
3-(2-chloro-6-fluorophenyl)-5-methylisoxazole-4-carbonyl chloride

>  <cansmi>
Fc1cccc(c1c1noc(c1C(=O)Cl)C)Cl

>  <HBA2>
3

>  <HBD>
0

>  <logP>
3.8215

>  <TPSA>
43.1

>  <MW>
274.075

$$$$

 OpenBabel02131616352D

  7  7  0  0  0  0  0  0  0  0999 V2000
    0.7667    0.3958    0.0000 C   0  0  0  0  0  0  0  0  0  0  0  0
    0.7417    1.9333    0.0000 O   0  0  0  0  0  0  0  0  0  0  0  0
   -0.5583   -0.3917    0.0000 C   0  0  0  0  0  0  0  0  0  0  0  0
    2.1125   -0.3667    0.0000 Cl  0  0  0  0  0  0  0  0  0  0  0  0
   -2.1208   -1.9042    0.0000 C   0  0  0  0  0  0  0  0  0  0  0  0
   -0.5500   -1.9292    0.0000 C   0  0  0  0  0  0  0  0  0  0  0  0
   -2.1125   -0.3917    0.0000 C   0  0  0  0  0  0  0  0  0  0  0  0
  2  1  2  0  0  0  0
  3  1  1  0  0  0  0
  4  1  1  0  0  0  0
  5  7  1  0  0  0  0
  5  6  1  0  0  0  0
  6  3  1  0  0  0  0
  7  3  1  0  0  0  0
M  END
>  <MOLFORMULA>
C5 H7 Cl O

>  <MOLWEIGHT>
1.185623000000000e+002

>  <code>
SB01065

>  <appearance>
liquid

>  <purity>
90%

>  <product_name>
cyclobutane-1-carbonyl chloride

>  <cansmi>
ClC(=O)C1CCC1

>  <HBA2>
1

>  <HBD>
0

>  <logP>
1.5519

>  <TPSA>
17.07

>  <MW>
118.561

$$$$

 OpenBabel02131616352D

 11 11  0  0  0  0  0  0  0  0999 V2000
    2.6667    0.7750    0.0000 C   0  0  0  0  0  0  0  0  0  0  0  0
    2.6667    2.3125    0.0000 O   0  0  0  0  0  0  0  0  0  0  0  0
    4.0000    0.0000    0.0000 Cl  0  0  0  0  0  0  0  0  0  0  0  0
    1.3292    0.0000    0.0000 C   0  0  0  0  0  0  0  0  0  0  0  0
    0.0000    0.7708    0.0000 C   0  0  0  0  0  0  0  0  0  0  0  0
   -1.3333    0.0000    0.0000 C   0  0  0  0  0  0  0  0  0  0  0  0
   -1.3333   -1.5375    0.0000 C   0  0  0  0  0  0  0  0  0  0  0  0
   -2.6708    0.7708    0.0000 C   0  0  0  0  0  0  0  0  0  0  0  0
   -4.0083    0.0000    0.0000 C   0  0  0  0  0  0  0  0  0  0  0  0
   -2.6708   -2.3042    0.0000 C   0  0  0  0  0  0  0  0  0  0  0  0
   -4.0083   -1.5375    0.0000 C   0  0  0  0  0  0  0  0  0  0  0  0
  2  1  2  0  0  0  0
  3  1  1  0  0  0  0
  4  1  1  0  0  0  0
  5  4  1  0  0  0  0
  6  5  1  0  0  0  0
  7  6  1  0  0  0  0
  8  6  2  0  0  0  0
  9  8  1  0  0  0  0
 10  7  2  0  0  0  0
 11  9  2  0  0  0  0
 11 10  1  0  0  0  0
M  END
>  <MOLFORMULA>
C9 H9 Cl O

>  <MOLWEIGHT>
1.686221000000000e+002

>  <code>
SB01152

>  <appearance>
liquid

>  <purity>
97%

>  <product_name>
3-phenylpropanoyl chloride

>  <cansmi>
ClC(=O)CCc1ccccc1

>  <HBA2>
1

>  <HBD>
0

>  <logP>
2.3846

>  <TPSA>
17.07

>  <MW>
168.62

$$$$

 OpenBabel02131616352D

 14 14  0  0  0  0  0  0  0  0999 V2000
    6.2750  -25.6417    0.0000 C   0  0  0  0  0  0  0  0  0  0  0  0
    5.7542  -24.7375    0.0000 C   0  0  0  0  0  0  0  0  0  0  0  0
    6.2750  -25.0375    0.0000 C   0  0  0  0  0  0  0  0  0  0  0  0
    5.2375  -25.0375    0.0000 C   0  0  0  0  0  0  0  0  0  0  0  0
    5.7542  -25.9417    0.0000 C   0  0  0  0  0  0  0  0  0  0  0  0
    5.2375  -25.6417    0.0000 C   0  0  0  0  0  0  0  0  0  0  0  0
    6.7917  -25.9417    0.0000 C   0  0  0  0  0  0  0  0  0  0  0  0
    6.7875  -26.5417    0.0000 O   0  0  0  0  0  0  0  0  0  0  0  0
    4.7167  -24.7375    0.0000 F   0  0  0  0  0  0  0  0  0  0  0  0
    6.7917  -24.7375    0.0000 F   0  0  0  0  0  0  0  0  0  0  0  0
    5.7542  -24.1375    0.0000 O   0  0  0  0  0  0  0  0  0  0  0  0
    7.3125  -25.6500    0.0000 Cl  0  0  0  0  0  0  0  0  0  0  0  0
    4.7167  -25.9375    0.0000 F   0  0  0  0  0  0  0  0  0  0  0  0
    6.2750  -23.8375    0.0000 C   0  0  0  0  0  0  0  0  0  0  0  0
  2  3  2  0  0  0  0
  2  4  1  0  0  0  0
  3  1  1  0  0  0  0
  4  6  2  0  0  0  0
  5  1  2  0  0  0  0
  6  5  1  0  0  0  0
  7  1  1  0  0  0  0
  8  7  2  0  0  0  0
  9  4  1  0  0  0  0
 10  3  1  0  0  0  0
 11  2  1  0  0  0  0
 12  7  1  0  0  0  0
 13  6  1  0  0  0  0
 14 11  1  0  0  0  0
M  END
>  <MOLFORMULA>
C8 H4 Cl F3 O2

>  <MOLWEIGHT>
2.245646000000000e+002

>  <code>
SB02064

>  <appearance>
liquid

>  <purity>
97%

>  <product_name>
2,4,5-trifluoro-3-methoxybenzoyl chloride

>  <cansmi>
COc1c(F)c(cc(c1F)F)C(=O)Cl

>  <HBA2>
2

>  <HBD>
0

>  <logP>
2.4915

>  <TPSA>
26.3

>  <MW>
224.564

$$$$

 OpenBabel02131616352D

  9  9  0  0  0  0  0  0  0  0999 V2000
    1.0542   -1.3166    0.0000 O   0  0  0  0  0  0  0  0  0  0  0  0
    1.7235   -0.8342    0.0000 C   0  0  0  0  0  0  0  0  0  0  0  0
    1.4667   -0.0459    0.0000 C   0  0  0  0  0  0  0  0  0  0  0  0
    0.6417   -0.0459    0.0000 C   0  0  0  0  0  0  0  0  0  0  0  0
    0.3849   -0.8342    0.0000 C   0  0  0  0  0  0  0  0  0  0  0  0
    1.9513    0.6218    0.0000 C   0  0  0  0  0  0  0  0  0  0  0  0
    2.5077   -1.0903    0.0000 C   0  0  0  0  0  0  0  0  0  0  0  0
    2.6780   -1.8975    0.0000 O   0  0  0  0  0  0  0  0  0  0  0  0
    3.1216   -0.5391    0.0000 Cl  0  0  0  0  0  0  0  0  0  0  0  0
  1  2  1  0  0  0  0
  2  7  1  0  0  0  0
  2  3  2  0  0  0  0
  3  4  1  0  0  0  0
  3  6  1  0  0  0  0
  4  5  2  0  0  0  0
  5  1  1  0  0  0  0
  7  8  2  0  0  0  0
  7  9  1  0  0  0  0
M  END
>  <MOLFORMULA>
C6 H5 Cl O2

>  <MOLWEIGHT>
1.445565000000000e+002

>  <code>
SB02086

>  <appearance>
solid

>  <purity>
97%

>  <product_name>
3-methyl-2-furoyl chloride

>  <cansmi>
ClC(=O)c1occc1C

>  <HBA2>
2

>  <HBD>
0

>  <logP>
1.967

>  <TPSA>
30.21

>  <MW>
144.556

$$$$

 OpenBabel02131616352D

 13 13  0  0  0  0  0  0  0  0999 V2000
    5.7030   -2.3574    0.0000 C   0  0  0  0  0  0  0  0  0  0  0  0
    5.6973   -3.1807    0.0000 C   0  0  0  0  0  0  0  0  0  0  0  0
    4.9733   -3.5933    0.0000 C   0  0  0  0  0  0  0  0  0  0  0  0
    4.9845   -1.9467    0.0000 C   0  0  0  0  0  0  0  0  0  0  0  0
    4.2621   -3.1785    0.0000 C   0  0  0  0  0  0  0  0  0  0  0  0
    4.2677   -2.3552    0.0000 C   0  0  0  0  0  0  0  0  0  0  0  0
    6.4156   -1.9417    0.0000 C   0  0  0  0  0  0  0  0  0  0  0  0
    6.4120   -1.1190    0.0000 O   0  0  0  0  0  0  0  0  0  0  0  0
    3.5546   -1.9368    0.0000 Br  0  0  0  0  0  0  0  0  0  0  0  0
    7.1288   -2.3601    0.0000 Cl  0  0  0  0  0  0  0  0  0  0  0  0
    6.4120   -3.5935    0.0000 C   0  0  0  0  0  0  0  0  0  0  0  0
    4.9697   -4.4201    0.0000 C   0  0  0  0  0  0  0  0  0  0  0  0
    3.5453   -3.5869    0.0000 C   0  0  0  0  0  0  0  0  0  0  0  0
  2  1  2  0  0  0  0
  3  2  1  0  0  0  0
  4  1  1  0  0  0  0
  5  6  1  0  0  0  0
  5  3  2  0  0  0  0
  6  4  2  0  0  0  0
  7  1  1  0  0  0  0
  8  7  2  0  0  0  0
  9  6  1  0  0  0  0
 10  7  1  0  0  0  0
 11  2  1  0  0  0  0
 12  3  1  0  0  0  0
 13  5  1  0  0  0  0
M  END
>  <MOLFORMULA>
C10 H10 Br Cl O

>  <MOLWEIGHT>
2.615450000000000e+002

>  <code>
SB02116

>  <appearance>
solid

>  <purity>
97%

>  <product_name>
5-bromo-2,3,4-trimethylbenzoyl chloride

>  <cansmi>
ClC(=O)c1cc(Br)c(c(c1C)C)C

>  <HBA2>
1

>  <HBD>
0

>  <logP>
3.7533

>  <TPSA>
17.07

>  <MW>
261.543

$$$$

 OpenBabel02131616352D

 18 19  0  0  0  0  0  0  0  0999 V2000
   -2.8458    0.1459    0.0000 S   0  0  0  0  0  0  0  0  0  0  0  0
   -2.1765    0.6283    0.0000 C   0  0  0  0  0  0  0  0  0  0  0  0
   -2.4333    1.4166    0.0000 C   0  0  0  0  0  0  0  0  0  0  0  0
   -3.2583    1.4166    0.0000 C   0  0  0  0  0  0  0  0  0  0  0  0
   -3.5151    0.6283    0.0000 C   0  0  0  0  0  0  0  0  0  0  0  0
   -3.7430    2.0843    0.0000 C   0  0  0  0  0  0  0  0  0  0  0  0
   -4.2993    0.3722    0.0000 C   0  0  0  0  0  0  0  0  0  0  0  0
   -1.3923    0.3722    0.0000 C   0  0  0  0  0  0  0  0  0  0  0  0
   -0.7783    0.9234    0.0000 Cl  0  0  0  0  0  0  0  0  0  0  0  0
   -1.2220   -0.4351    0.0000 O   0  0  0  0  0  0  0  0  0  0  0  0
   -4.9132    0.9233    0.0000 F   0  0  0  0  0  0  0  0  0  0  0  0
   -4.4696   -0.4351    0.0000 F   0  0  0  0  0  0  0  0  0  0  0  0
   -4.3437    1.1960    0.0000 F   0  0  0  0  0  0  0  0  0  0  0  0
   -3.4067    2.8354    0.0000 C   0  0  0  0  0  0  0  0  0  0  0  0
   -3.8906    3.5027    0.0000 C   0  0  0  0  0  0  0  0  0  0  0  0
   -4.7122    3.4171    0.0000 C   0  0  0  0  0  0  0  0  0  0  0  0
   -5.0474    2.6585    0.0000 C   0  0  0  0  0  0  0  0  0  0  0  0
   -4.5614    1.9944    0.0000 C   0  0  0  0  0  0  0  0  0  0  0  0
  1  2  1  0  0  0  0
  2  3  2  0  0  0  0
  2  8  1  0  0  0  0
  3  4  1  0  0  0  0
  4  6  1  0  0  0  0
  4  5  2  0  0  0  0
  5  1  1  0  0  0  0
  5  7  1  0  0  0  0
  6 14  2  0  0  0  0
  7 11  1  0  0  0  0
  7 12  1  0  0  0  0
  7 13  1  0  0  0  0
  8 10  2  0  0  0  0
  8  9  1  0  0  0  0
 14 15  1  0  0  0  0
 15 16  2  0  0  0  0
 16 17  1  0  0  0  0
 17 18  2  0  0  0  0
 18  6  1  0  0  0  0
M  END
>  <MOLFORMULA>
C12 H6 Cl F3 O S

>  <MOLWEIGHT>
2.906914000000000e+002

>  <code>
SEW02869

>  <appearance>
Solid

>  <purity>
97%

>  <product_name>
4-phenyl-5-(trifluoromethyl)-2-thiophenecarbonyl chloride

>  <cansmi>
ClC(=O)c1sc(c(c1)c1ccccc1)C(F)(F)F

>  <HBA2>
2

>  <HBD>
0

>  <logP>
4.8129

>  <TPSA>
45.31

>  <MW>
290.689

$$$$

 OpenBabel02131616352D

  9  9  0  0  0  0  0  0  0  0999 V2000
   -1.2375   -0.4291    0.0000 S   0  0  0  0  0  0  0  0  0  0  0  0
   -0.5682    0.0533    0.0000 C   0  0  0  0  0  0  0  0  0  0  0  0
   -0.8250    0.8416    0.0000 C   0  0  0  0  0  0  0  0  0  0  0  0
   -1.6500    0.8416    0.0000 C   0  0  0  0  0  0  0  0  0  0  0  0
   -1.9068    0.0533    0.0000 C   0  0  0  0  0  0  0  0  0  0  0  0
    0.2160   -0.2028    0.0000 C   0  0  0  0  0  0  0  0  0  0  0  0
    0.8299    0.3484    0.0000 Cl  0  0  0  0  0  0  0  0  0  0  0  0
    0.3864   -1.0100    0.0000 O   0  0  0  0  0  0  0  0  0  0  0  0
   -0.3403    1.5092    0.0000 Br  0  0  0  0  0  0  0  0  0  0  0  0
  1  2  1  0  0  0  0
  2  3  2  0  0  0  0
  2  6  1  0  0  0  0
  3  4  1  0  0  0  0
  3  9  1  0  0  0  0
  4  5  2  0  0  0  0
  5  1  1  0  0  0  0
  6  7  1  0  0  0  0
  6  8  2  0  0  0  0
M  END
>  <MOLFORMULA>
C5 H2 Br Cl O S

>  <MOLWEIGHT>
2.254928000000000e+002

>  <code>
SEW03837

>  <appearance>
solid

>  <purity>
95%

>  <product_name>
3-bromothiophene-2-carbonyl chloride

>  <cansmi>
ClC(=O)c1sccc1Br

>  <HBA2>
2

>  <HBD>
0

>  <logP>
2.8896

>  <TPSA>
45.31

>  <MW>
225.491

$$$$

 OpenBabel02131616352D

 12 12  0  0  0  0  0  0  0  0999 V2000
    0.0000    1.5333    0.0000 C   0  0  0  0  0  0  0  0  0  0  0  0
    2.6625    1.5292    0.0000 C   0  0  0  0  0  0  0  0  0  0  0  0
   -2.6708   -0.0083    0.0000 C   0  0  0  0  0  0  0  0  0  0  0  0
   -2.6667    1.5333    0.0000 C   0  0  0  0  0  0  0  0  0  0  0  0
   -1.3375   -0.7667    0.0000 C   0  0  0  0  0  0  0  0  0  0  0  0
    2.6625   -0.0083    0.0000 O   0  0  0  0  0  0  0  0  0  0  0  0
    1.2500    2.3083    0.0000 C   0  0  0  0  0  0  0  0  0  0  0  0
   -1.3292    2.3042    0.0000 C   0  0  0  0  0  0  0  0  0  0  0  0
    0.0000    0.0000    0.0000 C   0  0  0  0  0  0  0  0  0  0  0  0
    4.0000    2.2958    0.0000 Cl  0  0  0  0  0  0  0  0  0  0  0  0
   -4.0042    2.3042    0.0000 F   0  0  0  0  0  0  0  0  0  0  0  0
   -1.3375   -2.3042    0.0000 F   0  0  0  0  0  0  0  0  0  0  0  0
  2  7  1  0  0  0  0
  3  5  2  0  0  0  0
  4  8  2  0  0  0  0
  4  3  1  0  0  0  0
  5  9  1  0  0  0  0
  6  2  2  0  0  0  0
  7  1  1  0  0  0  0
  8  1  1  0  0  0  0
  9  1  2  0  0  0  0
 10  2  1  0  0  0  0
 11  4  1  0  0  0  0
 12  5  1  0  0  0  0
M  END
>  <MOLFORMULA>
C8 H5 Cl F2 O

>  <MOLWEIGHT>
1.905755000000000e+002

>  <code>
SEW04659

>  <appearance>
liquid

>  <purity>
97%

>  <product_name>
2-(3,5-difluorophenyl)ethanoyl chloride

>  <cansmi>
ClC(=O)Cc1cc(F)cc(c1)F

>  <HBA2>
1

>  <HBD>
0

>  <logP>
2.2727

>  <TPSA>
17.07

>  <MW>
190.575

$$$$

 OpenBabel02131616352D

 13 13  0  0  0  0  0  0  0  0999 V2000
   -1.5375   -1.8500    0.0000 O   0  0  0  0  0  0  0  0  0  0  0  0
   -0.8682   -1.3675    0.0000 C   0  0  0  0  0  0  0  0  0  0  0  0
   -1.1250   -0.5792    0.0000 C   0  0  0  0  0  0  0  0  0  0  0  0
   -1.9500   -0.5792    0.0000 C   0  0  0  0  0  0  0  0  0  0  0  0
   -2.2068   -1.3675    0.0000 C   0  0  0  0  0  0  0  0  0  0  0  0
   -0.0840   -1.6236    0.0000 C   0  0  0  0  0  0  0  0  0  0  0  0
   -2.9910   -1.6236    0.0000 C   0  0  0  0  0  0  0  0  0  0  0  0
   -3.6050   -1.0725    0.0000 C   0  0  0  0  0  0  0  0  0  0  0  0
   -3.1614   -2.4308    0.0000 C   0  0  0  0  0  0  0  0  0  0  0  0
   -3.0354   -0.7998    0.0000 C   0  0  0  0  0  0  0  0  0  0  0  0
   -0.6403    0.0884    0.0000 C   0  0  0  0  0  0  0  0  0  0  0  0
    0.1802    0.0025    0.0000 Cl  0  0  0  0  0  0  0  0  0  0  0  0
   -0.9762    0.8420    0.0000 O   0  0  0  0  0  0  0  0  0  0  0  0
  1  2  1  0  0  0  0
  2  3  2  0  0  0  0
  2  6  1  0  0  0  0
  3  4  1  0  0  0  0
  3 11  1  0  0  0  0
  4  5  2  0  0  0  0
  5  7  1  0  0  0  0
  5  1  1  0  0  0  0
  7  8  1  0  0  0  0
  7  9  1  0  0  0  0
  7 10  1  0  0  0  0
 11 12  1  0  0  0  0
 11 13  2  0  0  0  0
M  END
>  <MOLFORMULA>
C10 H13 Cl O2

>  <MOLWEIGHT>
2.006637000000000e+002

>  <code>
SP00049

>  <appearance>
solid

>  <purity>
97%

>  <product_name>
5-(tert-butyl)-2-methylfuran-3-carbonyl chloride

>  <cansmi>
ClC(=O)c1cc(oc1C)C(C)(C)C

>  <HBA2>
2

>  <HBD>
0

>  <logP>
3.2645

>  <TPSA>
30.21

>  <MW>
200.662

$$$$

 OpenBabel02131616352D

 19 20  0  0  0  0  0  0  0  0999 V2000
   -0.0042   -0.4750    0.0000 O   0  0  0  0  0  0  0  0  0  0  0  0
    0.6651    0.0075    0.0000 C   0  0  0  0  0  0  0  0  0  0  0  0
    0.4083    0.7958    0.0000 C   0  0  0  0  0  0  0  0  0  0  0  0
   -0.4167    0.7958    0.0000 C   0  0  0  0  0  0  0  0  0  0  0  0
   -0.6735    0.0075    0.0000 C   0  0  0  0  0  0  0  0  0  0  0  0
    1.4493   -0.2486    0.0000 C   0  0  0  0  0  0  0  0  0  0  0  0
   -1.4577   -0.2486    0.0000 C   0  0  0  0  0  0  0  0  0  0  0  0
    0.8930    1.4634    0.0000 C   0  0  0  0  0  0  0  0  0  0  0  0
    1.7135    1.3775    0.0000 Cl  0  0  0  0  0  0  0  0  0  0  0  0
    0.5571    2.2170    0.0000 O   0  0  0  0  0  0  0  0  0  0  0  0
    1.6196   -1.0558    0.0000 F   0  0  0  0  0  0  0  0  0  0  0  0
    2.0632    0.3025    0.0000 F   0  0  0  0  0  0  0  0  0  0  0  0
    0.9989   -0.9398    0.0000 F   0  0  0  0  0  0  0  0  0  0  0  0
   -2.0680    0.3039    0.0000 C   0  0  0  0  0  0  0  0  0  0  0  0
   -2.8516    0.0484    0.0000 C   0  0  0  0  0  0  0  0  0  0  0  0
   -3.0225   -0.7596    0.0000 C   0  0  0  0  0  0  0  0  0  0  0  0
   -2.4037   -1.3115    0.0000 C   0  0  0  0  0  0  0  0  0  0  0  0
   -1.6225   -1.0531    0.0000 C   0  0  0  0  0  0  0  0  0  0  0  0
   -3.8064   -1.0167    0.0000 Cl  0  0  0  0  0  0  0  0  0  0  0  0
  1  2  1  0  0  0  0
  2  6  1  0  0  0  0
  2  3  2  0  0  0  0
  3  4  1  0  0  0  0
  3  8  1  0  0  0  0
  4  5  2  0  0  0  0
  5  7  1  0  0  0  0
  5  1  1  0  0  0  0
  6 11  1  0  0  0  0
  6 12  1  0  0  0  0
  6 13  1  0  0  0  0
  7 14  2  0  0  0  0
  8 10  2  0  0  0  0
  8  9  1  0  0  0  0
 14 15  1  0  0  0  0
 15 16  2  0  0  0  0
 16 17  1  0  0  0  0
 16 19  1  0  0  0  0
 17 18  2  0  0  0  0
 18  7  1  0  0  0  0
M  END
>  <MOLFORMULA>
C12 H5 Cl2 F3 O2

>  <MOLWEIGHT>
3.090695000000000e+002

>  <code>
SP00062

>  <appearance>
solid

>  <purity>
97%

>  <product_name>
5-(4-chlorophenyl)-2-(trifluoromethyl)furan-3-carbonyl chloride

>  <cansmi>
Clc1ccc(cc1)c1cc(c(o1)C(F)(F)F)C(=O)Cl

>  <HBA2>
2

>  <HBD>
0

>  <logP>
4.9978

>  <TPSA>
30.21

>  <MW>
309.068

$$$$

 OpenBabel02131616352D

 16 17  0  0  0  0  0  0  0  0999 V2000
    2.7125   -1.0417    0.0000 O   0  0  0  0  0  0  0  0  0  0  0  0
    3.3818   -0.5592    0.0000 C   0  0  0  0  0  0  0  0  0  0  0  0
    3.1250    0.2291    0.0000 C   0  0  0  0  0  0  0  0  0  0  0  0
    2.3000    0.2291    0.0000 C   0  0  0  0  0  0  0  0  0  0  0  0
    2.0432   -0.5592    0.0000 C   0  0  0  0  0  0  0  0  0  0  0  0
    4.1660   -0.8153    0.0000 C   0  0  0  0  0  0  0  0  0  0  0  0
    1.2590   -0.8153    0.0000 C   0  0  0  0  0  0  0  0  0  0  0  0
    3.6097    0.8967    0.0000 C   0  0  0  0  0  0  0  0  0  0  0  0
    4.4302    0.8108    0.0000 Cl  0  0  0  0  0  0  0  0  0  0  0  0
    3.2738    1.6503    0.0000 O   0  0  0  0  0  0  0  0  0  0  0  0
    0.6487   -0.2628    0.0000 C   0  0  0  0  0  0  0  0  0  0  0  0
   -0.1349   -0.5183    0.0000 C   0  0  0  0  0  0  0  0  0  0  0  0
   -0.3058   -1.3263    0.0000 C   0  0  0  0  0  0  0  0  0  0  0  0
    0.3130   -1.8782    0.0000 C   0  0  0  0  0  0  0  0  0  0  0  0
    1.0942   -1.6198    0.0000 C   0  0  0  0  0  0  0  0  0  0  0  0
   -1.0897   -1.5834    0.0000 Cl  0  0  0  0  0  0  0  0  0  0  0  0
  1  2  1  0  0  0  0
  2  6  1  0  0  0  0
  2  3  2  0  0  0  0
  3  4  1  0  0  0  0
  3  8  1  0  0  0  0
  4  5  2  0  0  0  0
  5  7  1  0  0  0  0
  5  1  1  0  0  0  0
  7 11  2  0  0  0  0
  8 10  2  0  0  0  0
  8  9  1  0  0  0  0
 11 12  1  0  0  0  0
 12 13  2  0  0  0  0
 13 14  1  0  0  0  0
 13 16  1  0  0  0  0
 14 15  2  0  0  0  0
 15  7  1  0  0  0  0
M  END
>  <MOLFORMULA>
C12 H8 Cl2 O2

>  <MOLWEIGHT>
2.550992000000000e+002

>  <code>
SP00066

>  <appearance>
solid

>  <purity>
97%

>  <product_name>
5-(4-chlorophenyl)-2-methylfuran-3-carbonyl chloride

>  <cansmi>
Clc1ccc(cc1)c1oc(c(c1)C(=O)Cl)C

>  <HBA2>
2

>  <HBD>
0

>  <logP>
4.2874

>  <TPSA>
30.21

>  <MW>
255.097

$$$$

 OpenBabel02131616352D

 18 20  0  0  0  0  0  0  0  0999 V2000
    0.1708   -0.3958    0.0000 S   0  0  0  0  0  0  0  0  0  0  0  0
    0.8401    0.0866    0.0000 C   0  0  0  0  0  0  0  0  0  0  0  0
    0.5833    0.8749    0.0000 C   0  0  0  0  0  0  0  0  0  0  0  0
   -0.2417    0.8749    0.0000 N   0  0  0  0  0  0  0  0  0  0  0  0
   -0.4985    0.0866    0.0000 C   0  0  0  0  0  0  0  0  0  0  0  0
    1.0680    1.5426    0.0000 C   0  0  0  0  0  0  0  0  0  0  0  0
    1.6244   -0.1695    0.0000 C   0  0  0  0  0  0  0  0  0  0  0  0
    1.7947   -0.9767    0.0000 O   0  0  0  0  0  0  0  0  0  0  0  0
    2.2383    0.3817    0.0000 Cl  0  0  0  0  0  0  0  0  0  0  0  0
   -1.2827   -0.1695    0.0000 C   0  0  0  0  0  0  0  0  0  0  0  0
   -1.8931    0.3831    0.0000 C   0  0  0  0  0  0  0  0  0  0  0  0
   -2.2288   -1.2325    0.0000 C   0  0  0  0  0  0  0  0  0  0  0  0
   -1.4476   -0.9740    0.0000 C   0  0  0  0  0  0  0  0  0  0  0  0
   -2.8477   -0.6805    0.0000 C   0  0  0  0  0  0  0  0  0  0  0  0
   -2.6735    0.1287    0.0000 C   0  0  0  0  0  0  0  0  0  0  0  0
   -3.3893    0.5444    0.0000 C   0  0  0  0  0  0  0  0  0  0  0  0
   -4.0059   -0.0079    0.0000 C   0  0  0  0  0  0  0  0  0  0  0  0
   -3.6711   -0.7649    0.0000 O   0  0  0  0  0  0  0  0  0  0  0  0
  1  2  1  0  0  0  0
  2  7  1  0  0  0  0
  2  3  2  0  0  0  0
  3  4  1  0  0  0  0
  3  6  1  0  0  0  0
  4  5  2  0  0  0  0
  5 10  1  0  0  0  0
  5  1  1  0  0  0  0
  7  9  1  0  0  0  0
  7  8  2  0  0  0  0
 10 11  2  0  0  0  0
 11 15  1  0  0  0  0
 12 13  2  0  0  0  0
 13 10  1  0  0  0  0
 14 12  1  0  0  0  0
 14 15  2  0  0  0  0
 15 16  1  0  0  0  0
 16 17  1  0  0  0  0
 17 18  1  0  0  0  0
 18 14  1  0  0  0  0
M  END
>  <MOLFORMULA>
C13 H10 Cl N O2 S

>  <MOLWEIGHT>
2.797460000000000e+002

>  <code>
SP00240

>  <appearance>
solid

>  <purity>
95%

>  <product_name>
2-(2,3-dihydro-1-benzofuran-5-yl)-4-methyl-1,3-thiazole-5-carbonyl chloride

>  <cansmi>
ClC(=O)c1sc(nc1C)c1ccc2c(c1)CCO2

>  <HBA2>
4

>  <HBD>
0

>  <logP>
3.4324

>  <TPSA>
67.43

>  <MW>
279.742

$$$$

 OpenBabel02131616352D

 17 19  0  0  0  0  0  0  0  0999 V2000
   -0.3375   -0.6500    0.0000 S   0  0  0  0  0  0  0  0  0  0  0  0
    0.3318   -0.1676    0.0000 C   0  0  0  0  0  0  0  0  0  0  0  0
    0.0750    0.6207    0.0000 C   0  0  0  0  0  0  0  0  0  0  0  0
   -0.7500    0.6207    0.0000 N   0  0  0  0  0  0  0  0  0  0  0  0
   -1.0068   -0.1676    0.0000 C   0  0  0  0  0  0  0  0  0  0  0  0
    0.5597    1.2884    0.0000 C   0  0  0  0  0  0  0  0  0  0  0  0
   -1.7910   -0.4237    0.0000 C   0  0  0  0  0  0  0  0  0  0  0  0
   -2.4014    0.1289    0.0000 C   0  0  0  0  0  0  0  0  0  0  0  0
   -2.7371   -1.4867    0.0000 C   0  0  0  0  0  0  0  0  0  0  0  0
   -1.9559   -1.2282    0.0000 C   0  0  0  0  0  0  0  0  0  0  0  0
   -3.3560   -0.9347    0.0000 C   0  0  0  0  0  0  0  0  0  0  0  0
   -3.1818   -0.1255    0.0000 C   0  0  0  0  0  0  0  0  0  0  0  0
   -3.8976    0.2902    0.0000 C   0  0  0  0  0  0  0  0  0  0  0  0
   -4.5142   -0.2621    0.0000 C   0  0  0  0  0  0  0  0  0  0  0  0
   -4.1794   -1.0191    0.0000 O   0  0  0  0  0  0  0  0  0  0  0  0
    1.3802    1.2025    0.0000 Cl  0  0  0  0  0  0  0  0  0  0  0  0
    0.2238    2.0420    0.0000 O   0  0  0  0  0  0  0  0  0  0  0  0
  1  2  1  0  0  0  0
  2  3  2  0  0  0  0
  3  6  1  0  0  0  0
  3  4  1  0  0  0  0
  4  5  2  0  0  0  0
  5  7  1  0  0  0  0
  5  1  1  0  0  0  0
  6 16  1  0  0  0  0
  6 17  2  0  0  0  0
  7  8  2  0  0  0  0
  8 12  1  0  0  0  0
  9 10  2  0  0  0  0
 10  7  1  0  0  0  0
 11  9  1  0  0  0  0
 11 12  2  0  0  0  0
 12 13  1  0  0  0  0
 13 14  1  0  0  0  0
 14 15  1  0  0  0  0
 15 11  1  0  0  0  0
M  END
>  <MOLFORMULA>
C12 H8 Cl N O2 S

>  <MOLWEIGHT>
2.657192000000000e+002

>  <code>
SP00244

>  <appearance>
solid

>  <purity>
95%

>  <product_name>
2-(2,3-dihydro-1-benzofuran-5-yl)-1,3-thiazole-4-carbonyl chloride

>  <cansmi>
ClC(=O)c1csc(n1)c1ccc2c(c1)CCO2

>  <HBA2>
4

>  <HBD>
0

>  <logP>
3.124

>  <TPSA>
67.43

>  <MW>
265.715

$$$$

 OpenBabel02131616352D

 19 20  0  0  0  0  0  0  0  0999 V2000
    5.0917  -18.4292    0.0000 N   0  0  0  0  0  0  0  0  0  0  0  0
    5.6125  -17.5292    0.0000 C   0  0  0  0  0  0  0  0  0  0  0  0
    5.6042  -18.1292    0.0000 C   0  0  0  0  0  0  0  0  0  0  0  0
    4.5750  -18.1250    0.0000 N   0  0  0  0  0  0  0  0  0  0  0  0
    5.0917  -19.0292    0.0000 C   0  0  0  0  0  0  0  0  0  0  0  0
    4.5750  -17.5250    0.0000 C   0  0  0  0  0  0  0  0  0  0  0  0
    6.1292  -17.2250    0.0000 C   0  0  0  0  0  0  0  0  0  0  0  0
    4.5667  -19.3292    0.0000 C   0  0  0  0  0  0  0  0  0  0  0  0
    5.6042  -19.3292    0.0000 C   0  0  0  0  0  0  0  0  0  0  0  0
    5.6042  -19.9250    0.0000 C   0  0  0  0  0  0  0  0  0  0  0  0
    4.5667  -19.9292    0.0000 C   0  0  0  0  0  0  0  0  0  0  0  0
    5.0875  -20.2292    0.0000 C   0  0  0  0  0  0  0  0  0  0  0  0
    6.1167  -16.6250    0.0000 O   0  0  0  0  0  0  0  0  0  0  0  0
    6.6500  -17.5167    0.0000 Cl  0  0  0  0  0  0  0  0  0  0  0  0
    6.1292  -18.4292    0.0000 C   0  0  0  0  0  0  0  0  0  0  0  0
    6.1292  -20.2250    0.0000 Cl  0  0  0  0  0  0  0  0  0  0  0  0
    4.0417  -20.2250    0.0000 Cl  0  0  0  0  0  0  0  0  0  0  0  0
    6.6500  -18.1292    0.0000 C   0  0  0  0  0  0  0  0  0  0  0  0
    7.1667  -18.4292    0.0000 C   0  0  0  0  0  0  0  0  0  0  0  0
  2  3  2  0  0  0  0
  2  6  1  0  0  0  0
  3  1  1  0  0  0  0
  4  1  1  0  0  0  0
  5  1  1  0  0  0  0
  6  4  2  0  0  0  0
  7  2  1  0  0  0  0
  8  5  2  0  0  0  0
  9  5  1  0  0  0  0
 10  9  2  0  0  0  0
 11  8  1  0  0  0  0
 11 12  2  0  0  0  0
 12 10  1  0  0  0  0
 13  7  2  0  0  0  0
 14  7  1  0  0  0  0
 15  3  1  0  0  0  0
 16 10  1  0  0  0  0
 17 11  1  0  0  0  0
 18 15  1  0  0  0  0
 19 18  1  0  0  0  0
M  END
>  <MOLFORMULA>
C13 H11 Cl3 N2 O

>  <MOLWEIGHT>
3.176019000000000e+002

>  <code>
SP01491

>  <appearance>
liquid

>  <purity>
97%

>  <product_name>
1-(3,5-dichlorophenyl)-5-propyl-1H-pyrazole-4-carbonyl chloride

>  <cansmi>
CCCc1c(cnn1c1cc(Cl)cc(c1)Cl)C(=O)Cl

>  <HBA2>
3

>  <HBD>
0

>  <logP>
4.5106

>  <TPSA>
34.89

>  <MW>
317.598

$$$$

 OpenBabel02131616352D

 17 18  0  0  0  0  0  0  0  0999 V2000
   -0.3500   -0.6333    0.0000 S   0  0  0  0  0  0  0  0  0  0  0  0
    0.3193   -0.1508    0.0000 C   0  0  0  0  0  0  0  0  0  0  0  0
    0.0625    0.6375    0.0000 C   0  0  0  0  0  0  0  0  0  0  0  0
   -0.7625    0.6375    0.0000 N   0  0  0  0  0  0  0  0  0  0  0  0
   -1.0193   -0.1508    0.0000 C   0  0  0  0  0  0  0  0  0  0  0  0
   -1.8035   -0.4069    0.0000 C   0  0  0  0  0  0  0  0  0  0  0  0
    0.5472    1.3051    0.0000 C   0  0  0  0  0  0  0  0  0  0  0  0
    1.3677    1.2192    0.0000 Cl  0  0  0  0  0  0  0  0  0  0  0  0
    0.2114    2.0587    0.0000 O   0  0  0  0  0  0  0  0  0  0  0  0
   -2.4175    0.1442    0.0000 C   0  0  0  0  0  0  0  0  0  0  0  0
   -2.2453    0.9504    0.0000 C   0  0  0  0  0  0  0  0  0  0  0  0
   -2.8584    1.5013    0.0000 C   0  0  0  0  0  0  0  0  0  0  0  0
   -3.6436    1.2453    0.0000 C   0  0  0  0  0  0  0  0  0  0  0  0
   -3.8122    0.4334    0.0000 C   0  0  0  0  0  0  0  0  0  0  0  0
   -3.1978   -0.1139    0.0000 C   0  0  0  0  0  0  0  0  0  0  0  0
   -1.4607    1.2054    0.0000 Cl  0  0  0  0  0  0  0  0  0  0  0  0
   -3.3650   -0.9218    0.0000 Cl  0  0  0  0  0  0  0  0  0  0  0  0
  1  2  1  0  0  0  0
  2  3  2  0  0  0  0
  3  4  1  0  0  0  0
  3  7  1  0  0  0  0
  4  5  2  0  0  0  0
  5  1  1  0  0  0  0
  5  6  1  0  0  0  0
  6 10  1  0  0  0  0
  7  8  1  0  0  0  0
  7  9  2  0  0  0  0
 10 11  2  0  0  0  0
 11 12  1  0  0  0  0
 11 16  1  0  0  0  0
 12 13  2  0  0  0  0
 13 14  1  0  0  0  0
 14 15  2  0  0  0  0
 15 10  1  0  0  0  0
 15 17  1  0  0  0  0
M  END
>  <MOLFORMULA>
C11 H6 Cl3 N O S

>  <MOLWEIGHT>
3.065994000000000e+002

>  <code>
SPB02063

>  <appearance>
solid

>  <purity>
97%

>  <product_name>
2-(2,6-dichlorobenzyl)-1,3-thiazole-4-carbonyl chloride

>  <cansmi>
Clc1cccc(c1Cc1scc(n1)C(=O)Cl)Cl

>  <HBA2>
3

>  <HBD>
0

>  <logP>
4.4197

>  <TPSA>
58.2

>  <MW>
306.595

$$$$

 OpenBabel02131616352D

 16 17  0  0  0  0  0  0  0  0999 V2000
    0.1083   -0.1666    0.0000 S   0  0  0  0  0  0  0  0  0  0  0  0
    0.7776    0.3159    0.0000 C   0  0  0  0  0  0  0  0  0  0  0  0
    0.5208    1.1042    0.0000 C   0  0  0  0  0  0  0  0  0  0  0  0
   -0.3042    1.1042    0.0000 N   0  0  0  0  0  0  0  0  0  0  0  0
   -0.5610    0.3159    0.0000 C   0  0  0  0  0  0  0  0  0  0  0  0
   -1.3452    0.0598    0.0000 C   0  0  0  0  0  0  0  0  0  0  0  0
   -1.9556    0.6123    0.0000 C   0  0  0  0  0  0  0  0  0  0  0  0
   -2.7392    0.3568    0.0000 C   0  0  0  0  0  0  0  0  0  0  0  0
   -2.9102   -0.4512    0.0000 C   0  0  0  0  0  0  0  0  0  0  0  0
   -2.2913   -1.0032    0.0000 C   0  0  0  0  0  0  0  0  0  0  0  0
   -1.5101   -0.7447    0.0000 C   0  0  0  0  0  0  0  0  0  0  0  0
    1.0055    1.7718    0.0000 C   0  0  0  0  0  0  0  0  0  0  0  0
    0.6697    2.5253    0.0000 O   0  0  0  0  0  0  0  0  0  0  0  0
    1.8260    1.6858    0.0000 Cl  0  0  0  0  0  0  0  0  0  0  0  0
   -1.7834    1.4191    0.0000 Cl  0  0  0  0  0  0  0  0  0  0  0  0
   -3.3528    0.9082    0.0000 Cl  0  0  0  0  0  0  0  0  0  0  0  0
  1  2  1  0  0  0  0
  2  3  2  0  0  0  0
  3  4  1  0  0  0  0
  3 12  1  0  0  0  0
  4  5  2  0  0  0  0
  5  6  1  0  0  0  0
  5  1  1  0  0  0  0
  6  7  2  0  0  0  0
  7  8  1  0  0  0  0
  7 15  1  0  0  0  0
  8  9  2  0  0  0  0
  8 16  1  0  0  0  0
  9 10  1  0  0  0  0
 10 11  2  0  0  0  0
 11  6  1  0  0  0  0
 12 13  2  0  0  0  0
 12 14  1  0  0  0  0
M  END
>  <MOLFORMULA>
C10 H4 Cl3 N O S

>  <MOLWEIGHT>
2.925726000000000e+002

>  <code>
SPB02184

>  <appearance>
Solid

>  <purity>
97%

>  <product_name>
2-(2,3-dichlorophenyl)-1,3-thiazole-4-carbonyl chloride

>  <cansmi>
ClC(=O)c1csc(n1)c1cccc(c1Cl)Cl

>  <HBA2>
3

>  <HBD>
0

>  <logP>
4.4959

>  <TPSA>
58.2

>  <MW>
292.569

$$$$

 OpenBabel02131616352D

 12 12  0  0  0  0  0  0  0  0999 V2000
   -1.9417    1.3834    0.0000 N   0  0  0  0  0  0  0  0  0  0  0  0
   -1.2724    1.8658    0.0000 C   0  0  0  0  0  0  0  0  0  0  0  0
   -1.5292    2.6541    0.0000 C   0  0  0  0  0  0  0  0  0  0  0  0
   -2.3542    2.6541    0.0000 C   0  0  0  0  0  0  0  0  0  0  0  0
   -2.6110    1.8658    0.0000 N   0  0  0  0  0  0  0  0  0  0  0  0
   -2.8388    3.3218    0.0000 C   0  0  0  0  0  0  0  0  0  0  0  0
   -1.9417    0.5584    0.0000 C   0  0  0  0  0  0  0  0  0  0  0  0
   -2.6561    0.1459    0.0000 C   0  0  0  0  0  0  0  0  0  0  0  0
   -0.4881    1.6097    0.0000 C   0  0  0  0  0  0  0  0  0  0  0  0
   -0.3178    0.8025    0.0000 O   0  0  0  0  0  0  0  0  0  0  0  0
    0.1258    2.1609    0.0000 Cl  0  0  0  0  0  0  0  0  0  0  0  0
   -1.0445    3.3218    0.0000 Br  0  0  0  0  0  0  0  0  0  0  0  0
  1  7  1  0  0  0  0
  1  2  1  0  0  0  0
  2  3  2  0  0  0  0
  2  9  1  0  0  0  0
  3  4  1  0  0  0  0
  3 12  1  0  0  0  0
  4  6  1  0  0  0  0
  4  5  2  0  0  0  0
  5  1  1  0  0  0  0
  7  8  1  0  0  0  0
  9 10  2  0  0  0  0
  9 11  1  0  0  0  0
M  END
>  <MOLFORMULA>
C7 H8 Br Cl N2 O

>  <MOLWEIGHT>
2.515102000000000e+002

>  <code>
SPB02764

>  <appearance>
liquid

>  <purity>
TECH

>  <product_name>
4-bromo-1-ethyl-3-methyl-1H-pyrazole-5-carbonyl chloride

>  <cansmi>
CCn1nc(c(c1C(=O)Cl)Br)C

>  <HBA2>
3

>  <HBD>
0

>  <logP>
2.3529

>  <TPSA>
34.89

>  <MW>
251.508

$$$$

 OpenBabel02131616352D

 19 20  0  0  0  0  0  0  0  0999 V2000
   -1.6625   -0.7750    0.0000 N   0  0  0  0  0  0  0  0  0  0  0  0
   -0.9974   -0.2925    0.0000 C   0  0  0  0  0  0  0  0  0  0  0  0
   -1.2500    0.4917    0.0000 C   0  0  0  0  0  0  0  0  0  0  0  0
   -2.0709    0.4917    0.0000 C   0  0  0  0  0  0  0  0  0  0  0  0
   -2.3277   -0.2925    0.0000 N   0  0  0  0  0  0  0  0  0  0  0  0
   -1.6625   -1.5958    0.0000 C   0  0  0  0  0  0  0  0  0  0  0  0
   -2.3728   -2.0041    0.0000 C   0  0  0  0  0  0  0  0  0  0  0  0
   -0.2173   -0.5486    0.0000 C   0  0  0  0  0  0  0  0  0  0  0  0
   -0.0470   -1.3517    0.0000 O   0  0  0  0  0  0  0  0  0  0  0  0
    0.3966   -0.0016    0.0000 Cl  0  0  0  0  0  0  0  0  0  0  0  0
   -2.5555    1.1551    0.0000 C   0  0  0  0  0  0  0  0  0  0  0  0
   -2.8405    2.0086    0.0000 C   0  0  0  0  0  0  0  0  0  0  0  0
   -3.3718    1.0692    0.0000 C   0  0  0  0  0  0  0  0  0  0  0  0
   -1.7893    1.4463    0.0000 C   0  0  0  0  0  0  0  0  0  0  0  0
   -3.0837   -1.5945    0.0000 C   0  0  0  0  0  0  0  0  0  0  0  0
   -3.7934   -2.0022    0.0000 C   0  0  0  0  0  0  0  0  0  0  0  0
   -3.7939   -2.8239    0.0000 C   0  0  0  0  0  0  0  0  0  0  0  0
   -3.0786   -3.2363    0.0000 C   0  0  0  0  0  0  0  0  0  0  0  0
   -2.3718   -2.8221    0.0000 C   0  0  0  0  0  0  0  0  0  0  0  0
  1  6  1  0  0  0  0
  1  2  1  0  0  0  0
  2  3  2  0  0  0  0
  2  8  1  0  0  0  0
  3  4  1  0  0  0  0
  4 11  1  0  0  0  0
  4  5  2  0  0  0  0
  5  1  1  0  0  0  0
  6  7  1  0  0  0  0
  7 15  2  0  0  0  0
  8 10  1  0  0  0  0
  8  9  2  0  0  0  0
 11 12  1  0  0  0  0
 11 13  1  0  0  0  0
 11 14  1  0  0  0  0
 15 16  1  0  0  0  0
 16 17  2  0  0  0  0
 17 18  1  0  0  0  0
 18 19  2  0  0  0  0
 19  7  1  0  0  0  0
M  END
>  <MOLFORMULA>
C15 H17 Cl N2 O

>  <MOLWEIGHT>
2.767653000000000e+002

>  <code>
SPB03039

>  <appearance>
liquid

>  <purity>
95%

>  <product_name>
1-benzyl-3-(tert-butyl)-1H-pyrazole-5-carbonyl chloride

>  <cansmi>
ClC(=O)c1cc(nn1Cc1ccccc1)C(C)(C)C

>  <HBA2>
3

>  <HBD>
0

>  <logP>
3.6079

>  <TPSA>
34.89

>  <MW>
276.761

$$$$

 OpenBabel02131616352D

 17 18  0  0  0  0  0  0  0  0999 V2000
   -0.7875   -0.1000    0.0000 O   0  0  0  0  0  0  0  0  0  0  0  0
   -0.1182    0.3825    0.0000 C   0  0  0  0  0  0  0  0  0  0  0  0
   -0.3750    1.1708    0.0000 C   0  0  0  0  0  0  0  0  0  0  0  0
   -1.2000    1.1708    0.0000 C   0  0  0  0  0  0  0  0  0  0  0  0
   -1.4568    0.3825    0.0000 C   0  0  0  0  0  0  0  0  0  0  0  0
   -2.2410    0.1264    0.0000 O   0  0  0  0  0  0  0  0  0  0  0  0
    0.6660    0.1264    0.0000 C   0  0  0  0  0  0  0  0  0  0  0  0
    0.8364   -0.6808    0.0000 O   0  0  0  0  0  0  0  0  0  0  0  0
    1.2800    0.6775    0.0000 Cl  0  0  0  0  0  0  0  0  0  0  0  0
   -2.8550    0.6775    0.0000 C   0  0  0  0  0  0  0  0  0  0  0  0
   -2.6828    1.4838    0.0000 C   0  0  0  0  0  0  0  0  0  0  0  0
   -3.2959    2.0346    0.0000 C   0  0  0  0  0  0  0  0  0  0  0  0
   -4.0811    1.7787    0.0000 C   0  0  0  0  0  0  0  0  0  0  0  0
   -4.2497    0.9667    0.0000 C   0  0  0  0  0  0  0  0  0  0  0  0
   -3.6353    0.4194    0.0000 C   0  0  0  0  0  0  0  0  0  0  0  0
   -5.0331    0.7079    0.0000 Cl  0  0  0  0  0  0  0  0  0  0  0  0
   -3.1252    2.8418    0.0000 Cl  0  0  0  0  0  0  0  0  0  0  0  0
  1  2  1  0  0  0  0
  2  7  1  0  0  0  0
  2  3  2  0  0  0  0
  3  4  1  0  0  0  0
  4  5  2  0  0  0  0
  5  1  1  0  0  0  0
  5  6  1  0  0  0  0
  6 10  1  0  0  0  0
  7  9  1  0  0  0  0
  7  8  2  0  0  0  0
 10 11  2  0  0  0  0
 11 12  1  0  0  0  0
 12 13  2  0  0  0  0
 12 17  1  0  0  0  0
 13 14  1  0  0  0  0
 14 15  2  0  0  0  0
 14 16  1  0  0  0  0
 15 10  1  0  0  0  0
M  END
>  <MOLFORMULA>
C11 H5 Cl3 O3

>  <MOLWEIGHT>
2.915165000000000e+002

>  <code>
SPB03117

>  <appearance>
solid

>  <purity>
97%

>  <product_name>
5-(3,5-dichlorophenoxy)furan-2-carbonyl chloride

>  <cansmi>
Clc1cc(cc(c1)Cl)Oc1ccc(o1)C(=O)Cl

>  <HBA2>
3

>  <HBD>
0

>  <logP>
4.7577

>  <TPSA>
39.44

>  <MW>
291.515

$$$$

 OpenBabel02131616352D

 13 13  0  0  0  0  0  0  0  0999 V2000
   -2.1917   -1.0375    0.0000 N   0  0  0  0  0  0  0  0  0  0  0  0
   -1.5224   -0.5550    0.0000 C   0  0  0  0  0  0  0  0  0  0  0  0
   -1.7792    0.2333    0.0000 C   0  0  0  0  0  0  0  0  0  0  0  0
   -2.6042    0.2333    0.0000 C   0  0  0  0  0  0  0  0  0  0  0  0
   -2.8610   -0.5550    0.0000 N   0  0  0  0  0  0  0  0  0  0  0  0
   -3.0889    0.9009    0.0000 C   0  0  0  0  0  0  0  0  0  0  0  0
   -2.1917   -1.8625    0.0000 C   0  0  0  0  0  0  0  0  0  0  0  0
   -2.9062   -2.2750    0.0000 C   0  0  0  0  0  0  0  0  0  0  0  0
   -1.4772   -2.2750    0.0000 C   0  0  0  0  0  0  0  0  0  0  0  0
   -2.9886   -1.6489    0.0000 C   0  0  0  0  0  0  0  0  0  0  0  0
   -0.7382   -0.8111    0.0000 C   0  0  0  0  0  0  0  0  0  0  0  0
   -0.5678   -1.6183    0.0000 O   0  0  0  0  0  0  0  0  0  0  0  0
   -0.1242   -0.2600    0.0000 Cl  0  0  0  0  0  0  0  0  0  0  0  0
  1  7  1  0  0  0  0
  1  2  1  0  0  0  0
  2  3  2  0  0  0  0
  2 11  1  0  0  0  0
  3  4  1  0  0  0  0
  4  5  2  0  0  0  0
  4  6  1  0  0  0  0
  5  1  1  0  0  0  0
  7  8  1  0  0  0  0
  7  9  1  0  0  0  0
  7 10  1  0  0  0  0
 11 12  2  0  0  0  0
 11 13  1  0  0  0  0
M  END
>  <MOLFORMULA>
C9 H13 Cl N2 O

>  <MOLWEIGHT>
2.006677000000000e+002

>  <code>
SPB03129

>  <appearance>
Liquid

>  <purity>
97%

>  <product_name>
1-(tert-butyl)-3-methyl-1H-pyrazole-5-carbonyl chloride

>  <cansmi>
Cc1nn(c(c1)C(=O)Cl)C(C)(C)C

>  <HBA2>
3

>  <HBD>
0

>  <logP>
2.3255

>  <TPSA>
34.89

>  <MW>
200.665

$$$$

 OpenBabel02131616352D

 13 13  0  0  0  0  0  0  0  0999 V2000
   -1.2792   -2.2000    0.0000 N   0  0  0  0  0  0  0  0  0  0  0  0
   -0.6099   -1.7175    0.0000 C   0  0  0  0  0  0  0  0  0  0  0  0
   -0.8667   -0.9334    0.0000 C   0  0  0  0  0  0  0  0  0  0  0  0
   -1.6875   -0.9334    0.0000 C   0  0  0  0  0  0  0  0  0  0  0  0
   -1.9443   -1.7175    0.0000 N   0  0  0  0  0  0  0  0  0  0  0  0
   -2.1722   -0.2699    0.0000 C   0  0  0  0  0  0  0  0  0  0  0  0
   -1.2792   -3.0208    0.0000 C   0  0  0  0  0  0  0  0  0  0  0  0
    0.1701   -1.9736    0.0000 C   0  0  0  0  0  0  0  0  0  0  0  0
    0.3364   -2.7766    0.0000 O   0  0  0  0  0  0  0  0  0  0  0  0
    0.7800   -1.4267    0.0000 Cl  0  0  0  0  0  0  0  0  0  0  0  0
   -2.1239    0.6461    0.0000 C   0  0  0  0  0  0  0  0  0  0  0  0
   -2.9886   -0.3559    0.0000 C   0  0  0  0  0  0  0  0  0  0  0  0
   -1.4019    0.0255    0.0000 C   0  0  0  0  0  0  0  0  0  0  0  0
  1  2  1  0  0  0  0
  1  7  1  0  0  0  0
  2  3  2  0  0  0  0
  2  8  1  0  0  0  0
  3  4  1  0  0  0  0
  4  6  1  0  0  0  0
  4  5  2  0  0  0  0
  5  1  1  0  0  0  0
  6 11  1  0  0  0  0
  6 12  1  0  0  0  0
  6 13  1  0  0  0  0
  8  9  2  0  0  0  0
  8 10  1  0  0  0  0
M  END
>  <MOLFORMULA>
C9 H13 Cl N2 O

>  <MOLWEIGHT>
2.006677000000000e+002

>  <code>
SPB03150

>  <appearance>
liquid

>  <purity>
97%

>  <product_name>
3-(tert-butyl)-1-methyl-1H-pyrazole-5-carbonyl chloride

>  <cansmi>
ClC(=O)c1cc(nn1C)C(C)(C)C

>  <HBA2>
3

>  <HBD>
0

>  <logP>
2.0966

>  <TPSA>
34.89

>  <MW>
200.665

$$$$

 OpenBabel02131616352D

 15 16  0  0  0  0  0  0  0  0999 V2000
    3.7750   -3.5624    0.0000 O   0  0  0  0  0  0  0  0  0  0  0  0
    4.4443   -3.0800    0.0000 C   0  0  0  0  0  0  0  0  0  0  0  0
    4.1875   -2.2917    0.0000 C   0  0  0  0  0  0  0  0  0  0  0  0
    3.3625   -2.2917    0.0000 C   0  0  0  0  0  0  0  0  0  0  0  0
    3.1057   -3.0800    0.0000 N   0  0  0  0  0  0  0  0  0  0  0  0
    2.8779   -1.6240    0.0000 C   0  0  0  0  0  0  0  0  0  0  0  0
    4.6722   -1.6240    0.0000 C   0  0  0  0  0  0  0  0  0  0  0  0
    5.4927   -1.7100    0.0000 Cl  0  0  0  0  0  0  0  0  0  0  0  0
    4.3364   -0.8705    0.0000 O   0  0  0  0  0  0  0  0  0  0  0  0
    5.2286   -3.3361    0.0000 C   0  0  0  0  0  0  0  0  0  0  0  0
    5.4811   -4.1221    0.0000 N   0  0  0  0  0  0  0  0  0  0  0  0
    6.3061   -4.1234    0.0000 O   0  0  0  0  0  0  0  0  0  0  0  0
    6.5622   -3.3391    0.0000 C   0  0  0  0  0  0  0  0  0  0  0  0
    5.8954   -2.8533    0.0000 C   0  0  0  0  0  0  0  0  0  0  0  0
    7.3472   -3.0852    0.0000 C   0  0  0  0  0  0  0  0  0  0  0  0
  1  2  1  0  0  0  0
  2  3  2  0  0  0  0
  2 10  1  0  0  0  0
  3  4  1  0  0  0  0
  3  7  1  0  0  0  0
  4  6  1  0  0  0  0
  4  5  2  0  0  0  0
  5  1  1  0  0  0  0
  7  8  1  0  0  0  0
  7  9  2  0  0  0  0
 10 11  2  0  0  0  0
 11 12  1  0  0  0  0
 12 13  1  0  0  0  0
 13 14  2  0  0  0  0
 13 15  1  0  0  0  0
 14 10  1  0  0  0  0
M  END
>  <MOLFORMULA>
C9 H7 Cl N2 O3

>  <MOLWEIGHT>
2.266183000000000e+002

>  <code>
SPB03212

>  <appearance>
solid

>  <purity>
95%

>  <product_name>
3',5-dimethyl-3,5'-biisoxazole-4'-carbonyl chloride

>  <cansmi>
Cc1onc(c1)c1onc(c1C(=O)Cl)C

>  <HBA2>
5

>  <HBD>
0

>  <logP>
2.3254

>  <TPSA>
69.13

>  <MW>
226.616

$$$$

 OpenBabel02131616352D

 13 14  0  0  0  0  0  0  0  0999 V2000
   -2.6267   -2.1019    0.0000 C   0  0  0  0  0  0  0  0  0  0  0  0
   -2.3631   -1.3145    0.0000 C   0  0  0  0  0  0  0  0  0  0  0  0
   -3.0374   -0.8222    0.0000 S   0  0  0  0  0  0  0  0  0  0  0  0
   -3.7100   -1.3100    0.0000 C   0  0  0  0  0  0  0  0  0  0  0  0
   -3.4559   -2.1034    0.0000 C   0  0  0  0  0  0  0  0  0  0  0  0
   -1.5768   -1.0594    0.0000 C   0  0  0  0  0  0  0  0  0  0  0  0
   -0.9123   -1.5432    0.0000 O   0  0  0  0  0  0  0  0  0  0  0  0
   -0.2399   -1.0594    0.0000 N   0  0  0  0  0  0  0  0  0  0  0  0
   -0.4949   -0.2730    0.0000 C   0  0  0  0  0  0  0  0  0  0  0  0
   -1.3224   -0.2692    0.0000 C   0  0  0  0  0  0  0  0  0  0  0  0
   -0.0046    0.3976    0.0000 C   0  0  0  0  0  0  0  0  0  0  0  0
   -0.3430    1.1561    0.0000 O   0  0  0  0  0  0  0  0  0  0  0  0
    0.8198    0.3099    0.0000 Cl  0  0  0  0  0  0  0  0  0  0  0  0
  1  2  2  0  0  0  0
  2  3  1  0  0  0  0
  2  6  1  0  0  0  0
  3  4  1  0  0  0  0
  4  5  2  0  0  0  0
  5  1  1  0  0  0  0
  6  7  1  0  0  0  0
  7  8  1  0  0  0  0
  8  9  2  0  0  0  0
  9 10  1  0  0  0  0
  9 11  1  0  0  0  0
 10  6  2  0  0  0  0
 11 12  2  0  0  0  0
 11 13  1  0  0  0  0
M  END
>  <MOLFORMULA>
C8 H4 Cl N O2 S

>  <MOLWEIGHT>
2.136436000000000e+002

>  <code>
SPB04179

>  <appearance>
Solid

>  <purity>
95%

>  <product_name>
5-(2-thienyl)-3-isoxazolecarbonyl chloride

>  <cansmi>
ClC(=O)c1noc(c1)c1cccs1

>  <HBA2>
4

>  <HBD>
0

>  <logP>
2.7821

>  <TPSA>
71.34

>  <MW>
213.641

$$$$

 OpenBabel02131616352D

 11 11  0  0  0  0  0  0  0  0999 V2000
   -0.0125    0.0000    0.0000 C   0  0  0  0  0  0  0  0  0  0  0  0
    1.3250    0.7750    0.0000 C   0  0  0  0  0  0  0  0  0  0  0  0
   -1.3333    0.7708    0.0000 C   0  0  0  0  0  0  0  0  0  0  0  0
   -0.0125   -1.5375    0.0000 C   0  0  0  0  0  0  0  0  0  0  0  0
    1.3167    2.3125    0.0000 O   0  0  0  0  0  0  0  0  0  0  0  0
    2.6542    0.0083    0.0000 Cl  0  0  0  0  0  0  0  0  0  0  0  0
    1.3250   -2.3042    0.0000 F   0  0  0  0  0  0  0  0  0  0  0  0
   -1.3208    2.3083    0.0000 Cl  0  0  0  0  0  0  0  0  0  0  0  0
   -2.6625   -1.5375    0.0000 C   0  0  0  0  0  0  0  0  0  0  0  0
   -1.3333   -2.3042    0.0000 C   0  0  0  0  0  0  0  0  0  0  0  0
   -2.6625    0.0000    0.0000 C   0  0  0  0  0  0  0  0  0  0  0  0
  2  1  1  0  0  0  0
  3  1  2  0  0  0  0
  4  1  1  0  0  0  0
  5  2  2  0  0  0  0
  6  2  1  0  0  0  0
  7  4  1  0  0  0  0
  8  3  1  0  0  0  0
  9 10  1  0  0  0  0
  9 11  2  0  0  0  0
 10  4  2  0  0  0  0
 11  3  1  0  0  0  0
M  END
>  <MOLFORMULA>
C7 H3 Cl2 F O

>  <MOLWEIGHT>
1.930037000000000e+002

>  <code>
SPB06439

>  <appearance>
liquid

>  <purity>
97%

>  <product_name>
2-chloro-6-fluorobenzene-1-carbonyl chloride

>  <cansmi>
ClC(=O)c1c(F)cccc1Cl

>  <HBA2>
1

>  <HBD>
0

>  <logP>
2.8581

>  <TPSA>
17.07

>  <MW>
193.003

$$$$

 OpenBabel02131616352D

 13 13  0  0  0  0  0  0  0  0999 V2000
   -2.0042   -1.0542    0.0000 N   0  0  0  0  0  0  0  0  0  0  0  0
   -1.3349   -0.5717    0.0000 N   0  0  0  0  0  0  0  0  0  0  0  0
   -1.5917    0.2166    0.0000 C   0  0  0  0  0  0  0  0  0  0  0  0
   -2.4167    0.2166    0.0000 C   0  0  0  0  0  0  0  0  0  0  0  0
   -2.6735   -0.5717    0.0000 C   0  0  0  0  0  0  0  0  0  0  0  0
   -3.4577   -0.8278    0.0000 C   0  0  0  0  0  0  0  0  0  0  0  0
   -2.0042   -1.8792    0.0000 C   0  0  0  0  0  0  0  0  0  0  0  0
   -2.7186   -2.2917    0.0000 C   0  0  0  0  0  0  0  0  0  0  0  0
   -1.2897   -2.2917    0.0000 C   0  0  0  0  0  0  0  0  0  0  0  0
   -2.8011   -1.6656    0.0000 C   0  0  0  0  0  0  0  0  0  0  0  0
   -1.1070    0.8842    0.0000 C   0  0  0  0  0  0  0  0  0  0  0  0
   -0.2865    0.7983    0.0000 Cl  0  0  0  0  0  0  0  0  0  0  0  0
   -1.4428    1.6378    0.0000 O   0  0  0  0  0  0  0  0  0  0  0  0
  1  2  1  0  0  0  0
  1  7  1  0  0  0  0
  2  3  2  0  0  0  0
  3  4  1  0  0  0  0
  3 11  1  0  0  0  0
  4  5  2  0  0  0  0
  5  1  1  0  0  0  0
  5  6  1  0  0  0  0
  7  8  1  0  0  0  0
  7  9  1  0  0  0  0
  7 10  1  0  0  0  0
 11 12  1  0  0  0  0
 11 13  2  0  0  0  0
M  END
>  <MOLFORMULA>
C9 H13 Cl N2 O

>  <MOLWEIGHT>
2.006677000000000e+002

>  <code>
SPB08035

>  <appearance>
solid

>  <purity>
97%

>  <product_name>
1-(tert-butyl)-5-methyl-1H-pyrazole-3-carbonyl chloride

>  <cansmi>
ClC(=O)c1nn(c(c1)C)C(C)(C)C

>  <HBA2>
3

>  <HBD>
0

>  <logP>
2.3255

>  <TPSA>
34.89

>  <MW>
200.665

$$$$

 OpenBabel02131616352D

 14 15  0  0  0  0  0  0  0  0999 V2000
   -0.9125   -1.7541    0.0000 N   0  0  0  0  0  0  0  0  0  0  0  0
   -0.2432   -1.2717    0.0000 C   0  0  0  0  0  0  0  0  0  0  0  0
   -0.5000   -0.4834    0.0000 C   0  0  0  0  0  0  0  0  0  0  0  0
   -1.5818   -1.2717    0.0000 C   0  0  0  0  0  0  0  0  0  0  0  0
   -1.3231   -0.4859    0.0000 C   0  0  0  0  0  0  0  0  0  0  0  0
   -1.8737    0.1289    0.0000 C   0  0  0  0  0  0  0  0  0  0  0  0
   -2.6831   -0.0408    0.0000 C   0  0  0  0  0  0  0  0  0  0  0  0
   -2.9389   -0.8308    0.0000 C   0  0  0  0  0  0  0  0  0  0  0  0
   -2.3866   -1.4422    0.0000 C   0  0  0  0  0  0  0  0  0  0  0  0
   -1.6166    0.9128    0.0000 Cl  0  0  0  0  0  0  0  0  0  0  0  0
   -3.7457   -1.0033    0.0000 Cl  0  0  0  0  0  0  0  0  0  0  0  0
    0.5410   -1.5278    0.0000 C   0  0  0  0  0  0  0  0  0  0  0  0
    0.7114   -2.3350    0.0000 O   0  0  0  0  0  0  0  0  0  0  0  0
    1.1550   -0.9766    0.0000 Cl  0  0  0  0  0  0  0  0  0  0  0  0
  1  2  1  0  0  0  0
  2  3  2  0  0  0  0
  2 12  1  0  0  0  0
  3  5  1  0  0  0  0
  4  1  1  0  0  0  0
  4  5  2  0  0  0  0
  5  6  1  0  0  0  0
  6  7  2  0  0  0  0
  6 10  1  0  0  0  0
  7  8  1  0  0  0  0
  8  9  2  0  0  0  0
  8 11  1  0  0  0  0
  9  4  1  0  0  0  0
 12 13  2  0  0  0  0
 12 14  1  0  0  0  0
M  END
>  <MOLFORMULA>
C9 H4 Cl3 N O

>  <MOLWEIGHT>
2.484956000000000e+002

>  <code>
SS00048

>  <appearance>
solid

>  <purity>
95%

>  <product_name>
4,6-dichloro-1H-indole-2-carbonyl chloride

>  <cansmi>
Clc1cc(Cl)c2c(c1)[nH]c(c2)C(=O)Cl

>  <HBA2>
1

>  <HBD>
1

>  <logP>
3.8537

>  <TPSA>
32.86

>  <MW>
248.493

$$$$

 OpenBabel02131616352D

 11 11  0  0  0  0  0  0  0  0999 V2000
   10.7042  -13.1792    0.0000 C   0  0  0  0  0  0  0  0  0  0  0  0
   10.7042  -13.7792    0.0000 C   0  0  0  0  0  0  0  0  0  0  0  0
   11.2167  -12.8750    0.0000 C   0  0  0  0  0  0  0  0  0  0  0  0
   10.1792  -12.8792    0.0000 C   0  0  0  0  0  0  0  0  0  0  0  0
   10.1792  -14.0792    0.0000 C   0  0  0  0  0  0  0  0  0  0  0  0
   11.2167  -12.2708    0.0000 O   0  0  0  0  0  0  0  0  0  0  0  0
    9.6667  -13.7792    0.0000 C   0  0  0  0  0  0  0  0  0  0  0  0
   11.2250  -14.0792    0.0000 F   0  0  0  0  0  0  0  0  0  0  0  0
   11.7417  -13.1667    0.0000 Cl  0  0  0  0  0  0  0  0  0  0  0  0
    9.6667  -13.1792    0.0000 C   0  0  0  0  0  0  0  0  0  0  0  0
    9.1417  -14.0792    0.0000 F   0  0  0  0  0  0  0  0  0  0  0  0
  2  1  1  0  0  0  0
  3  1  1  0  0  0  0
  4  1  2  0  0  0  0
  5  2  2  0  0  0  0
  6  3  2  0  0  0  0
  7 10  2  0  0  0  0
  7  5  1  0  0  0  0
  8  2  1  0  0  0  0
  9  3  1  0  0  0  0
 10  4  1  0  0  0  0
 11  7  1  0  0  0  0
M  END
>  <MOLFORMULA>
C7 H3 Cl F2 O

>  <MOLWEIGHT>
1.765487000000000e+002

>  <code>
TL00171

>  <appearance>
liquid

>  <purity>
97%

>  <product_name>
2,4-difluorobenzoyl chloride

>  <cansmi>
Fc1ccc(c(c1)F)C(=O)Cl

>  <HBA2>
1

>  <HBD>
0

>  <logP>
2.3438

>  <TPSA>
17.07

>  <MW>
176.548

$$$$

 OpenBabel02131616352D

 11 11  0  0  0  0  0  0  0  0999 V2000
    0.6667   -0.0042    0.0000 C   0  0  0  0  0  0  0  0  0  0  0  0
   -0.6708    0.7708    0.0000 C   0  0  0  0  0  0  0  0  0  0  0  0
    2.0000    0.7625    0.0000 C   0  0  0  0  0  0  0  0  0  0  0  0
    2.0000    2.3083    0.0000 O   0  0  0  0  0  0  0  0  0  0  0  0
   -2.0083    0.0000    0.0000 C   0  0  0  0  0  0  0  0  0  0  0  0
    3.3292   -0.0042    0.0000 Cl  0  0  0  0  0  0  0  0  0  0  0  0
    0.6667   -1.5375    0.0000 C   0  0  0  0  0  0  0  0  0  0  0  0
   -0.6625    2.3125    0.0000 C   0  0  0  0  0  0  0  0  0  0  0  0
   -0.6708   -2.3042    0.0000 C   0  0  0  0  0  0  0  0  0  0  0  0
   -2.0083   -1.5375    0.0000 C   0  0  0  0  0  0  0  0  0  0  0  0
   -3.3375    0.7708    0.0000 C   0  0  0  0  0  0  0  0  0  0  0  0
  2  1  2  0  0  0  0
  3  1  1  0  0  0  0
  4  3  2  0  0  0  0
  5  2  1  0  0  0  0
  6  3  1  0  0  0  0
  7  1  1  0  0  0  0
  8  2  1  0  0  0  0
  9  7  2  0  0  0  0
 10  9  1  0  0  0  0
 10  5  2  0  0  0  0
 11  5  1  0  0  0  0
M  END
>  <MOLFORMULA>
C9 H9 Cl O

>  <MOLWEIGHT>
1.686221000000000e+002

>  <code>
TL00220

>  <appearance>
liquid

>  <purity>
97%

>  <product_name>
2,3-dimethylbenzene-1-carbonyl chloride

>  <cansmi>
ClC(=O)c1cccc(c1C)C

>  <HBA2>
1

>  <HBD>
0

>  <logP>
2.6824

>  <TPSA>
17.07

>  <MW>
168.62

$$$$

 OpenBabel02131616352D

 11 11  0  0  0  0  0  0  0  0999 V2000
    2.0000    0.7708    0.0000 C   0  0  0  0  0  0  0  0  0  0  0  0
    0.6667   -0.0042    0.0000 C   0  0  0  0  0  0  0  0  0  0  0  0
   -0.6708    0.7833    0.0000 C   0  0  0  0  0  0  0  0  0  0  0  0
   -2.0083    0.0083    0.0000 C   0  0  0  0  0  0  0  0  0  0  0  0
   -2.0083   -1.5292    0.0000 C   0  0  0  0  0  0  0  0  0  0  0  0
    2.0000    2.3125    0.0000 O   0  0  0  0  0  0  0  0  0  0  0  0
    0.6667   -1.5292    0.0000 C   0  0  0  0  0  0  0  0  0  0  0  0
   -0.6708   -2.3042    0.0000 C   0  0  0  0  0  0  0  0  0  0  0  0
    3.3292   -0.0042    0.0000 Cl  0  0  0  0  0  0  0  0  0  0  0  0
   -3.3375    0.7833    0.0000 C   0  0  0  0  0  0  0  0  0  0  0  0
   -3.3375   -2.3042    0.0000 C   0  0  0  0  0  0  0  0  0  0  0  0
  2  1  1  0  0  0  0
  3  2  2  0  0  0  0
  4  3  1  0  0  0  0
  5  8  1  0  0  0  0
  5  4  2  0  0  0  0
  6  1  2  0  0  0  0
  7  2  1  0  0  0  0
  8  7  2  0  0  0  0
  9  1  1  0  0  0  0
 10  4  1  0  0  0  0
 11  5  1  0  0  0  0
M  END
>  <MOLFORMULA>
C9 H9 Cl O

>  <MOLWEIGHT>
1.686221000000000e+002

>  <code>
TL00321

>  <appearance>
liquid

>  <purity>
97%

>  <product_name>
3,4-dimethylbenzene-1-carbonyl chloride

>  <cansmi>
ClC(=O)c1ccc(c(c1)C)C

>  <HBA2>
1

>  <HBD>
0

>  <logP>
2.6824

>  <TPSA>
17.07

>  <MW>
168.62

$$$$

 OpenBabel02131616352D

 14 14  0  0  0  0  0  0  0  0999 V2000
   -3.2500   -1.5292    0.0000 C   0  0  0  0  0  0  0  0  0  0  0  0
    3.4167    0.7708    0.0000 C   0  0  0  0  0  0  0  0  0  0  0  0
    2.0875    0.0000    0.0000 C   0  0  0  0  0  0  0  0  0  0  0  0
   -1.9208   -2.3042    0.0000 O   0  0  0  0  0  0  0  0  0  0  0  0
    3.4167    2.3083    0.0000 O   0  0  0  0  0  0  0  0  0  0  0  0
    2.0917   -1.5292    0.0000 C   0  0  0  0  0  0  0  0  0  0  0  0
    0.7542    0.7750    0.0000 C   0  0  0  0  0  0  0  0  0  0  0  0
   -4.7667   -2.1125    0.0000 F   0  0  0  0  0  0  0  0  0  0  0  0
   -4.4708   -0.8417    0.0000 F   0  0  0  0  0  0  0  0  0  0  0  0
   -3.5125    0.0500    0.0000 F   0  0  0  0  0  0  0  0  0  0  0  0
    4.7542    0.0000    0.0000 Cl  0  0  0  0  0  0  0  0  0  0  0  0
   -0.5833   -1.5292    0.0000 C   0  0  0  0  0  0  0  0  0  0  0  0
   -0.5833    0.0083    0.0000 C   0  0  0  0  0  0  0  0  0  0  0  0
    0.7542   -2.3042    0.0000 C   0  0  0  0  0  0  0  0  0  0  0  0
  2  3  1  0  0  0  0
  3  6  1  0  0  0  0
  3  7  2  0  0  0  0
  4  1  1  0  0  0  0
  5  2  2  0  0  0  0
  6 14  2  0  0  0  0
  7 13  1  0  0  0  0
  8  1  1  0  0  0  0
  9  1  1  0  0  0  0
 10  1  1  0  0  0  0
 11  2  1  0  0  0  0
 12  4  1  0  0  0  0
 13 12  2  0  0  0  0
 14 12  1  0  0  0  0
M  END
>  <MOLFORMULA>
C8 H4 Cl F3 O2

>  <MOLWEIGHT>
2.245646000000000e+002

>  <code>
TL00396

>  <appearance>
liquid

>  <purity>
97%

>  <product_name>
4-(trifluoromethoxy)benzene-1-carbonyl chloride

>  <cansmi>
ClC(=O)c1ccc(cc1)OC(F)(F)F

>  <HBA2>
2

>  <HBD>
0

>  <logP>
2.9642

>  <TPSA>
26.3

>  <MW>
224.564

$$$$

 OpenBabel02131616352D

 11 11  0  0  0  0  0  0  0  0999 V2000
    0.6667   -0.0042    0.0000 C   0  0  0  0  0  0  0  0  0  0  0  0
   -0.6708    0.7708    0.0000 C   0  0  0  0  0  0  0  0  0  0  0  0
    2.0000    0.7708    0.0000 C   0  0  0  0  0  0  0  0  0  0  0  0
    0.6667   -1.5375    0.0000 C   0  0  0  0  0  0  0  0  0  0  0  0
   -2.0083    0.0000    0.0000 C   0  0  0  0  0  0  0  0  0  0  0  0
    2.0000    2.3083    0.0000 O   0  0  0  0  0  0  0  0  0  0  0  0
   -2.0083   -1.5375    0.0000 C   0  0  0  0  0  0  0  0  0  0  0  0
   -0.6625    2.3125    0.0000 Cl  0  0  0  0  0  0  0  0  0  0  0  0
    3.3292   -0.0042    0.0000 Cl  0  0  0  0  0  0  0  0  0  0  0  0
   -0.6708   -2.3042    0.0000 C   0  0  0  0  0  0  0  0  0  0  0  0
   -3.3375   -2.3042    0.0000 F   0  0  0  0  0  0  0  0  0  0  0  0
  2  1  2  0  0  0  0
  3  1  1  0  0  0  0
  4  1  1  0  0  0  0
  5  2  1  0  0  0  0
  6  3  2  0  0  0  0
  7 10  1  0  0  0  0
  7  5  2  0  0  0  0
  8  2  1  0  0  0  0
  9  3  1  0  0  0  0
 10  4  2  0  0  0  0
 11  7  1  0  0  0  0
M  END
>  <MOLFORMULA>
C7 H3 Cl2 F O

>  <MOLWEIGHT>
1.930037000000000e+002

>  <code>
TL00495

>  <appearance>
solid

>  <purity>
97%

>  <product_name>
2-chloro-4-fluorobenzene-1-carbonyl chloride

>  <cansmi>
Fc1ccc(c(c1)Cl)C(=O)Cl

>  <HBA2>
1

>  <HBD>
0

>  <logP>
2.8581

>  <TPSA>
17.07

>  <MW>
193.003

$$$$

 OpenBabel02131616352D

 33 35  0  0  0  0  0  0  0  0999 V2000
    2.6194   -3.1583    0.0000 C   0  0  0  0  0  0  0  0  0  0  0  0
    2.6182   -3.9857    0.0000 C   0  0  0  0  0  0  0  0  0  0  0  0
    3.3331   -4.3985    0.0000 N   0  0  0  0  0  0  0  0  0  0  0  0
    4.0495   -3.9852    0.0000 C   0  0  0  0  0  0  0  0  0  0  0  0
    4.0466   -3.1547    0.0000 C   0  0  0  0  0  0  0  0  0  0  0  0
    3.3313   -2.7455    0.0000 C   0  0  0  0  0  0  0  0  0  0  0  0
    4.7646   -4.3966    0.0000 N   0  0  0  0  0  0  0  0  0  0  0  0
    3.3288   -1.9205    0.0000 C   0  0  0  0  0  0  0  0  0  0  0  0
    4.0420   -1.5059    0.0000 O   0  0  0  0  0  0  0  0  0  0  0  0
    2.6131   -1.5102    0.0000 O   0  0  0  0  0  0  0  0  0  0  0  0
    4.0396   -0.6809    0.0000 C   0  0  0  0  0  0  0  0  0  0  0  0
    4.7583   -0.2687    0.0000 C   0  0  0  0  0  0  0  0  0  0  0  0
    4.7561    0.5555    0.0000 C   0  0  0  0  0  0  0  0  0  0  0  0
    4.0399    0.9667    0.0000 C   0  0  0  0  0  0  0  0  0  0  0  0
    3.3243    0.5477    0.0000 C   0  0  0  0  0  0  0  0  0  0  0  0
    3.3299   -0.2752    0.0000 C   0  0  0  0  0  0  0  0  0  0  0  0
    2.6178   -0.6917    0.0000 F   0  0  0  0  0  0  0  0  0  0  0  0
    2.6072    0.9555    0.0000 F   0  0  0  0  0  0  0  0  0  0  0  0
    4.0363    1.7917    0.0000 F   0  0  0  0  0  0  0  0  0  0  0  0
    5.4696    0.9698    0.0000 F   0  0  0  0  0  0  0  0  0  0  0  0
    5.4727   -0.6813    0.0000 F   0  0  0  0  0  0  0  0  0  0  0  0
    4.7616   -5.2217    0.0000 C   0  0  0  0  0  0  0  0  0  0  0  0
    5.4726   -5.6330    0.0000 C   0  0  0  0  0  0  0  0  0  0  0  0
    6.1889   -5.2229    0.0000 N   0  0  0  0  0  0  0  0  0  0  0  0
    6.1896   -4.3969    0.0000 C   0  0  0  0  0  0  0  0  0  0  0  0
    5.4740   -3.9811    0.0000 C   0  0  0  0  0  0  0  0  0  0  0  0
    6.9024   -5.6370    0.0000 C   0  0  0  0  0  0  0  0  0  0  0  0
    6.9006   -6.4620    0.0000 O   0  0  0  0  0  0  0  0  0  0  0  0
    7.6178   -5.2261    0.0000 O   0  0  0  0  0  0  0  0  0  0  0  0
    8.3314   -5.6401    0.0000 C   0  0  0  0  0  0  0  0  0  0  0  0
    9.0468   -5.2292    0.0000 C   0  0  0  0  0  0  0  0  0  0  0  0
    8.3296   -6.4651    0.0000 C   0  0  0  0  0  0  0  0  0  0  0  0
    9.0417   -6.0500    0.0000 C   0  0  0  0  0  0  0  0  0  0  0  0
  1  2  2  0  0  0  0
  2  3  1  0  0  0  0
  3  4  2  0  0  0  0
  4  5  1  0  0  0  0
  4  7  1  0  0  0  0
  5  6  2  0  0  0  0
  6  8  1  0  0  0  0
  6  1  1  0  0  0  0
  7 22  1  0  0  0  0
  7 26  1  0  0  0  0
  8  9  1  0  0  0  0
  8 10  2  0  0  0  0
  9 11  1  0  0  0  0
 11 12  2  0  0  0  0
 12 21  1  0  0  0  0
 12 13  1  0  0  0  0
 13 20  1  0  0  0  0
 13 14  2  0  0  0  0
 14 19  1  0  0  0  0
 14 15  1  0  0  0  0
 15 18  1  0  0  0  0
 15 16  2  0  0  0  0
 16 11  1  0  0  0  0
 16 17  1  0  0  0  0
 22 23  1  0  0  0  0
 23 24  1  0  0  0  0
 24 25  1  0  0  0  0
 24 27  1  0  0  0  0
 25 26  1  0  0  0  0
 27 28  2  0  0  0  0
 27 29  1  0  0  0  0
 29 30  1  0  0  0  0
 30 31  1  0  0  0  0
 30 32  1  0  0  0  0
 30 33  1  0  0  0  0
M  END
>  <MOLFORMULA>
C21 H20 F5 N3 O4

>  <MOLWEIGHT>
4.733960000000000e+002

>  <code>
CC50626

>  <appearance>
Solid

>  <purity>
90%

>  <product_name>
pentafluorophenyl 2-[4-(tert-butoxycarbonyl)piperazin-1-yl]isonicotinate

>  <cansmi>
O=C(c1ccnc(c1)N1CCN(CC1)C(=O)OC(C)(C)C)Oc1c(F)c(F)c(c(c1F)F)F

>  <HBA2>
7

>  <HBD>
0

>  <logP>
4.0563

>  <TPSA>
71.97

>  <MW>
473.393

$$$$

 OpenBabel02131616352D

 30 32  0  0  0  0  0  0  0  0999 V2000
    5.2070   -4.3890    0.0000 C   0  0  0  0  0  0  0  0  0  0  0  0
    5.9142   -4.8265    0.0000 C   0  0  0  0  0  0  0  0  0  0  0  0
    6.6409   -4.4349    0.0000 C   0  0  0  0  0  0  0  0  0  0  0  0
    6.6674   -3.6046    0.0000 C   0  0  0  0  0  0  0  0  0  0  0  0
    5.9555   -3.1688    0.0000 C   0  0  0  0  0  0  0  0  0  0  0  0
    5.2259   -3.5642    0.0000 C   0  0  0  0  0  0  0  0  0  0  0  0
    4.5190   -3.1310    0.0000 N   0  0  0  0  0  0  0  0  0  0  0  0
    5.9751   -2.3384    0.0000 C   0  0  0  0  0  0  0  0  0  0  0  0
    7.3464   -4.8704    0.0000 C   0  0  0  0  0  0  0  0  0  0  0  0
    6.7055   -1.9427    0.0000 O   0  0  0  0  0  0  0  0  0  0  0  0
    5.2678   -1.9057    0.0000 O   0  0  0  0  0  0  0  0  0  0  0  0
    6.7251   -1.1123    0.0000 C   0  0  0  0  0  0  0  0  0  0  0  0
    7.4575   -0.7198    0.0000 C   0  0  0  0  0  0  0  0  0  0  0  0
    7.4775    0.1098    0.0000 C   0  0  0  0  0  0  0  0  0  0  0  0
    6.7696    0.5434    0.0000 C   0  0  0  0  0  0  0  0  0  0  0  0
    6.0403    0.1412    0.0000 C   0  0  0  0  0  0  0  0  0  0  0  0
    6.0204   -0.6850    0.0000 C   0  0  0  0  0  0  0  0  0  0  0  0
    5.2950   -1.0856    0.0000 F   0  0  0  0  0  0  0  0  0  0  0  0
    5.3313    0.5714    0.0000 F   0  0  0  0  0  0  0  0  0  0  0  0
    6.7894    1.3682    0.0000 F   0  0  0  0  0  0  0  0  0  0  0  0
    8.2059    0.5016    0.0000 F   0  0  0  0  0  0  0  0  0  0  0  0
    8.1638   -1.1542    0.0000 F   0  0  0  0  0  0  0  0  0  0  0  0
    4.5489   -2.3017    0.0000 C   0  0  0  0  0  0  0  0  0  0  0  0
    3.8460   -1.8686    0.0000 C   0  0  0  0  0  0  0  0  0  0  0  0
    3.1130   -2.2601    0.0000 O   0  0  0  0  0  0  0  0  0  0  0  0
    3.0929   -3.0879    0.0000 C   0  0  0  0  0  0  0  0  0  0  0  0
    3.8002   -3.5256    0.0000 C   0  0  0  0  0  0  0  0  0  0  0  0
    7.3257   -5.6972    0.0000 F   0  0  0  0  0  0  0  0  0  0  0  0
    8.0785   -4.4778    0.0000 F   0  0  0  0  0  0  0  0  0  0  0  0
    8.0457   -5.3110    0.0000 F   0  0  0  0  0  0  0  0  0  0  0  0
  1  2  2  0  0  0  0
  2  3  1  0  0  0  0
  3  4  2  0  0  0  0
  3  9  1  0  0  0  0
  4  5  1  0  0  0  0
  5  8  1  0  0  0  0
  5  6  2  0  0  0  0
  6  1  1  0  0  0  0
  6  7  1  0  0  0  0
  7 23  1  0  0  0  0
  7 27  1  0  0  0  0
  8 10  1  0  0  0  0
  8 11  2  0  0  0  0
  9 28  1  0  0  0  0
  9 29  1  0  0  0  0
  9 30  1  0  0  0  0
 10 12  1  0  0  0  0
 12 13  2  0  0  0  0
 13 22  1  0  0  0  0
 13 14  1  0  0  0  0
 14 15  2  0  0  0  0
 14 21  1  0  0  0  0
 15 16  1  0  0  0  0
 15 20  1  0  0  0  0
 16 17  2  0  0  0  0
 16 19  1  0  0  0  0
 17 12  1  0  0  0  0
 17 18  1  0  0  0  0
 23 24  1  0  0  0  0
 24 25  1  0  0  0  0
 25 26  1  0  0  0  0
 26 27  1  0  0  0  0
M  END
>  <MOLFORMULA>
C18 H11 F8 N O3

>  <MOLWEIGHT>
4.412729000000000e+002

>  <code>
CC57826

>  <appearance>
Solid

>  <purity>
97%

>  <product_name>
pentafluorophenyl 2-morpholino-5-(trifluoromethyl)benzoate

>  <cansmi>
O=C(c1cc(ccc1N1CCOCC1)C(F)(F)F)Oc1c(F)c(F)c(c(c1F)F)F

>  <HBA2>
4

>  <HBD>
0

>  <logP>
4.5217

>  <TPSA>
38.77

>  <MW>
441.272

$$$$

 OpenBabel02131616352D

 29 31  0  0  0  0  0  0  0  0999 V2000
    6.6931   -3.1458    0.0000 C   0  0  0  0  0  0  0  0  0  0  0  0
    6.6943   -3.9732    0.0000 C   0  0  0  0  0  0  0  0  0  0  0  0
    5.9711   -4.3860    0.0000 C   0  0  0  0  0  0  0  0  0  0  0  0
    5.2588   -3.9727    0.0000 C   0  0  0  0  0  0  0  0  0  0  0  0
    5.2617   -3.1422    0.0000 C   0  0  0  0  0  0  0  0  0  0  0  0
    5.9729   -2.7372    0.0000 C   0  0  0  0  0  0  0  0  0  0  0  0
    4.5509   -2.7315    0.0000 S   0  0  0  0  0  0  0  0  0  0  0  0
    3.8292   -3.1376    0.0000 N   0  0  0  0  0  0  0  0  0  0  0  0
    4.5536   -1.9107    0.0000 O   0  0  0  0  0  0  0  0  0  0  0  0
    4.5574   -3.5554    0.0000 O   0  0  0  0  0  0  0  0  0  0  0  0
    3.8288   -3.9656    0.0000 C   0  0  0  0  0  0  0  0  0  0  0  0
    3.1108   -4.3757    0.0000 C   0  0  0  0  0  0  0  0  0  0  0  0
    2.3972   -3.9577    0.0000 O   0  0  0  0  0  0  0  0  0  0  0  0
    2.4018   -3.1297    0.0000 C   0  0  0  0  0  0  0  0  0  0  0  0
    3.1240   -2.7155    0.0000 C   0  0  0  0  0  0  0  0  0  0  0  0
    5.9723   -1.9122    0.0000 C   0  0  0  0  0  0  0  0  0  0  0  0
    6.6864   -1.4991    0.0000 O   0  0  0  0  0  0  0  0  0  0  0  0
    5.2575   -1.5002    0.0000 O   0  0  0  0  0  0  0  0  0  0  0  0
    6.6858   -0.6741    0.0000 C   0  0  0  0  0  0  0  0  0  0  0  0
    7.4006   -0.2667    0.0000 C   0  0  0  0  0  0  0  0  0  0  0  0
    7.4004    0.5575    0.0000 C   0  0  0  0  0  0  0  0  0  0  0  0
    6.6850    0.9703    0.0000 C   0  0  0  0  0  0  0  0  0  0  0  0
    5.9685    0.5528    0.0000 C   0  0  0  0  0  0  0  0  0  0  0  0
    5.9723   -0.2701    0.0000 C   0  0  0  0  0  0  0  0  0  0  0  0
    5.2605   -0.6872    0.0000 F   0  0  0  0  0  0  0  0  0  0  0  0
    5.2523    0.9622    0.0000 F   0  0  0  0  0  0  0  0  0  0  0  0
    6.6833    1.7953    0.0000 F   0  0  0  0  0  0  0  0  0  0  0  0
    8.1147    0.9702    0.0000 F   0  0  0  0  0  0  0  0  0  0  0  0
    8.1140   -0.6811    0.0000 F   0  0  0  0  0  0  0  0  0  0  0  0
  1  2  2  0  0  0  0
  2  3  1  0  0  0  0
  3  4  2  0  0  0  0
  4  5  1  0  0  0  0
  5  6  2  0  0  0  0
  5  7  1  0  0  0  0
  6 16  1  0  0  0  0
  6  1  1  0  0  0  0
  7  8  1  0  0  0  0
  7  9  2  0  0  0  0
  7 10  2  0  0  0  0
  8 11  1  0  0  0  0
  8 15  1  0  0  0  0
 11 12  1  0  0  0  0
 12 13  1  0  0  0  0
 13 14  1  0  0  0  0
 14 15  1  0  0  0  0
 16 17  1  0  0  0  0
 16 18  2  0  0  0  0
 17 19  1  0  0  0  0
 19 20  2  0  0  0  0
 20 21  1  0  0  0  0
 20 29  1  0  0  0  0
 21 22  2  0  0  0  0
 21 28  1  0  0  0  0
 22 23  1  0  0  0  0
 22 27  1  0  0  0  0
 23 24  2  0  0  0  0
 23 26  1  0  0  0  0
 24 19  1  0  0  0  0
 24 25  1  0  0  0  0
M  END
>  <MOLFORMULA>
C17 H12 F5 N O5 S

>  <MOLWEIGHT>
4.373398000000000e+002

>  <code>
CC69626

>  <appearance>
Solid

>  <purity>
97%

>  <product_name>
pentafluorophenyl 2-(morpholinosulfonyl)benzoate

>  <cansmi>
O=C(c1ccccc1S(=O)(=O)N1CCOCC1)Oc1c(F)c(F)c(c(c1F)F)F

>  <HBA2>
6

>  <HBD>
0

>  <logP>
3.6409

>  <TPSA>
81.29

>  <MW>
437.338

$$$$

 OpenBabel02131616352D

 30 32  0  0  0  0  0  0  0  0999 V2000
    1.2736    0.6209    0.0000 C   0  0  0  0  0  0  0  0  0  0  0  0
    1.2724   -0.2065    0.0000 C   0  0  0  0  0  0  0  0  0  0  0  0
    1.9872   -0.6194    0.0000 N   0  0  0  0  0  0  0  0  0  0  0  0
    2.7037   -0.2060    0.0000 C   0  0  0  0  0  0  0  0  0  0  0  0
    2.7008    0.6245    0.0000 C   0  0  0  0  0  0  0  0  0  0  0  0
    1.9854    1.0336    0.0000 C   0  0  0  0  0  0  0  0  0  0  0  0
    0.5590    1.0332    0.0000 C   0  0  0  0  0  0  0  0  0  0  0  0
    0.5588    1.8582    0.0000 F   0  0  0  0  0  0  0  0  0  0  0  0
   -0.1554    0.6205    0.0000 F   0  0  0  0  0  0  0  0  0  0  0  0
   -0.1583    1.4458    0.0000 F   0  0  0  0  0  0  0  0  0  0  0  0
    3.4152   -0.6166    0.0000 C   0  0  0  0  0  0  0  0  0  0  0  0
    3.4152   -1.4428    0.0000 C   0  0  0  0  0  0  0  0  0  0  0  0
    4.1295   -1.8541    0.0000 C   0  0  0  0  0  0  0  0  0  0  0  0
    4.8443   -1.4404    0.0000 C   0  0  0  0  0  0  0  0  0  0  0  0
    4.8403   -0.6111    0.0000 C   0  0  0  0  0  0  0  0  0  0  0  0
    4.1255   -0.2035    0.0000 C   0  0  0  0  0  0  0  0  0  0  0  0
    5.5599   -1.8508    0.0000 C   0  0  0  0  0  0  0  0  0  0  0  0
    5.5623   -2.6758    0.0000 O   0  0  0  0  0  0  0  0  0  0  0  0
    6.2732   -1.4362    0.0000 O   0  0  0  0  0  0  0  0  0  0  0  0
    6.9889   -1.8467    0.0000 C   0  0  0  0  0  0  0  0  0  0  0  0
    6.9871   -2.6719    0.0000 C   0  0  0  0  0  0  0  0  0  0  0  0
    7.7019   -3.0823    0.0000 C   0  0  0  0  0  0  0  0  0  0  0  0
    8.4162   -2.6676    0.0000 C   0  0  0  0  0  0  0  0  0  0  0  0
    8.4111   -1.8384    0.0000 C   0  0  0  0  0  0  0  0  0  0  0  0
    7.6957   -1.4318    0.0000 C   0  0  0  0  0  0  0  0  0  0  0  0
    7.6900   -0.6068    0.0000 F   0  0  0  0  0  0  0  0  0  0  0  0
    6.2727   -3.0845    0.0000 F   0  0  0  0  0  0  0  0  0  0  0  0
    9.1229   -1.4213    0.0000 F   0  0  0  0  0  0  0  0  0  0  0  0
    7.7039   -3.9073    0.0000 F   0  0  0  0  0  0  0  0  0  0  0  0
    9.1324   -3.0771    0.0000 F   0  0  0  0  0  0  0  0  0  0  0  0
  1  2  2  0  0  0  0
  1  7  1  0  0  0  0
  2  3  1  0  0  0  0
  3  4  2  0  0  0  0
  4 11  1  0  0  0  0
  4  5  1  0  0  0  0
  5  6  2  0  0  0  0
  6  1  1  0  0  0  0
  7  8  1  0  0  0  0
  7  9  1  0  0  0  0
  7 10  1  0  0  0  0
 11 12  2  0  0  0  0
 12 13  1  0  0  0  0
 13 14  2  0  0  0  0
 14 17  1  0  0  0  0
 14 15  1  0  0  0  0
 15 16  2  0  0  0  0
 16 11  1  0  0  0  0
 17 18  2  0  0  0  0
 17 19  1  0  0  0  0
 19 20  1  0  0  0  0
 20 21  2  0  0  0  0
 21 22  1  0  0  0  0
 21 27  1  0  0  0  0
 22 23  2  0  0  0  0
 22 29  1  0  0  0  0
 23 24  1  0  0  0  0
 23 30  1  0  0  0  0
 24 25  2  0  0  0  0
 24 28  1  0  0  0  0
 25 20  1  0  0  0  0
 25 26  1  0  0  0  0
M  END
>  <MOLFORMULA>
C19 H7 F8 N O2

>  <MOLWEIGHT>
4.332533000000000e+002

>  <code>
CC53026

>  <appearance>
Solid

>  <purity>
95%

>  <product_name>
pentafluorophenyl 4-[5-(trifluoromethyl)pyrid-2-yl]benzoate

>  <cansmi>
O=C(c1ccc(cc1)c1ccc(cn1)C(F)(F)F)Oc1c(F)c(F)c(c(c1F)F)F

>  <HBA2>
3

>  <HBD>
0

>  <logP>
5.6821

>  <TPSA>
39.19

>  <MW>
433.252

$$$$

 OpenBabel02131616352D

 29 32  0  0  0  0  0  0  0  0999 V2000
    1.7952   -5.1135    0.0000 C   0  0  0  0  0  0  0  0  0  0  0  0
    1.7991   -5.9135    0.0000 C   0  0  0  0  0  0  0  0  0  0  0  0
    2.4801   -4.7018    0.0000 S   0  0  0  0  0  0  0  0  0  0  0  0
    3.1733   -5.1026    0.0000 C   0  0  0  0  0  0  0  0  0  0  0  0
    3.1802   -5.9028    0.0000 C   0  0  0  0  0  0  0  0  0  0  0  0
    3.8707   -6.2968    0.0000 N   0  0  0  0  0  0  0  0  0  0  0  0
    4.5590   -5.8957    0.0000 C   0  0  0  0  0  0  0  0  0  0  0  0
    4.5523   -5.0923    0.0000 N   0  0  0  0  0  0  0  0  0  0  0  0
    3.8570   -4.7021    0.0000 C   0  0  0  0  0  0  0  0  0  0  0  0
    3.8536   -3.9021    0.0000 N   0  0  0  0  0  0  0  0  0  0  0  0
    4.5514   -3.4982    0.0000 C   0  0  0  0  0  0  0  0  0  0  0  0
    4.5473   -2.7018    0.0000 C   0  0  0  0  0  0  0  0  0  0  0  0
    3.8525   -2.3032    0.0000 C   0  0  0  0  0  0  0  0  0  0  0  0
    3.1601   -2.7072    0.0000 C   0  0  0  0  0  0  0  0  0  0  0  0
    3.1625   -3.5098    0.0000 C   0  0  0  0  0  0  0  0  0  0  0  0
    3.8496   -1.5032    0.0000 C   0  0  0  0  0  0  0  0  0  0  0  0
    4.5417   -1.0965    0.0000 O   0  0  0  0  0  0  0  0  0  0  0  0
    3.1545   -1.1057    0.0000 O   0  0  0  0  0  0  0  0  0  0  0  0
    4.5353   -0.2715    0.0000 C   0  0  0  0  0  0  0  0  0  0  0  0
    5.2494    0.1426    0.0000 C   0  0  0  0  0  0  0  0  0  0  0  0
    5.2434    0.9668    0.0000 C   0  0  0  0  0  0  0  0  0  0  0  0
    4.5253    1.3746    0.0000 C   0  0  0  0  0  0  0  0  0  0  0  0
    3.8117    0.9522    0.0000 C   0  0  0  0  0  0  0  0  0  0  0  0
    3.8212    0.1294    0.0000 C   0  0  0  0  0  0  0  0  0  0  0  0
    3.1116   -0.2916    0.0000 F   0  0  0  0  0  0  0  0  0  0  0  0
    3.0926    1.3567    0.0000 F   0  0  0  0  0  0  0  0  0  0  0  0
    4.5179    2.1996    0.0000 F   0  0  0  0  0  0  0  0  0  0  0  0
    5.9549    1.3844    0.0000 F   0  0  0  0  0  0  0  0  0  0  0  0
    5.9658   -0.2667    0.0000 F   0  0  0  0  0  0  0  0  0  0  0  0
  1  2  2  0  0  0  0
  2  5  1  0  0  0  0
  3  1  1  0  0  0  0
  4  5  2  0  0  0  0
  4  3  1  0  0  0  0
  5  6  1  0  0  0  0
  6  7  2  0  0  0  0
  7  8  1  0  0  0  0
  8  9  2  0  0  0  0
  9  4  1  0  0  0  0
 10  9  1  0  0  0  0
 10 11  1  0  0  0  0
 10 15  1  0  0  0  0
 11 12  1  0  0  0  0
 12 13  1  0  0  0  0
 13 14  1  0  0  0  0
 13 16  1  0  0  0  0
 14 15  1  0  0  0  0
 16 17  1  0  0  0  0
 16 18  2  0  0  0  0
 17 19  1  0  0  0  0
 19 20  2  0  0  0  0
 20 21  1  0  0  0  0
 20 29  1  0  0  0  0
 21 22  2  0  0  0  0
 21 28  1  0  0  0  0
 22 23  1  0  0  0  0
 22 27  1  0  0  0  0
 23 24  2  0  0  0  0
 23 26  1  0  0  0  0
 24 19  1  0  0  0  0
 24 25  1  0  0  0  0
M  END
>  <MOLFORMULA>
C18 H12 F5 N3 O2 S

>  <MOLWEIGHT>
4.293678000000000e+002

>  <code>
CC63826

>  <appearance>
Solid

>  <purity>
90%

>  <product_name>
pentafluorophenyl 1-thieno[3,2-d]pyrimidin-4-ylpiperidine-4-carboxylate

>  <cansmi>
O=C(C1CCN(CC1)c1ncnc2c1scc2)Oc1c(F)c(F)c(c(c1F)F)F

>  <HBA2>
6

>  <HBD>
0

>  <logP>
4.2738

>  <TPSA>
83.56

>  <MW>
429.364

$$$$

 OpenBabel02131616352D

 27 28  0  0  0  0  0  0  0  0999 V2000
    4.8924   -0.0487    0.0000 C   0  0  0  0  0  0  0  0  0  0  0  0
    4.1758   -0.4622    0.0000 C   0  0  0  0  0  0  0  0  0  0  0  0
    4.1766   -1.2877    0.0000 C   0  0  0  0  0  0  0  0  0  0  0  0
    4.8933   -1.7007    0.0000 C   0  0  0  0  0  0  0  0  0  0  0  0
    5.6107   -1.2821    0.0000 C   0  0  0  0  0  0  0  0  0  0  0  0
    5.6063   -0.4580    0.0000 C   0  0  0  0  0  0  0  0  0  0  0  0
    3.4612   -0.0500    0.0000 F   0  0  0  0  0  0  0  0  0  0  0  0
    4.8912    0.7763    0.0000 F   0  0  0  0  0  0  0  0  0  0  0  0
    6.3190   -0.0425    0.0000 F   0  0  0  0  0  0  0  0  0  0  0  0
    6.3272   -1.6910    0.0000 F   0  0  0  0  0  0  0  0  0  0  0  0
    4.8956   -2.5257    0.0000 F   0  0  0  0  0  0  0  0  0  0  0  0
    3.4626   -1.7009    0.0000 O   0  0  0  0  0  0  0  0  0  0  0  0
    2.7477   -1.2891    0.0000 C   0  0  0  0  0  0  0  0  0  0  0  0
    2.0336   -1.7023    0.0000 C   0  0  0  0  0  0  0  0  0  0  0  0
    2.7469   -0.4641    0.0000 O   0  0  0  0  0  0  0  0  0  0  0  0
    1.3221   -1.2883    0.0000 C   0  0  0  0  0  0  0  0  0  0  0  0
    0.6101   -1.6979    0.0000 C   0  0  0  0  0  0  0  0  0  0  0  0
    0.6067   -2.5233    0.0000 N   0  0  0  0  0  0  0  0  0  0  0  0
    1.3214   -2.9373    0.0000 C   0  0  0  0  0  0  0  0  0  0  0  0
    2.0396   -2.5260    0.0000 C   0  0  0  0  0  0  0  0  0  0  0  0
   -0.1090   -2.9338    0.0000 C   0  0  0  0  0  0  0  0  0  0  0  0
   -0.8223   -2.5192    0.0000 O   0  0  0  0  0  0  0  0  0  0  0  0
   -0.1113   -3.7588    0.0000 O   0  0  0  0  0  0  0  0  0  0  0  0
   -0.8269   -4.1692    0.0000 C   0  0  0  0  0  0  0  0  0  0  0  0
   -0.8293   -4.9942    0.0000 C   0  0  0  0  0  0  0  0  0  0  0  0
   -1.5402   -3.7547    0.0000 C   0  0  0  0  0  0  0  0  0  0  0  0
   -1.5431   -4.5754    0.0000 C   0  0  0  0  0  0  0  0  0  0  0  0
  1  2  2  0  0  0  0
  1  8  1  0  0  0  0
  2  7  1  0  0  0  0
  2  3  1  0  0  0  0
  3  4  2  0  0  0  0
  3 12  1  0  0  0  0
  4  5  1  0  0  0  0
  4 11  1  0  0  0  0
  5 10  1  0  0  0  0
  5  6  2  0  0  0  0
  6  9  1  0  0  0  0
  6  1  1  0  0  0  0
 12 13  1  0  0  0  0
 13 14  1  0  0  0  0
 13 15  2  0  0  0  0
 14 16  1  0  0  0  0
 14 20  1  0  0  0  0
 16 17  1  0  0  0  0
 17 18  1  0  0  0  0
 18 19  1  0  0  0  0
 18 21  1  0  0  0  0
 19 20  1  0  0  0  0
 21 22  2  0  0  0  0
 21 23  1  0  0  0  0
 23 24  1  0  0  0  0
 24 25  1  0  0  0  0
 24 26  1  0  0  0  0
 24 27  1  0  0  0  0
M  END
>  <MOLFORMULA>
C17 H18 F5 N O4

>  <MOLWEIGHT>
3.953222000000000e+002

>  <code>
MO08295

>  <appearance>
Solid

>  <purity>
97%

>  <product_name>
1-tert-butyl 4-(pentafluorophenyl) piperidine-1,4-dicarboxylate

>  <cansmi>
O=C(C1CCN(CC1)C(=O)OC(C)(C)C)Oc1c(F)c(F)c(c(c1F)F)F

>  <HBA2>
5

>  <HBD>
0

>  <logP>
3.8725

>  <TPSA>
55.84

>  <MW>
395.321

$$$$

 OpenBabel02131616352D

 26 28  0  0  0  0  0  0  0  0999 V2000
   -1.2524   -1.4720    0.0000 S   0  0  0  0  0  0  0  0  0  0  0  0
   -0.5789   -0.9854    0.0000 C   0  0  0  0  0  0  0  0  0  0  0  0
   -0.8399   -0.2013    0.0000 C   0  0  0  0  0  0  0  0  0  0  0  0
   -1.6649   -0.2013    0.0000 C   0  0  0  0  0  0  0  0  0  0  0  0
   -1.9217   -0.9854    0.0000 C   0  0  0  0  0  0  0  0  0  0  0  0
    0.8500   -0.1583    0.0000 C   0  0  0  0  0  0  0  0  0  0  0  0
    0.8500   -0.9833    0.0000 N   0  0  0  0  0  0  0  0  0  0  0  0
    1.5579   -1.3958    0.0000 C   0  0  0  0  0  0  0  0  0  0  0  0
    2.2740   -0.9833    0.0000 C   0  0  0  0  0  0  0  0  0  0  0  0
    2.2740   -0.1583    0.0000 C   0  0  0  0  0  0  0  0  0  0  0  0
    1.5579    0.2542    0.0000 C   0  0  0  0  0  0  0  0  0  0  0  0
    0.1361   -1.3969    0.0000 C   0  0  0  0  0  0  0  0  0  0  0  0
    2.9883    0.2545    0.0000 C   0  0  0  0  0  0  0  0  0  0  0  0
    3.7030   -0.1576    0.0000 O   0  0  0  0  0  0  0  0  0  0  0  0
    2.9879    1.0795    0.0000 O   0  0  0  0  0  0  0  0  0  0  0  0
    4.4172    0.2553    0.0000 C   0  0  0  0  0  0  0  0  0  0  0  0
    5.1285   -0.1588    0.0000 C   0  0  0  0  0  0  0  0  0  0  0  0
    5.8423    0.2534    0.0000 C   0  0  0  0  0  0  0  0  0  0  0  0
    5.8423    1.0793    0.0000 C   0  0  0  0  0  0  0  0  0  0  0  0
    5.1226    1.4913    0.0000 C   0  0  0  0  0  0  0  0  0  0  0  0
    4.4118    1.0767    0.0000 C   0  0  0  0  0  0  0  0  0  0  0  0
    3.6951    1.4853    0.0000 F   0  0  0  0  0  0  0  0  0  0  0  0
    5.1193    2.3163    0.0000 F   0  0  0  0  0  0  0  0  0  0  0  0
    6.5560    1.4931    0.0000 F   0  0  0  0  0  0  0  0  0  0  0  0
    6.5568   -0.1591    0.0000 F   0  0  0  0  0  0  0  0  0  0  0  0
    5.1271   -0.9838    0.0000 F   0  0  0  0  0  0  0  0  0  0  0  0
  1  2  1  0  0  0  0
  2  3  2  0  0  0  0
  3  4  1  0  0  0  0
  4  5  2  0  0  0  0
  5  1  1  0  0  0  0
  6 11  1  0  0  0  0
  6  7  1  0  0  0  0
  7  8  1  0  0  0  0
  7 12  1  0  0  0  0
  8  9  1  0  0  0  0
  9 10  1  0  0  0  0
 10 13  1  0  0  0  0
 10 11  1  0  0  0  0
 12  2  1  0  0  0  0
 13 14  1  0  0  0  0
 13 15  2  0  0  0  0
 14 16  1  0  0  0  0
 16 17  2  0  0  0  0
 17 18  1  0  0  0  0
 17 26  1  0  0  0  0
 18 19  2  0  0  0  0
 18 25  1  0  0  0  0
 19 20  1  0  0  0  0
 19 24  1  0  0  0  0
 20 21  2  0  0  0  0
 20 23  1  0  0  0  0
 21 16  1  0  0  0  0
 21 22  1  0  0  0  0
M  END
>  <MOLFORMULA>
C17 H14 F5 N O2 S

>  <MOLWEIGHT>
3.913586000000000e+002

>  <code>
CC66726

>  <appearance>
Solid

>  <purity>
97%

>  <product_name>
pentafluorophenyl 1-(thien-2-ylmethyl)piperidine-4-carboxylate

>  <cansmi>
O=C(C1CCN(CC1)Cc1cccs1)Oc1c(F)c(F)c(c(c1F)F)F

>  <HBA2>
4

>  <HBD>
0

>  <logP>
4.1991

>  <TPSA>
57.78

>  <MW>
391.356

$$$$

 OpenBabel02131616352D

 26 28  0  0  0  0  0  0  0  0999 V2000
    4.6848   -1.1250    0.0000 C   0  0  0  0  0  0  0  0  0  0  0  0
    4.6859   -1.7273    0.0000 C   0  0  0  0  0  0  0  0  0  0  0  0
    4.1669   -2.0277    0.0000 N   0  0  0  0  0  0  0  0  0  0  0  0
    3.6463   -1.7269    0.0000 C   0  0  0  0  0  0  0  0  0  0  0  0
    3.6492   -1.1213    0.0000 C   0  0  0  0  0  0  0  0  0  0  0  0
    4.1687   -0.8247    0.0000 C   0  0  0  0  0  0  0  0  0  0  0  0
    3.1270   -2.0257    0.0000 N   0  0  0  0  0  0  0  0  0  0  0  0
    3.1259   -2.6259    0.0000 C   0  0  0  0  0  0  0  0  0  0  0  0
    2.6107   -2.9247    0.0000 C   0  0  0  0  0  0  0  0  0  0  0  0
    2.0903   -2.6271    0.0000 S   0  0  0  0  0  0  0  0  0  0  0  0
    2.0896   -2.0261    0.0000 C   0  0  0  0  0  0  0  0  0  0  0  0
    2.6093   -1.7228    0.0000 C   0  0  0  0  0  0  0  0  0  0  0  0
    4.1667   -0.2292    0.0000 C   0  0  0  0  0  0  0  0  0  0  0  0
    4.6792    0.0667    0.0000 O   0  0  0  0  0  0  0  0  0  0  0  0
    3.6500    0.0708    0.0000 O   0  0  0  0  0  0  0  0  0  0  0  0
    4.6750    0.6625    0.0000 C   0  0  0  0  0  0  0  0  0  0  0  0
    5.1906    0.9627    0.0000 C   0  0  0  0  0  0  0  0  0  0  0  0
    5.1867    1.5580    0.0000 C   0  0  0  0  0  0  0  0  0  0  0  0
    4.6682    1.8529    0.0000 C   0  0  0  0  0  0  0  0  0  0  0  0
    4.1526    1.5481    0.0000 C   0  0  0  0  0  0  0  0  0  0  0  0
    4.1591    0.9539    0.0000 C   0  0  0  0  0  0  0  0  0  0  0  0
    5.7042    0.6708    0.0000 F   0  0  0  0  0  0  0  0  0  0  0  0
    5.6958    1.8583    0.0000 F   0  0  0  0  0  0  0  0  0  0  0  0
    4.6625    2.4542    0.0000 F   0  0  0  0  0  0  0  0  0  0  0  0
    3.6292    1.8500    0.0000 F   0  0  0  0  0  0  0  0  0  0  0  0
    3.6417    0.6583    0.0000 F   0  0  0  0  0  0  0  0  0  0  0  0
  1  2  2  0  0  0  0
  2  3  1  0  0  0  0
  3  4  2  0  0  0  0
  4  7  1  0  0  0  0
  4  5  1  0  0  0  0
  5  6  2  0  0  0  0
  6  1  1  0  0  0  0
  6 13  1  0  0  0  0
  7  8  1  0  0  0  0
  7 12  1  0  0  0  0
  8  9  1  0  0  0  0
  9 10  1  0  0  0  0
 10 11  1  0  0  0  0
 11 12  1  0  0  0  0
 13 14  1  0  0  0  0
 13 15  2  0  0  0  0
 14 16  1  0  0  0  0
 16 17  2  0  0  0  0
 17 18  1  0  0  0  0
 17 22  1  0  0  0  0
 18 19  2  0  0  0  0
 18 23  1  0  0  0  0
 19 20  1  0  0  0  0
 19 24  1  0  0  0  0
 20 21  2  0  0  0  0
 20 25  1  0  0  0  0
 21 16  1  0  0  0  0
 21 26  1  0  0  0  0
M  END
>  <MOLFORMULA>
C16 H11 F5 N2 O2 S

>  <MOLWEIGHT>
3.903309000000000e+002

>  <code>
CC50526

>  <appearance>
Solid

>  <purity>
97%

>  <product_name>
pentafluorophenyl 2-thiomorpholin-4-ylisonicotinate

>  <cansmi>
O=C(c1ccnc(c1)N1CCSCC1)Oc1c(F)c(F)c(c(c1F)F)F

>  <HBA2>
5

>  <HBD>
0

>  <logP>
3.6145

>  <TPSA>
67.73

>  <MW>
390.328

$$$$

 OpenBabel02131616352D

 27 29  0  0  0  0  0  0  0  0999 V2000
    4.9236   -7.6625    0.0000 C   0  0  0  0  0  0  0  0  0  0  0  0
    4.9224   -8.4898    0.0000 C   0  0  0  0  0  0  0  0  0  0  0  0
    5.6372   -8.9027    0.0000 N   0  0  0  0  0  0  0  0  0  0  0  0
    6.3537   -8.4894    0.0000 C   0  0  0  0  0  0  0  0  0  0  0  0
    6.3508   -7.6588    0.0000 C   0  0  0  0  0  0  0  0  0  0  0  0
    5.6354   -7.2497    0.0000 C   0  0  0  0  0  0  0  0  0  0  0  0
    4.2076   -8.9018    0.0000 O   0  0  0  0  0  0  0  0  0  0  0  0
    3.4935   -8.4887    0.0000 C   0  0  0  0  0  0  0  0  0  0  0  0
    3.4981   -7.6595    0.0000 C   0  0  0  0  0  0  0  0  0  0  0  0
    2.7881   -7.2465    0.0000 C   0  0  0  0  0  0  0  0  0  0  0  0
    2.0708   -7.6549    0.0000 O   0  0  0  0  0  0  0  0  0  0  0  0
    2.0682   -8.4809    0.0000 C   0  0  0  0  0  0  0  0  0  0  0  0
    2.7828   -8.8984    0.0000 C   0  0  0  0  0  0  0  0  0  0  0  0
    7.0625   -7.2417    0.0000 C   0  0  0  0  0  0  0  0  0  0  0  0
    7.0571   -6.4167    0.0000 O   0  0  0  0  0  0  0  0  0  0  0  0
    7.7797   -7.6495    0.0000 O   0  0  0  0  0  0  0  0  0  0  0  0
    8.4914   -7.2323    0.0000 C   0  0  0  0  0  0  0  0  0  0  0  0
    9.2056   -7.6413    0.0000 C   0  0  0  0  0  0  0  0  0  0  0  0
    9.9168   -7.2248    0.0000 C   0  0  0  0  0  0  0  0  0  0  0  0
    9.9118   -6.3989    0.0000 C   0  0  0  0  0  0  0  0  0  0  0  0
    9.1897   -5.9913    0.0000 C   0  0  0  0  0  0  0  0  0  0  0  0
    8.4814   -6.4101    0.0000 C   0  0  0  0  0  0  0  0  0  0  0  0
    7.7623   -6.0058    0.0000 F   0  0  0  0  0  0  0  0  0  0  0  0
    9.1813   -5.1663    0.0000 F   0  0  0  0  0  0  0  0  0  0  0  0
   10.6230   -5.9807    0.0000 F   0  0  0  0  0  0  0  0  0  0  0  0
   10.6338   -7.6329    0.0000 F   0  0  0  0  0  0  0  0  0  0  0  0
    9.2096   -8.4662    0.0000 F   0  0  0  0  0  0  0  0  0  0  0  0
  1  2  2  0  0  0  0
  2  7  1  0  0  0  0
  2  3  1  0  0  0  0
  3  4  2  0  0  0  0
  4  5  1  0  0  0  0
  5 14  1  0  0  0  0
  5  6  2  0  0  0  0
  6  1  1  0  0  0  0
  7  8  1  0  0  0  0
  8  9  1  0  0  0  0
  8 13  1  0  0  0  0
  9 10  1  0  0  0  0
 10 11  1  0  0  0  0
 11 12  1  0  0  0  0
 12 13  1  0  0  0  0
 14 15  2  0  0  0  0
 14 16  1  0  0  0  0
 16 17  1  0  0  0  0
 17 18  2  0  0  0  0
 18 19  1  0  0  0  0
 18 27  1  0  0  0  0
 19 20  2  0  0  0  0
 19 26  1  0  0  0  0
 20 21  1  0  0  0  0
 20 25  1  0  0  0  0
 21 22  2  0  0  0  0
 21 24  1  0  0  0  0
 22 17  1  0  0  0  0
 22 23  1  0  0  0  0
M  END
>  <MOLFORMULA>
C17 H12 F5 N O4

>  <MOLWEIGHT>
3.892748000000000e+002

>  <code>
CC58326

>  <appearance>
Solid

>  <purity>
97%

>  <product_name>
pentafluorophenyl 6-(tetrahydropyran-4-yloxy)nicotinate

>  <cansmi>
O=C(c1ccc(nc1)OC1CCOCC1)Oc1c(F)c(F)c(c(c1F)F)F

>  <HBA2>
5

>  <HBD>
0

>  <logP>
3.5541

>  <TPSA>
57.65

>  <MW>
389.273

$$$$

 OpenBabel02131616352D

 27 29  0  0  0  0  0  0  0  0999 V2000
    3.1250   -9.2333    0.0000 O   0  0  0  0  0  0  0  0  0  0  0  0
    3.1250   -8.4042    0.0000 C   0  0  0  0  0  0  0  0  0  0  0  0
    3.8370   -7.9958    0.0000 C   0  0  0  0  0  0  0  0  0  0  0  0
    4.5532   -8.4042    0.0000 C   0  0  0  0  0  0  0  0  0  0  0  0
    4.5532   -9.2333    0.0000 C   0  0  0  0  0  0  0  0  0  0  0  0
    3.8370   -9.6542    0.0000 C   0  0  0  0  0  0  0  0  0  0  0  0
    5.2712   -7.9906    0.0000 O   0  0  0  0  0  0  0  0  0  0  0  0
    5.9905   -8.4021    0.0000 C   0  0  0  0  0  0  0  0  0  0  0  0
    6.7069   -7.9877    0.0000 C   0  0  0  0  0  0  0  0  0  0  0  0
    7.4256   -8.3985    0.0000 C   0  0  0  0  0  0  0  0  0  0  0  0
    7.4272   -9.2285    0.0000 C   0  0  0  0  0  0  0  0  0  0  0  0
    6.7042   -9.6460    0.0000 C   0  0  0  0  0  0  0  0  0  0  0  0
    5.9884   -9.2287    0.0000 C   0  0  0  0  0  0  0  0  0  0  0  0
    6.7047   -7.1585    0.0000 C   0  0  0  0  0  0  0  0  0  0  0  0
    5.9850   -6.7437    0.0000 O   0  0  0  0  0  0  0  0  0  0  0  0
    7.4222   -6.7400    0.0000 O   0  0  0  0  0  0  0  0  0  0  0  0
    7.4201   -5.9108    0.0000 C   0  0  0  0  0  0  0  0  0  0  0  0
    6.6999   -5.5022    0.0000 C   0  0  0  0  0  0  0  0  0  0  0  0
    6.6974   -4.6738    0.0000 C   0  0  0  0  0  0  0  0  0  0  0  0
    7.4154   -4.2545    0.0000 C   0  0  0  0  0  0  0  0  0  0  0  0
    8.1375   -4.6737    0.0000 C   0  0  0  0  0  0  0  0  0  0  0  0
    8.1365   -5.5007    0.0000 C   0  0  0  0  0  0  0  0  0  0  0  0
    5.9829   -5.9176    0.0000 F   0  0  0  0  0  0  0  0  0  0  0  0
    5.9774   -4.2594    0.0000 F   0  0  0  0  0  0  0  0  0  0  0  0
    7.4144   -3.4253    0.0000 F   0  0  0  0  0  0  0  0  0  0  0  0
    8.8524   -4.2577    0.0000 F   0  0  0  0  0  0  0  0  0  0  0  0
    8.8505   -5.9141    0.0000 F   0  0  0  0  0  0  0  0  0  0  0  0
  1  2  1  0  0  0  0
  1  6  1  0  0  0  0
  2  3  1  0  0  0  0
  3  4  1  0  0  0  0
  4  7  1  0  0  0  0
  4  5  1  0  0  0  0
  5  6  1  0  0  0  0
  7  8  1  0  0  0  0
  8  9  2  0  0  0  0
  9 14  1  0  0  0  0
  9 10  1  0  0  0  0
 10 11  2  0  0  0  0
 11 12  1  0  0  0  0
 12 13  2  0  0  0  0
 13  8  1  0  0  0  0
 14 15  2  0  0  0  0
 14 16  1  0  0  0  0
 16 17  1  0  0  0  0
 17 18  2  0  0  0  0
 18 19  1  0  0  0  0
 18 23  1  0  0  0  0
 19 20  2  0  0  0  0
 19 24  1  0  0  0  0
 20 21  1  0  0  0  0
 20 25  1  0  0  0  0
 21 22  2  0  0  0  0
 21 26  1  0  0  0  0
 22 17  1  0  0  0  0
 22 27  1  0  0  0  0
M  END
>  <MOLFORMULA>
C18 H13 F5 O4

>  <MOLWEIGHT>
3.882867000000000e+002

>  <code>
CC52226

>  <appearance>
Solid

>  <purity>
97%

>  <product_name>
pentafluorophenyl 2-(tetrahydro-2H-pyran-4-yloxy)benzoate

>  <cansmi>
O=C(c1ccccc1OC1CCOCC1)Oc1c(F)c(F)c(c(c1F)F)F

>  <HBA2>
4

>  <HBD>
0

>  <logP>
4.1591

>  <TPSA>
44.76

>  <MW>
388.285

$$$$

 OpenBabel02131616352D

 27 29  0  0  0  0  0  0  0  0999 V2000
   -0.0917   -2.0958    0.0000 O   0  0  0  0  0  0  0  0  0  0  0  0
   -0.0917   -2.9208    0.0000 C   0  0  0  0  0  0  0  0  0  0  0  0
    0.6204   -3.3292    0.0000 C   0  0  0  0  0  0  0  0  0  0  0  0
    1.3324   -2.9208    0.0000 C   0  0  0  0  0  0  0  0  0  0  0  0
    1.3324   -2.0958    0.0000 C   0  0  0  0  0  0  0  0  0  0  0  0
    0.6204   -1.6792    0.0000 C   0  0  0  0  0  0  0  0  0  0  0  0
    2.0462   -3.3344    0.0000 O   0  0  0  0  0  0  0  0  0  0  0  0
    2.7613   -2.9229    0.0000 C   0  0  0  0  0  0  0  0  0  0  0  0
    3.4735   -3.3373    0.0000 C   0  0  0  0  0  0  0  0  0  0  0  0
    4.1881   -2.9265    0.0000 C   0  0  0  0  0  0  0  0  0  0  0  0
    4.1897   -2.1007    0.0000 C   0  0  0  0  0  0  0  0  0  0  0  0
    3.4709   -1.6873    0.0000 C   0  0  0  0  0  0  0  0  0  0  0  0
    2.7592   -2.1004    0.0000 C   0  0  0  0  0  0  0  0  0  0  0  0
    4.9043   -1.6883    0.0000 C   0  0  0  0  0  0  0  0  0  0  0  0
    5.6187   -2.1008    0.0000 O   0  0  0  0  0  0  0  0  0  0  0  0
    6.3332   -1.6884    0.0000 C   0  0  0  0  0  0  0  0  0  0  0  0
    7.0464   -2.1034    0.0000 C   0  0  0  0  0  0  0  0  0  0  0  0
    7.7605   -1.6917    0.0000 C   0  0  0  0  0  0  0  0  0  0  0  0
    7.7610   -0.8658    0.0000 C   0  0  0  0  0  0  0  0  0  0  0  0
    7.0416   -0.4534    0.0000 C   0  0  0  0  0  0  0  0  0  0  0  0
    6.3305   -0.8675    0.0000 C   0  0  0  0  0  0  0  0  0  0  0  0
    4.9044   -0.8633    0.0000 O   0  0  0  0  0  0  0  0  0  0  0  0
    7.0448   -2.9284    0.0000 F   0  0  0  0  0  0  0  0  0  0  0  0
    8.4747   -2.1046    0.0000 F   0  0  0  0  0  0  0  0  0  0  0  0
    8.4750   -0.4524    0.0000 F   0  0  0  0  0  0  0  0  0  0  0  0
    7.0388    0.3716    0.0000 F   0  0  0  0  0  0  0  0  0  0  0  0
    5.6146   -0.4575    0.0000 F   0  0  0  0  0  0  0  0  0  0  0  0
  1  2  1  0  0  0  0
  1  6  1  0  0  0  0
  2  3  1  0  0  0  0
  3  4  1  0  0  0  0
  4  7  1  0  0  0  0
  4  5  1  0  0  0  0
  5  6  1  0  0  0  0
  7  8  1  0  0  0  0
  8  9  2  0  0  0  0
  9 10  1  0  0  0  0
 10 11  2  0  0  0  0
 11 14  1  0  0  0  0
 11 12  1  0  0  0  0
 12 13  2  0  0  0  0
 13  8  1  0  0  0  0
 14 15  1  0  0  0  0
 14 22  2  0  0  0  0
 15 16  1  0  0  0  0
 16 17  2  0  0  0  0
 17 18  1  0  0  0  0
 17 23  1  0  0  0  0
 18 19  2  0  0  0  0
 18 24  1  0  0  0  0
 19 20  1  0  0  0  0
 19 25  1  0  0  0  0
 20 21  2  0  0  0  0
 20 26  1  0  0  0  0
 21 16  1  0  0  0  0
 21 27  1  0  0  0  0
M  END
>  <MOLFORMULA>
C18 H13 F5 O4

>  <MOLWEIGHT>
3.882867000000000e+002

>  <code>
CC52426

>  <appearance>
Solid

>  <purity>
97%

>  <product_name>
pentafluorophenyl 4-(tetrahydropyran-4-yloxy)benzoate

>  <cansmi>
O=C(c1ccc(cc1)OC1CCOCC1)Oc1c(F)c(F)c(c(c1F)F)F

>  <HBA2>
4

>  <HBD>
0

>  <logP>
4.1591

>  <TPSA>
44.76

>  <MW>
388.285

$$$$

 OpenBabel02131616352D

 27 29  0  0  0  0  0  0  0  0999 V2000
    9.1083    0.4000    0.0000 N   0  0  0  0  0  0  0  0  0  0  0  0
    9.1042   -0.4250    0.0000 C   0  0  0  0  0  0  0  0  0  0  0  0
    9.8168   -0.8430    0.0000 C   0  0  0  0  0  0  0  0  0  0  0  0
   10.5381   -0.4322    0.0000 C   0  0  0  0  0  0  0  0  0  0  0  0
   10.5423    0.3970    0.0000 C   0  0  0  0  0  0  0  0  0  0  0  0
    9.8251    0.8195    0.0000 C   0  0  0  0  0  0  0  0  0  0  0  0
    6.9694    1.6542    0.0000 C   0  0  0  0  0  0  0  0  0  0  0  0
    6.9641    0.8227    0.0000 C   0  0  0  0  0  0  0  0  0  0  0  0
    7.6732    0.4083    0.0000 N   0  0  0  0  0  0  0  0  0  0  0  0
    8.3923    0.8201    0.0000 C   0  0  0  0  0  0  0  0  0  0  0  0
    8.3936    1.6465    0.0000 C   0  0  0  0  0  0  0  0  0  0  0  0
    7.6839    2.0613    0.0000 N   0  0  0  0  0  0  0  0  0  0  0  0
    6.2375    0.4125    0.0000 C   0  0  0  0  0  0  0  0  0  0  0  0
   11.2542   -0.8458    0.0000 C   0  0  0  0  0  0  0  0  0  0  0  0
   11.2458   -1.6708    0.0000 O   0  0  0  0  0  0  0  0  0  0  0  0
   11.9708   -0.4250    0.0000 O   0  0  0  0  0  0  0  0  0  0  0  0
   12.6883   -0.8322    0.0000 C   0  0  0  0  0  0  0  0  0  0  0  0
   12.6908   -1.6553    0.0000 C   0  0  0  0  0  0  0  0  0  0  0  0
   13.4074   -2.0624    0.0000 C   0  0  0  0  0  0  0  0  0  0  0  0
   14.1198   -1.6446    0.0000 C   0  0  0  0  0  0  0  0  0  0  0  0
   14.1111   -0.8154    0.0000 C   0  0  0  0  0  0  0  0  0  0  0  0
   13.3939   -0.4120    0.0000 C   0  0  0  0  0  0  0  0  0  0  0  0
   13.3836    0.4130    0.0000 F   0  0  0  0  0  0  0  0  0  0  0  0
   14.8210   -0.3951    0.0000 F   0  0  0  0  0  0  0  0  0  0  0  0
   14.8379   -2.0509    0.0000 F   0  0  0  0  0  0  0  0  0  0  0  0
   13.4131   -2.8874    0.0000 F   0  0  0  0  0  0  0  0  0  0  0  0
   11.9784   -2.0713    0.0000 F   0  0  0  0  0  0  0  0  0  0  0  0
  1  2  1  0  0  0  0
  1  6  1  0  0  0  0
  2  3  1  0  0  0  0
  3  4  1  0  0  0  0
  4 14  1  0  0  0  0
  4  5  1  0  0  0  0
  5  6  1  0  0  0  0
  7  8  2  0  0  0  0
  8  9  1  0  0  0  0
  8 13  1  0  0  0  0
  9 10  2  0  0  0  0
 10  1  1  0  0  0  0
 10 11  1  0  0  0  0
 11 12  2  0  0  0  0
 12  7  1  0  0  0  0
 14 15  2  0  0  0  0
 14 16  1  0  0  0  0
 16 17  1  0  0  0  0
 17 18  2  0  0  0  0
 18 19  1  0  0  0  0
 18 27  1  0  0  0  0
 19 20  2  0  0  0  0
 19 26  1  0  0  0  0
 20 21  1  0  0  0  0
 20 25  1  0  0  0  0
 21 22  2  0  0  0  0
 21 24  1  0  0  0  0
 22 17  1  0  0  0  0
 22 23  1  0  0  0  0
M  END
>  <MOLFORMULA>
C17 H14 F5 N3 O2

>  <MOLWEIGHT>
3.873066000000000e+002

>  <code>
CC58926

>  <appearance>
Solid

>  <purity>
97%

>  <product_name>
pentafluorophenyl 1-(6-methylpyrazin-2-yl)piperidine-4-carboxylate

>  <cansmi>
O=C(C1CCN(CC1)c1cncc(n1)C)Oc1c(F)c(F)c(c(c1F)F)F

>  <HBA2>
5

>  <HBD>
0

>  <logP>
3.3675

>  <TPSA>
55.32

>  <MW>
387.304

$$$$

 OpenBabel02131616352D

 27 29  0  0  0  0  0  0  0  0999 V2000
   11.6632   -1.0872    0.0000 C   0  0  0  0  0  0  0  0  0  0  0  0
   12.3736   -1.4998    0.0000 C   0  0  0  0  0  0  0  0  0  0  0  0
   13.0840   -1.0910    0.0000 C   0  0  0  0  0  0  0  0  0  0  0  0
   13.0852   -0.2697    0.0000 C   0  0  0  0  0  0  0  0  0  0  0  0
   12.3702    0.1410    0.0000 C   0  0  0  0  0  0  0  0  0  0  0  0
   11.6627   -0.2702    0.0000 C   0  0  0  0  0  0  0  0  0  0  0  0
    8.0958   -1.5083    0.0000 N   0  0  0  0  0  0  0  0  0  0  0  0
    8.0917   -2.3333    0.0000 C   0  0  0  0  0  0  0  0  0  0  0  0
    8.8001   -2.7471    0.0000 C   0  0  0  0  0  0  0  0  0  0  0  0
    9.5173   -2.3405    0.0000 C   0  0  0  0  0  0  0  0  0  0  0  0
    9.5214   -1.5155    0.0000 C   0  0  3  0  0  0  0  0  0  0  0  0
    8.8085   -1.0971    0.0000 C   0  0  0  0  0  0  0  0  0  0  0  0
    5.9652   -0.2666    0.0000 C   0  0  0  0  0  0  0  0  0  0  0  0
    5.9599   -1.0898    0.0000 C   0  0  0  0  0  0  0  0  0  0  0  0
    6.6690   -1.5042    0.0000 N   0  0  0  0  0  0  0  0  0  0  0  0
    7.3840   -1.0965    0.0000 C   0  0  0  0  0  0  0  0  0  0  0  0
    7.3853   -0.2702    0.0000 C   0  0  0  0  0  0  0  0  0  0  0  0
    6.6755    0.1405    0.0000 N   0  0  0  0  0  0  0  0  0  0  0  0
    5.2417   -1.4958    0.0000 C   0  0  0  0  0  0  0  0  0  0  0  0
   10.2333   -1.0958    0.0000 C   0  0  0  0  0  0  0  0  0  0  0  0
   10.2292   -0.2708    0.0000 O   0  0  0  0  0  0  0  0  0  0  0  0
   10.9458   -1.5083    0.0000 O   0  0  0  0  0  0  0  0  0  0  0  0
   12.3667   -2.3208    0.0000 F   0  0  0  0  0  0  0  0  0  0  0  0
   13.7958   -1.5000    0.0000 F   0  0  0  0  0  0  0  0  0  0  0  0
   10.9458    0.1458    0.0000 F   0  0  0  0  0  0  0  0  0  0  0  0
   12.3625    0.9667    0.0000 F   0  0  0  0  0  0  0  0  0  0  0  0
   13.7958    0.1500    0.0000 F   0  0  0  0  0  0  0  0  0  0  0  0
  1  2  2  0  0  0  0
  2  3  1  0  0  0  0
  2 23  1  0  0  0  0
  3  4  2  0  0  0  0
  3 24  1  0  0  0  0
  4  5  1  0  0  0  0
  4 27  1  0  0  0  0
  5  6  2  0  0  0  0
  5 26  1  0  0  0  0
  6 25  1  0  0  0  0
  6  1  1  0  0  0  0
  7 12  1  0  0  0  0
  7  8  1  0  0  0  0
  8  9  1  0  0  0  0
  9 10  1  0  0  0  0
 10 11  1  0  0  0  0
 11 20  1  0  0  0  0
 11 12  1  0  0  0  0
 13 14  2  0  0  0  0
 14 15  1  0  0  0  0
 14 19  1  0  0  0  0
 15 16  2  0  0  0  0
 16 17  1  0  0  0  0
 16  7  1  0  0  0  0
 17 18  2  0  0  0  0
 18 13  1  0  0  0  0
 20 21  2  0  0  0  0
 20 22  1  0  0  0  0
 22  1  1  0  0  0  0
M  END
>  <MOLFORMULA>
C17 H14 F5 N3 O2

>  <MOLWEIGHT>
3.873066000000000e+002

>  <code>
CC59026

>  <appearance>
Solid

>  <purity>
97%

>  <product_name>
pentafluorophenyl 1-(6-methylpyrazin-2-yl)piperidine-3-carboxylate

>  <cansmi>
O=C(C1CCCN(C1)c1cncc(n1)C)Oc1c(F)c(F)c(c(c1F)F)F

>  <HBA2>
5

>  <HBD>
0

>  <logP>
3.3675

>  <TPSA>
55.32

>  <MW>
387.304

$$$$

 OpenBabel02131616352D

 27 29  0  0  0  0  0  0  0  0999 V2000
    2.3193   -1.9034    0.0000 N   0  0  0  0  0  0  0  0  0  0  0  0
    2.2302   -1.0791    0.0000 C   0  0  0  0  0  0  0  0  0  0  0  0
    1.4213   -0.8912    0.0000 C   0  0  0  0  0  0  0  0  0  0  0  0
    1.0027   -1.6021    0.0000 C   0  0  0  0  0  0  0  0  0  0  0  0
    1.5533   -2.2290    0.0000 N   0  0  0  0  0  0  0  0  0  0  0  0
    0.1773   -1.6883    0.0000 C   0  0  0  0  0  0  0  0  0  0  0  0
    2.8651   -0.5137    0.0000 C   0  0  0  0  0  0  0  0  0  0  0  0
    3.0247   -3.1369    0.0000 C   0  0  0  0  0  0  0  0  0  0  0  0
    3.7478   -3.5640    0.0000 C   0  0  0  0  0  0  0  0  0  0  0  0
    4.4692   -3.1688    0.0000 C   0  0  0  0  0  0  0  0  0  0  0  0
    4.4735   -2.3303    0.0000 C   0  0  0  0  0  0  0  0  0  0  0  0
    3.7456   -1.9051    0.0000 C   0  0  0  0  0  0  0  0  0  0  0  0
    3.0294   -2.3234    0.0000 C   0  0  0  0  0  0  0  0  0  0  0  0
    5.1790   -3.5881    0.0000 C   0  0  0  0  0  0  0  0  0  0  0  0
    5.1662   -4.4078    0.0000 O   0  0  0  0  0  0  0  0  0  0  0  0
    5.8979   -3.1856    0.0000 O   0  0  0  0  0  0  0  0  0  0  0  0
    6.6077   -3.6048    0.0000 C   0  0  0  0  0  0  0  0  0  0  0  0
    6.5877   -4.4265    0.0000 C   0  0  0  0  0  0  0  0  0  0  0  0
    7.2971   -4.8457    0.0000 C   0  0  0  0  0  0  0  0  0  0  0  0
    8.0165   -4.4431    0.0000 C   0  0  0  0  0  0  0  0  0  0  0  0
    8.0209   -3.6172    0.0000 C   0  0  0  0  0  0  0  0  0  0  0  0
    7.3184   -3.2039    0.0000 C   0  0  0  0  0  0  0  0  0  0  0  0
    7.3213   -2.3752    0.0000 F   0  0  0  0  0  0  0  0  0  0  0  0
    8.7430   -3.2090    0.0000 F   0  0  0  0  0  0  0  0  0  0  0  0
    8.7269   -4.8622    0.0000 F   0  0  0  0  0  0  0  0  0  0  0  0
    7.2878   -5.6672    0.0000 F   0  0  0  0  0  0  0  0  0  0  0  0
    5.8716   -4.8306    0.0000 F   0  0  0  0  0  0  0  0  0  0  0  0
  1  2  1  0  0  0  0
  2  7  1  0  0  0  0
  2  3  2  0  0  0  0
  3  4  1  0  0  0  0
  4  5  2  0  0  0  0
  4  6  1  0  0  0  0
  5  1  1  0  0  0  0
  8  9  2  0  0  0  0
  9 10  1  0  0  0  0
 10 14  1  0  0  0  0
 10 11  2  0  0  0  0
 11 12  1  0  0  0  0
 12 13  2  0  0  0  0
 13  1  1  0  0  0  0
 13  8  1  0  0  0  0
 14 15  2  0  0  0  0
 14 16  1  0  0  0  0
 16 17  1  0  0  0  0
 17 18  2  0  0  0  0
 18 19  1  0  0  0  0
 18 27  1  0  0  0  0
 19 20  2  0  0  0  0
 19 26  1  0  0  0  0
 20 21  1  0  0  0  0
 20 25  1  0  0  0  0
 21 22  2  0  0  0  0
 21 24  1  0  0  0  0
 22 17  1  0  0  0  0
 22 23  1  0  0  0  0
M  END
>  <MOLFORMULA>
C18 H11 F5 N2 O2

>  <MOLWEIGHT>
3.822869000000000e+002

>  <code>
CC68226

>  <appearance>
Solid

>  <purity>
97%

>  <product_name>
pentafluorophenyl 4-(3,5-dimethyl-1H-pyrazol-1-yl)benzoate

>  <cansmi>
Cc1nn(c(c1)C)c1ccc(cc1)C(=O)Oc1c(F)c(F)c(c(c1F)F)F

>  <HBA2>
4

>  <HBD>
0

>  <logP>
4.4038

>  <TPSA>
44.12

>  <MW>
382.284

$$$$

 OpenBabel02131616352D

 27 29  0  0  0  0  0  0  0  0999 V2000
    0.7277  -10.8125    0.0000 C   0  0  0  0  0  0  0  0  0  0  0  0
    0.7266   -9.9768    0.0000 C   0  0  0  0  0  0  0  0  0  0  0  0
    1.4414   -9.5640    0.0000 N   0  0  0  0  0  0  0  0  0  0  0  0
    2.1620   -9.9773    0.0000 C   0  0  0  0  0  0  0  0  0  0  0  0
    2.1591  -10.8162    0.0000 C   0  0  0  0  0  0  0  0  0  0  0  0
    1.4396  -11.2295    0.0000 C   0  0  0  0  0  0  0  0  0  0  0  0
    2.8819   -9.5660    0.0000 O   0  0  0  0  0  0  0  0  0  0  0  0
    3.5917   -9.9875    0.0000 C   0  0  0  0  0  0  0  0  0  0  0  0
    4.3080   -9.5888    0.0000 C   0  0  0  0  0  0  0  0  0  0  0  0
    5.0175  -10.0099    0.0000 C   0  0  0  0  0  0  0  0  0  0  0  0
    5.0027  -10.8332    0.0000 C   0  0  0  0  0  0  0  0  0  0  0  0
    4.2794  -11.2386    0.0000 C   0  0  0  0  0  0  0  0  0  0  0  0
    3.5756  -10.8080    0.0000 C   0  0  0  0  0  0  0  0  0  0  0  0
    5.7343   -9.6088    0.0000 C   0  0  0  0  0  0  0  0  0  0  0  0
    6.4421  -10.0326    0.0000 O   0  0  0  0  0  0  0  0  0  0  0  0
    5.7474   -8.7880    0.0000 O   0  0  0  0  0  0  0  0  0  0  0  0
    7.1631   -9.6315    0.0000 C   0  0  0  0  0  0  0  0  0  0  0  0
    7.8681  -10.0575    0.0000 C   0  0  0  0  0  0  0  0  0  0  0  0
    8.5886   -9.6571    0.0000 C   0  0  0  0  0  0  0  0  0  0  0  0
    8.6021   -8.8313    0.0000 C   0  0  0  0  0  0  0  0  0  0  0  0
    7.8893   -8.4076    0.0000 C   0  0  0  0  0  0  0  0  0  0  0  0
    7.1717   -8.8104    0.0000 C   0  0  0  0  0  0  0  0  0  0  0  0
    6.4620   -8.3899    0.0000 F   0  0  0  0  0  0  0  0  0  0  0  0
    7.8995   -7.5827    0.0000 F   0  0  0  0  0  0  0  0  0  0  0  0
    9.3225   -8.4292    0.0000 F   0  0  0  0  0  0  0  0  0  0  0  0
    9.2962  -10.0812    0.0000 F   0  0  0  0  0  0  0  0  0  0  0  0
    7.8532  -10.8824    0.0000 F   0  0  0  0  0  0  0  0  0  0  0  0
  1  2  2  0  0  0  0
  2  3  1  0  0  0  0
  3  4  2  0  0  0  0
  4  7  1  0  0  0  0
  4  5  1  0  0  0  0
  5  6  2  0  0  0  0
  6  1  1  0  0  0  0
  7  8  1  0  0  0  0
  8  9  2  0  0  0  0
  9 10  1  0  0  0  0
 10 14  1  0  0  0  0
 10 11  2  0  0  0  0
 11 12  1  0  0  0  0
 12 13  2  0  0  0  0
 13  8  1  0  0  0  0
 14 15  1  0  0  0  0
 14 16  2  0  0  0  0
 15 17  1  0  0  0  0
 17 18  2  0  0  0  0
 18 19  1  0  0  0  0
 18 27  1  0  0  0  0
 19 20  2  0  0  0  0
 19 26  1  0  0  0  0
 20 21  1  0  0  0  0
 20 25  1  0  0  0  0
 21 22  2  0  0  0  0
 21 24  1  0  0  0  0
 22 17  1  0  0  0  0
 22 23  1  0  0  0  0
M  END
>  <MOLFORMULA>
C18 H8 F5 N O3

>  <MOLWEIGHT>
3.812552000000000e+002

>  <code>
CC50226

>  <appearance>
Solid

>  <purity>
97%

>  <product_name>
pentafluorophenyl 3-(pyrid-2-yloxy)benzoate

>  <cansmi>
O=C(c1cccc(c1)Oc1ccccn1)Oc1c(F)c(F)c(c(c1F)F)F

>  <HBA2>
4

>  <HBD>
0

>  <logP>
4.7886

>  <TPSA>
48.42

>  <MW>
381.253

$$$$

 OpenBabel02131616352D

 25 27  0  0  0  0  0  0  0  0999 V2000
    2.8667   -3.7250    0.0000 S   0  0  0  0  0  0  0  0  0  0  0  0
    3.5360   -3.2425    0.0000 C   0  0  0  0  0  0  0  0  0  0  0  0
    3.2792   -2.4542    0.0000 C   0  0  0  0  0  0  0  0  0  0  0  0
    2.4542   -2.4542    0.0000 N   0  0  0  0  0  0  0  0  0  0  0  0
    2.1974   -3.2425    0.0000 C   0  0  0  0  0  0  0  0  0  0  0  0
    1.4094   -3.5005    0.0000 N   0  0  0  0  0  0  0  0  0  0  0  0
    0.7961   -2.9472    0.0000 C   0  0  0  0  0  0  0  0  0  0  0  0
    0.0147   -3.2003    0.0000 C   0  0  0  0  0  0  0  0  0  0  0  0
   -0.1599   -4.0070    0.0000 O   0  0  0  0  0  0  0  0  0  0  0  0
    0.4534   -4.5603    0.0000 C   0  0  0  0  0  0  0  0  0  0  0  0
    1.2413   -4.3068    0.0000 C   0  0  0  0  0  0  0  0  0  0  0  0
    3.7638   -1.7866    0.0000 C   0  0  0  0  0  0  0  0  0  0  0  0
    4.5843   -1.8725    0.0000 O   0  0  0  0  0  0  0  0  0  0  0  0
    3.4280   -1.0330    0.0000 O   0  0  0  0  0  0  0  0  0  0  0  0
    5.0690   -1.2049    0.0000 C   0  0  0  0  0  0  0  0  0  0  0  0
    5.8894   -1.2959    0.0000 C   0  0  0  0  0  0  0  0  0  0  0  0
    6.3739   -0.6291    0.0000 C   0  0  0  0  0  0  0  0  0  0  0  0
    6.0381    0.1254    0.0000 C   0  0  0  0  0  0  0  0  0  0  0  0
    5.2130    0.2091    0.0000 C   0  0  0  0  0  0  0  0  0  0  0  0
    4.7322   -0.4586    0.0000 C   0  0  0  0  0  0  0  0  0  0  0  0
    3.9113   -0.3762    0.0000 F   0  0  0  0  0  0  0  0  0  0  0  0
    4.8745    0.9615    0.0000 F   0  0  0  0  0  0  0  0  0  0  0  0
    6.5218    0.7937    0.0000 F   0  0  0  0  0  0  0  0  0  0  0  0
    7.1943   -0.7155    0.0000 F   0  0  0  0  0  0  0  0  0  0  0  0
    6.2227   -2.0506    0.0000 F   0  0  0  0  0  0  0  0  0  0  0  0
  1  2  1  0  0  0  0
  2  3  2  0  0  0  0
  3 12  1  0  0  0  0
  3  4  1  0  0  0  0
  4  5  2  0  0  0  0
  5  1  1  0  0  0  0
  5  6  1  0  0  0  0
  6 11  1  0  0  0  0
  6  7  1  0  0  0  0
  7  8  1  0  0  0  0
  8  9  1  0  0  0  0
  9 10  1  0  0  0  0
 10 11  1  0  0  0  0
 12 13  1  0  0  0  0
 12 14  2  0  0  0  0
 13 15  1  0  0  0  0
 15 16  2  0  0  0  0
 16 17  1  0  0  0  0
 16 25  1  0  0  0  0
 17 18  2  0  0  0  0
 17 24  1  0  0  0  0
 18 19  1  0  0  0  0
 18 23  1  0  0  0  0
 19 20  2  0  0  0  0
 19 22  1  0  0  0  0
 20 15  1  0  0  0  0
 20 21  1  0  0  0  0
M  END
>  <MOLFORMULA>
C14 H9 F5 N2 O3 S

>  <MOLWEIGHT>
3.802921000000000e+002

>  <code>
CC62826

>  <appearance>
Solid

>  <purity>
97%

>  <product_name>
pentafluorophenyl 2-morpholino-1,3-thiazole-4-carboxylate

>  <cansmi>
O=C(c1csc(n1)N1CCOCC1)Oc1c(F)c(F)c(c(c1F)F)F

>  <HBA2>
6

>  <HBD>
0

>  <logP>
2.9594

>  <TPSA>
79.9

>  <MW>
380.29

$$$$

 OpenBabel02131616352D

 25 27  0  0  0  0  0  0  0  0999 V2000
    0.3778   -3.9354    0.0000 C   0  0  0  0  0  0  0  0  0  0  0  0
    0.3754   -4.7229    0.0000 C   0  0  0  0  0  0  0  0  0  0  0  0
    1.0570   -5.1208    0.0000 S   0  0  0  0  0  0  0  0  0  0  0  0
    1.7352   -3.9396    0.0000 C   0  0  0  0  0  0  0  0  0  0  0  0
    1.7246   -4.7293    0.0000 C   0  0  0  0  0  0  0  0  0  0  0  0
    2.4006   -5.1253    0.0000 C   0  0  0  0  0  0  0  0  0  0  0  0
    3.0916   -4.7403    0.0000 C   0  0  0  0  0  0  0  0  0  0  0  0
    3.0938   -3.9506    0.0000 O   0  0  0  0  0  0  0  0  0  0  0  0
    2.4133   -3.5459    0.0000 C   0  0  3  0  0  0  0  0  0  0  0  0
    2.4185   -2.7606    0.0000 C   0  0  0  0  0  0  0  0  0  0  0  0
    3.1017   -2.3745    0.0000 C   0  0  0  0  0  0  0  0  0  0  0  0
    3.1069   -1.5893    0.0000 O   0  0  0  0  0  0  0  0  0  0  0  0
    3.7797   -2.7696    0.0000 O   0  0  0  0  0  0  0  0  0  0  0  0
    1.6958   -3.1333    0.0000 C   0  0  0  0  0  0  0  0  0  0  0  0
    4.4958   -2.3599    0.0000 C   0  0  0  0  0  0  0  0  0  0  0  0
    5.2068   -2.7774    0.0000 C   0  0  0  0  0  0  0  0  0  0  0  0
    5.9224   -2.3684    0.0000 C   0  0  0  0  0  0  0  0  0  0  0  0
    5.9262   -1.5425    0.0000 C   0  0  0  0  0  0  0  0  0  0  0  0
    5.2083   -1.1273    0.0000 C   0  0  0  0  0  0  0  0  0  0  0  0
    4.4956   -1.5387    0.0000 C   0  0  0  0  0  0  0  0  0  0  0  0
    3.7811   -1.1263    0.0000 F   0  0  0  0  0  0  0  0  0  0  0  0
    5.2087   -0.3023    0.0000 F   0  0  0  0  0  0  0  0  0  0  0  0
    6.6417   -1.1319    0.0000 F   0  0  0  0  0  0  0  0  0  0  0  0
    6.6351   -2.7841    0.0000 F   0  0  0  0  0  0  0  0  0  0  0  0
    5.2020   -3.6024    0.0000 F   0  0  0  0  0  0  0  0  0  0  0  0
  1  2  2  0  0  0  0
  2  3  1  0  0  0  0
  3  5  1  0  0  0  0
  4  1  1  0  0  0  0
  4  5  2  0  0  0  0
  4  9  1  0  0  0  0
  5  6  1  0  0  0  0
  6  7  1  0  0  0  0
  7  8  1  0  0  0  0
  8  9  1  0  0  0  0
  9 14  1  0  0  0  0
  9 10  1  0  0  0  0
 10 11  1  0  0  0  0
 11 12  2  0  0  0  0
 11 13  1  0  0  0  0
 13 15  1  0  0  0  0
 15 16  2  0  0  0  0
 16 17  1  0  0  0  0
 16 25  1  0  0  0  0
 17 18  2  0  0  0  0
 17 24  1  0  0  0  0
 18 19  1  0  0  0  0
 18 23  1  0  0  0  0
 19 20  2  0  0  0  0
 19 22  1  0  0  0  0
 20 15  1  0  0  0  0
 20 21  1  0  0  0  0
M  END
>  <MOLFORMULA>
C16 H11 F5 O3 S

>  <MOLWEIGHT>
3.783159000000000e+002

>  <code>
CC61826

>  <appearance>
Liquid

>  <purity>
97%

>  <product_name>
pentafluorophenyl (4-methyl-6,7-dihydro-4H-thieno[3,2-c]pyran-4-yl)acetate

>  <cansmi>
O=C(CC1(C)OCCc2c1ccs2)Oc1c(F)c(F)c(c(c1F)F)F

>  <HBA2>
4

>  <HBD>
0

>  <logP>
4.2272

>  <TPSA>
63.77

>  <MW>
378.314

$$$$

 OpenBabel02131616352D

 26 28  0  0  0  0  0  0  0  0999 V2000
   -0.1889    0.0000    0.0000 C   0  0  0  0  0  0  0  0  0  0  0  0
   -0.1901   -0.8273    0.0000 N   0  0  0  0  0  0  0  0  0  0  0  0
    0.5247   -1.2402    0.0000 C   0  0  0  0  0  0  0  0  0  0  0  0
    1.2412   -0.8269    0.0000 N   0  0  0  0  0  0  0  0  0  0  0  0
    1.2383    0.0037    0.0000 C   0  0  0  0  0  0  0  0  0  0  0  0
    0.5229    0.4128    0.0000 C   0  0  0  0  0  0  0  0  0  0  0  0
    0.5167    1.2417    0.0000 C   0  0  0  0  0  0  0  0  0  0  0  0
    1.2292    1.6583    0.0000 O   0  0  0  0  0  0  0  0  0  0  0  0
   -0.2000    1.6542    0.0000 O   0  0  0  0  0  0  0  0  0  0  0  0
    2.0250    1.4458    0.0000 C   0  0  0  0  0  0  0  0  0  0  0  0
    2.2365    0.6486    0.0000 C   0  0  0  0  0  0  0  0  0  0  0  0
    3.0315    0.4360    0.0000 C   0  0  0  0  0  0  0  0  0  0  0  0
    3.6144    1.0192    0.0000 C   0  0  0  0  0  0  0  0  0  0  0  0
    3.3968    1.8181    0.0000 C   0  0  0  0  0  0  0  0  0  0  0  0
    2.6022    2.0270    0.0000 C   0  0  0  0  0  0  0  0  0  0  0  0
    1.6458    0.0667    0.0000 F   0  0  0  0  0  0  0  0  0  0  0  0
    3.2417   -0.3583    0.0000 F   0  0  0  0  0  0  0  0  0  0  0  0
    4.3250    0.6083    0.0000 F   0  0  0  0  0  0  0  0  0  0  0  0
    3.9792    2.4083    0.0000 F   0  0  0  0  0  0  0  0  0  0  0  0
    2.3833    2.8292    0.0000 F   0  0  0  0  0  0  0  0  0  0  0  0
    0.5167   -2.0625    0.0000 N   0  0  0  0  0  0  0  0  0  0  0  0
   -0.2013   -2.4654    0.0000 C   0  0  0  0  0  0  0  0  0  0  0  0
   -0.2113   -3.2841    0.0000 C   0  0  0  0  0  0  0  0  0  0  0  0
    0.4950   -3.7061    0.0000 O   0  0  0  0  0  0  0  0  0  0  0  0
    1.2129   -3.3031    0.0000 C   0  0  0  0  0  0  0  0  0  0  0  0
    1.2246   -2.4783    0.0000 C   0  0  0  0  0  0  0  0  0  0  0  0
  1  2  2  0  0  0  0
  2  3  1  0  0  0  0
  3  4  2  0  0  0  0
  3 21  1  0  0  0  0
  4  5  1  0  0  0  0
  5  6  2  0  0  0  0
  6  7  1  0  0  0  0
  6  1  1  0  0  0  0
  7  8  1  0  0  0  0
  7  9  2  0  0  0  0
  8 10  1  0  0  0  0
 10 11  2  0  0  0  0
 11 16  1  0  0  0  0
 11 12  1  0  0  0  0
 12 13  2  0  0  0  0
 12 17  1  0  0  0  0
 13 14  1  0  0  0  0
 13 18  1  0  0  0  0
 14 15  2  0  0  0  0
 14 19  1  0  0  0  0
 15 10  1  0  0  0  0
 15 20  1  0  0  0  0
 21 22  1  0  0  0  0
 21 26  1  0  0  0  0
 22 23  1  0  0  0  0
 23 24  1  0  0  0  0
 24 25  1  0  0  0  0
 25 26  1  0  0  0  0
M  END
>  <MOLFORMULA>
C15 H10 F5 N3 O3

>  <MOLWEIGHT>
3.752520000000000e+002

>  <code>
CC69526

>  <appearance>
Solid

>  <purity>
97%

>  <product_name>
pentafluorophenyl 2-morpholin-4-ylpyrimidine-5-carboxylate

>  <cansmi>
O=C(c1cnc(nc1)N1CCOCC1)Oc1c(F)c(F)c(c(c1F)F)F

>  <HBA2>
6

>  <HBD>
0

>  <logP>
2.2929

>  <TPSA>
64.55

>  <MW>
375.25

$$$$

 OpenBabel02131616352D

 26 28  0  0  0  0  0  0  0  0999 V2000
    3.8042    0.6458    0.0000 N   0  0  0  0  0  0  0  0  0  0  0  0
    4.5125    0.2042    0.0000 C   0  0  0  0  0  0  0  0  0  0  0  0
    2.4083    1.5208    0.0000 O   0  0  0  0  0  0  0  0  0  0  0  0
    4.4708   -0.6292    0.0000 C   0  0  0  0  0  0  0  0  0  0  0  0
    5.2458    0.5833    0.0000 C   0  0  0  0  0  0  0  0  0  0  0  0
    6.5750   -1.9583    0.0000 O   0  0  0  0  0  0  0  0  0  0  0  0
    6.6083   -1.1292    0.0000 C   0  0  0  0  0  0  0  0  0  0  0  0
    5.9083   -0.6792    0.0000 C   0  0  0  0  0  0  0  0  0  0  0  0
    5.9375    0.1500    0.0000 C   0  0  0  0  0  0  0  0  0  0  0  0
    5.1667   -1.0708    0.0000 C   0  0  0  0  0  0  0  0  0  0  0  0
    3.0667    0.2583    0.0000 C   0  0  0  0  0  0  0  0  0  0  0  0
    3.8333    1.4750    0.0000 C   0  0  0  0  0  0  0  0  0  0  0  0
    2.3667    0.7083    0.0000 C   0  0  0  0  0  0  0  0  0  0  0  0
    3.1417    1.9083    0.0000 C   0  0  0  0  0  0  0  0  0  0  0  0
    7.3402   -0.7485    0.0000 O   0  0  0  0  0  0  0  0  0  0  0  0
    8.0359   -1.1920    0.0000 C   0  0  0  0  0  0  0  0  0  0  0  0
    7.9943   -2.0167    0.0000 C   0  0  0  0  0  0  0  0  0  0  0  0
    8.6891   -2.4601    0.0000 C   0  0  0  0  0  0  0  0  0  0  0  0
    9.4220   -2.0794    0.0000 C   0  0  0  0  0  0  0  0  0  0  0  0
    9.4558   -1.2508    0.0000 C   0  0  0  0  0  0  0  0  0  0  0  0
    8.7602   -0.8111    0.0000 C   0  0  0  0  0  0  0  0  0  0  0  0
    8.7931    0.0132    0.0000 F   0  0  0  0  0  0  0  0  0  0  0  0
    8.6524   -3.2843    0.0000 F   0  0  0  0  0  0  0  0  0  0  0  0
    7.2611   -2.3949    0.0000 F   0  0  0  0  0  0  0  0  0  0  0  0
   10.1182   -2.5220    0.0000 F   0  0  0  0  0  0  0  0  0  0  0  0
   10.1863   -0.8675    0.0000 F   0  0  0  0  0  0  0  0  0  0  0  0
  2  1  1  0  0  0  0
  3 14  1  0  0  0  0
  4  2  2  0  0  0  0
  5  2  1  0  0  0  0
  6  7  2  0  0  0  0
  7 15  1  0  0  0  0
  7  8  1  0  0  0  0
  8 10  2  0  0  0  0
  8  9  1  0  0  0  0
  9  5  2  0  0  0  0
 10  4  1  0  0  0  0
 11  1  1  0  0  0  0
 12  1  1  0  0  0  0
 13 11  1  0  0  0  0
 13  3  1  0  0  0  0
 14 12  1  0  0  0  0
 15 16  1  0  0  0  0
 16 17  2  0  0  0  0
 17 18  1  0  0  0  0
 17 24  1  0  0  0  0
 18 19  2  0  0  0  0
 18 23  1  0  0  0  0
 19 20  1  0  0  0  0
 19 25  1  0  0  0  0
 20 21  2  0  0  0  0
 20 26  1  0  0  0  0
 21 16  1  0  0  0  0
 21 22  1  0  0  0  0
M  END
>  <MOLFORMULA>
C17 H12 F5 N O3

>  <MOLWEIGHT>
3.732758000000000e+002

>  <code>
CC17426

>  <appearance>
Solid

>  <purity>
97%

>  <product_name>
pentafluorophenyl 4-morpholinobenzoate

>  <cansmi>
O=C(c1ccc(cc1)N1CCOCC1)Oc1c(F)c(F)c(c(c1F)F)F

>  <HBA2>
4

>  <HBD>
0

>  <logP>
3.5029

>  <TPSA>
38.77

>  <MW>
373.274

$$$$

 OpenBabel02131616352D

 26 28  0  0  0  0  0  0  0  0999 V2000
    5.1224   -3.7948    0.0000 C   0  0  0  0  0  0  0  0  0  0  0  0
    4.4153   -4.2278    0.0000 C   0  0  0  0  0  0  0  0  0  0  0  0
    5.1171   -2.9723    0.0000 C   0  0  0  0  0  0  0  0  0  0  0  0
    3.6893   -3.8321    0.0000 N   0  0  0  0  0  0  0  0  0  0  0  0
    5.8206   -2.5414    0.0000 O   0  0  0  0  0  0  0  0  0  0  0  0
    2.2415   -3.0478    0.0000 O   0  0  0  0  0  0  0  0  0  0  0  0
    4.3867   -2.5695    0.0000 O   0  0  0  0  0  0  0  0  0  0  0  0
    5.8613   -4.1875    0.0000 C   0  0  0  0  0  0  0  0  0  0  0  0
    2.9858   -4.2630    0.0000 C   0  0  0  0  0  0  0  0  0  0  0  0
    3.6724   -3.0069    0.0000 C   0  0  0  0  0  0  0  0  0  0  0  0
    4.4401   -5.0579    0.0000 C   0  0  0  0  0  0  0  0  0  0  0  0
    2.9485   -2.6148    0.0000 C   0  0  0  0  0  0  0  0  0  0  0  0
    2.2653   -3.8687    0.0000 C   0  0  0  0  0  0  0  0  0  0  0  0
    5.8666   -5.0100    0.0000 C   0  0  0  0  0  0  0  0  0  0  0  0
    5.1596   -5.4430    0.0000 C   0  0  0  0  0  0  0  0  0  0  0  0
    5.7987   -1.7158    0.0000 C   0  0  0  0  0  0  0  0  0  0  0  0
    5.0721   -1.3218    0.0000 C   0  0  0  0  0  0  0  0  0  0  0  0
    5.0499   -0.4968    0.0000 C   0  0  0  0  0  0  0  0  0  0  0  0
    5.7538   -0.0654    0.0000 C   0  0  0  0  0  0  0  0  0  0  0  0
    6.4832   -0.4667    0.0000 C   0  0  0  0  0  0  0  0  0  0  0  0
    6.5006   -1.2873    0.0000 C   0  0  0  0  0  0  0  0  0  0  0  0
    4.3682   -1.7537    0.0000 F   0  0  0  0  0  0  0  0  0  0  0  0
    4.3270   -0.1062    0.0000 F   0  0  0  0  0  0  0  0  0  0  0  0
    5.7348    0.7573    0.0000 F   0  0  0  0  0  0  0  0  0  0  0  0
    7.1905   -0.0361    0.0000 F   0  0  0  0  0  0  0  0  0  0  0  0
    7.2238   -1.6827    0.0000 F   0  0  0  0  0  0  0  0  0  0  0  0
  2  1  1  0  0  0  0
  3  1  1  0  0  0  0
  4  2  1  0  0  0  0
  5 16  1  0  0  0  0
  5  3  1  0  0  0  0
  6 13  1  0  0  0  0
  6 12  1  0  0  0  0
  7  3  2  0  0  0  0
  8  1  2  0  0  0  0
  9  4  1  0  0  0  0
 10  4  1  0  0  0  0
 11 15  1  0  0  0  0
 11  2  2  0  0  0  0
 12 10  1  0  0  0  0
 13  9  1  0  0  0  0
 14  8  1  0  0  0  0
 15 14  2  0  0  0  0
 16 17  2  0  0  0  0
 17 18  1  0  0  0  0
 17 22  1  0  0  0  0
 18 19  2  0  0  0  0
 18 23  1  0  0  0  0
 19 20  1  0  0  0  0
 19 24  1  0  0  0  0
 20 21  2  0  0  0  0
 20 25  1  0  0  0  0
 21 16  1  0  0  0  0
 21 26  1  0  0  0  0
M  END
>  <MOLFORMULA>
C17 H12 F5 N O3

>  <MOLWEIGHT>
3.732758000000000e+002

>  <code>
CC24326

>  <appearance>
Solid

>  <purity>
97%

>  <product_name>
pentafluorophenyl 2-morpholinobenzoate

>  <cansmi>
O=C(c1ccccc1N1CCOCC1)Oc1c(F)c(F)c(c(c1F)F)F

>  <HBA2>
4

>  <HBD>
0

>  <logP>
3.5029

>  <TPSA>
38.77

>  <MW>
373.274

$$$$

 OpenBabel02131616352D

 25 27  0  0  0  0  0  0  0  0999 V2000
    2.4449   -1.9044    0.0000 C   0  0  0  0  0  0  0  0  0  0  0  0
    1.6188   -1.9182    0.0000 N   0  0  0  0  0  0  0  0  0  0  0  0
    1.3766   -2.7074    0.0000 C   0  0  0  0  0  0  0  0  0  0  0  0
    2.0527   -3.1823    0.0000 S   0  0  0  0  0  0  0  0  0  0  0  0
    2.7134   -2.6865    0.0000 C   0  0  0  0  0  0  0  0  0  0  0  0
    2.9198   -1.2283    0.0000 C   0  0  0  0  0  0  0  0  0  0  0  0
    0.5978   -2.9807    0.0000 C   0  0  0  0  0  0  0  0  0  0  0  0
    2.5682   -0.4810    0.0000 O   0  0  0  0  0  0  0  0  0  0  0  0
   -0.3447   -4.0542    0.0000 N   0  0  0  0  0  0  0  0  0  0  0  0
    3.7382   -1.2979    0.0000 O   0  0  0  0  0  0  0  0  0  0  0  0
    0.4366   -3.7898    0.0000 C   0  0  0  0  0  0  0  0  0  0  0  0
   -0.0264   -2.4352    0.0000 C   0  0  0  0  0  0  0  0  0  0  0  0
   -0.9648   -3.5095    0.0000 C   0  0  0  0  0  0  0  0  0  0  0  0
   -0.8036   -2.7004    0.0000 C   0  0  0  0  0  0  0  0  0  0  0  0
    4.2098   -0.6210    0.0000 C   0  0  0  0  0  0  0  0  0  0  0  0
    5.0287   -0.6942    0.0000 C   0  0  0  0  0  0  0  0  0  0  0  0
    5.5001   -0.0181    0.0000 C   0  0  0  0  0  0  0  0  0  0  0  0
    5.1497    0.7298    0.0000 C   0  0  0  0  0  0  0  0  0  0  0  0
    4.3231    0.7974    0.0000 C   0  0  0  0  0  0  0  0  0  0  0  0
    3.8554    0.1204    0.0000 C   0  0  0  0  0  0  0  0  0  0  0  0
    3.0330    0.1858    0.0000 F   0  0  0  0  0  0  0  0  0  0  0  0
    5.3774   -1.4418    0.0000 F   0  0  0  0  0  0  0  0  0  0  0  0
    6.3221   -0.0884    0.0000 F   0  0  0  0  0  0  0  0  0  0  0  0
    5.6203    1.4074    0.0000 F   0  0  0  0  0  0  0  0  0  0  0  0
    3.9701    1.5431    0.0000 F   0  0  0  0  0  0  0  0  0  0  0  0
  2  1  1  0  0  0  0
  3  4  1  0  0  0  0
  3  2  2  0  0  0  0
  4  5  1  0  0  0  0
  5  1  2  0  0  0  0
  6  1  1  0  0  0  0
  7  3  1  0  0  0  0
  8  6  2  0  0  0  0
  9 13  1  0  0  0  0
  9 11  2  0  0  0  0
 10 15  1  0  0  0  0
 10  6  1  0  0  0  0
 11  7  1  0  0  0  0
 12  7  2  0  0  0  0
 13 14  2  0  0  0  0
 14 12  1  0  0  0  0
 15 16  2  0  0  0  0
 16 17  1  0  0  0  0
 16 22  1  0  0  0  0
 17 18  2  0  0  0  0
 17 23  1  0  0  0  0
 18 19  1  0  0  0  0
 18 24  1  0  0  0  0
 19 20  2  0  0  0  0
 19 25  1  0  0  0  0
 20 15  1  0  0  0  0
 20 21  1  0  0  0  0
M  END
>  <MOLFORMULA>
C15 H5 F5 N2 O2 S

>  <MOLWEIGHT>
3.722725000000000e+002

>  <code>
CC13726

>  <appearance>
Solid

>  <purity>
97%

>  <product_name>
pentafluorophenyl 2-pyrid-3-yl-1,3-thiazole-4-carboxylate

>  <cansmi>
O=C(c1csc(n1)c1cccnc1)Oc1c(F)c(F)c(c(c1F)F)F

>  <HBA2>
5

>  <HBD>
0

>  <logP>
4.1198

>  <TPSA>
80.32

>  <MW>
372.269

$$$$

 OpenBabel02131616352D

 25 27  0  0  0  0  0  0  0  0999 V2000
    2.6902   -1.7875    0.0000 C   0  0  0  0  0  0  0  0  0  0  0  0
    2.6891   -2.3898    0.0000 C   0  0  0  0  0  0  0  0  0  0  0  0
    3.2081   -2.6902    0.0000 C   0  0  0  0  0  0  0  0  0  0  0  0
    3.7287   -2.3894    0.0000 C   0  0  0  0  0  0  0  0  0  0  0  0
    3.7258   -1.7838    0.0000 C   0  0  0  0  0  0  0  0  0  0  0  0
    3.2063   -1.4872    0.0000 C   0  0  0  0  0  0  0  0  0  0  0  0
    2.1690   -2.6891    0.0000 C   0  0  0  0  0  0  0  0  0  0  0  0
    1.6225   -2.4461    0.0000 N   0  0  0  0  0  0  0  0  0  0  0  0
    1.2203   -2.8914    0.0000 C   0  0  0  0  0  0  0  0  0  0  0  0
    1.5196   -3.4115    0.0000 C   0  0  0  0  0  0  0  0  0  0  0  0
    2.1066   -3.2875    0.0000 S   0  0  0  0  0  0  0  0  0  0  0  0
    4.2490   -2.6880    0.0000 C   0  0  0  0  0  0  0  0  0  0  0  0
    4.2506   -3.2880    0.0000 O   0  0  0  0  0  0  0  0  0  0  0  0
    4.7679   -2.3867    0.0000 O   0  0  0  0  0  0  0  0  0  0  0  0
    5.2883   -2.6854    0.0000 C   0  0  0  0  0  0  0  0  0  0  0  0
    5.2872   -3.2847    0.0000 C   0  0  0  0  0  0  0  0  0  0  0  0
    5.8070   -3.5833    0.0000 C   0  0  0  0  0  0  0  0  0  0  0  0
    6.3266   -3.2819    0.0000 C   0  0  0  0  0  0  0  0  0  0  0  0
    6.3231   -2.6788    0.0000 C   0  0  0  0  0  0  0  0  0  0  0  0
    5.8029   -2.3829    0.0000 C   0  0  0  0  0  0  0  0  0  0  0  0
    5.7987   -1.7829    0.0000 F   0  0  0  0  0  0  0  0  0  0  0  0
    6.8409   -2.3757    0.0000 F   0  0  0  0  0  0  0  0  0  0  0  0
    6.8473   -3.5799    0.0000 F   0  0  0  0  0  0  0  0  0  0  0  0
    5.8082   -4.1833    0.0000 F   0  0  0  0  0  0  0  0  0  0  0  0
    4.7677   -3.5848    0.0000 F   0  0  0  0  0  0  0  0  0  0  0  0
  1  2  2  0  0  0  0
  2  7  1  0  0  0  0
  2  3  1  0  0  0  0
  3  4  2  0  0  0  0
  4 12  1  0  0  0  0
  4  5  1  0  0  0  0
  5  6  2  0  0  0  0
  6  1  1  0  0  0  0
  7  8  2  0  0  0  0
  8  9  1  0  0  0  0
  9 10  2  0  0  0  0
 10 11  1  0  0  0  0
 11  7  1  0  0  0  0
 12 13  2  0  0  0  0
 12 14  1  0  0  0  0
 14 15  1  0  0  0  0
 15 16  2  0  0  0  0
 16 17  1  0  0  0  0
 16 25  1  0  0  0  0
 17 18  2  0  0  0  0
 17 24  1  0  0  0  0
 18 19  1  0  0  0  0
 18 23  1  0  0  0  0
 19 20  2  0  0  0  0
 19 22  1  0  0  0  0
 20 15  1  0  0  0  0
 20 21  1  0  0  0  0
M  END
>  <MOLFORMULA>
C16 H6 F5 N O2 S

>  <MOLWEIGHT>
3.712844000000000e+002

>  <code>
CC36526

>  <appearance>
Solid

>  <purity>
97%

>  <product_name>
pentafluorophenyl 3-(1,3-thiazol-2-yl)benzoate

>  <cansmi>
O=C(c1cccc(c1)c1nccs1)Oc1c(F)c(F)c(c(c1F)F)F

>  <HBA2>
4

>  <HBD>
0

>  <logP>
4.7248

>  <TPSA>
67.43

>  <MW>
371.281

$$$$

 OpenBabel02131616352D

 25 27  0  0  0  0  0  0  0  0999 V2000
    8.9035   -1.5852    0.0000 C   0  0  0  0  0  0  0  0  0  0  0  0
    8.1212   -1.3280    0.0000 C   0  0  0  0  0  0  0  0  0  0  0  0
    7.5083   -1.8792    0.0000 C   0  0  0  0  0  0  0  0  0  0  0  0
    7.6795   -2.6871    0.0000 C   0  0  0  0  0  0  0  0  0  0  0  0
    8.4689   -2.9410    0.0000 C   0  0  0  0  0  0  0  0  0  0  0  0
    9.0784   -2.3881    0.0000 C   0  0  0  0  0  0  0  0  0  0  0  0
    9.8701   -2.5993    0.0000 F   0  0  0  0  0  0  0  0  0  0  0  0
    8.6785   -3.7368    0.0000 F   0  0  0  0  0  0  0  0  0  0  0  0
    7.0910   -3.2701    0.0000 F   0  0  0  0  0  0  0  0  0  0  0  0
    2.7375   -0.3208    0.0000 S   0  0  0  0  0  0  0  0  0  0  0  0
    3.4068    0.1617    0.0000 C   0  0  0  0  0  0  0  0  0  0  0  0
    3.1500    0.9500    0.0000 C   0  0  0  0  0  0  0  0  0  0  0  0
    2.3250    0.9500    0.0000 C   0  0  0  0  0  0  0  0  0  0  0  0
    2.0682    0.1617    0.0000 C   0  0  0  0  0  0  0  0  0  0  0  0
    4.1910   -0.0944    0.0000 C   0  0  0  0  0  0  0  0  0  0  0  0
    4.3589   -0.9005    0.0000 N   0  0  0  0  0  0  0  0  0  0  0  0
    5.1423   -1.1567    0.0000 C   0  0  0  0  0  0  0  0  0  0  0  0
    5.7572   -0.6053    0.0000 C   0  0  0  0  0  0  0  0  0  0  0  0
    5.5834    0.2056    0.0000 C   0  0  0  0  0  0  0  0  0  0  0  0
    4.8002    0.4580    0.0000 C   0  0  0  0  0  0  0  0  0  0  0  0
    6.5418   -0.8603    0.0000 C   0  0  0  0  0  0  0  0  0  0  0  0
    6.7132   -1.6673    0.0000 O   0  0  0  0  0  0  0  0  0  0  0  0
    7.1549   -0.3084    0.0000 O   0  0  0  0  0  0  0  0  0  0  0  0
    9.4833   -0.9958    0.0000 F   0  0  0  0  0  0  0  0  0  0  0  0
    8.1167   -0.5000    0.0000 F   0  0  0  0  0  0  0  0  0  0  0  0
  1  2  2  0  0  0  0
  1 24  1  0  0  0  0
  2  3  1  0  0  0  0
  2 25  1  0  0  0  0
  3  4  2  0  0  0  0
  4  9  1  0  0  0  0
  4  5  1  0  0  0  0
  5  8  1  0  0  0  0
  5  6  2  0  0  0  0
  6  7  1  0  0  0  0
  6  1  1  0  0  0  0
 10 11  1  0  0  0  0
 11 15  1  0  0  0  0
 11 12  2  0  0  0  0
 12 13  1  0  0  0  0
 13 14  2  0  0  0  0
 14 10  1  0  0  0  0
 15 16  2  0  0  0  0
 16 17  1  0  0  0  0
 17 18  2  0  0  0  0
 18 19  1  0  0  0  0
 18 21  1  0  0  0  0
 19 20  2  0  0  0  0
 20 15  1  0  0  0  0
 21 22  1  0  0  0  0
 21 23  2  0  0  0  0
 22  3  1  0  0  0  0
M  END
>  <MOLFORMULA>
C16 H6 F5 N O2 S

>  <MOLWEIGHT>
3.712844000000000e+002

>  <code>
CC54826

>  <appearance>
Solid

>  <purity>
97%

>  <product_name>
pentafluorophenyl 6-thien-2-ylnicotinate

>  <cansmi>
O=C(c1ccc(nc1)c1cccs1)Oc1c(F)c(F)c(c(c1F)F)F

>  <HBA2>
4

>  <HBD>
0

>  <logP>
4.7248

>  <TPSA>
67.43

>  <MW>
371.281

$$$$

 OpenBabel02131616352D

 26 28  0  0  0  0  0  0  0  0999 V2000
    3.7109   -2.8872    0.0000 C   0  0  0  0  0  0  0  0  0  0  0  0
    4.4380   -3.2907    0.0000 C   0  0  0  0  0  0  0  0  0  0  0  0
    5.1433   -2.8687    0.0000 C   0  0  0  0  0  0  0  0  0  0  0  0
    5.1324   -2.0345    0.0000 C   0  0  0  0  0  0  0  0  0  0  0  0
    4.4006   -1.6329    0.0000 C   0  0  0  0  0  0  0  0  0  0  0  0
    3.6923   -2.0682    0.0000 C   0  0  0  0  0  0  0  0  0  0  0  0
    5.8385   -1.6078    0.0000 C   0  0  0  0  0  0  0  0  0  0  0  0
    5.8201   -0.7866    0.0000 O   0  0  0  0  0  0  0  0  0  0  0  0
    3.0079   -3.3149    0.0000 C   0  0  0  0  0  0  0  0  0  0  0  0
    2.2431   -2.9955    0.0000 C   0  0  0  0  0  0  0  0  0  0  0  0
    1.7026   -3.6187    0.0000 C   0  0  0  0  0  0  0  0  0  0  0  0
    2.1283   -4.3255    0.0000 N   0  0  0  0  0  0  0  0  0  0  0  0
    2.9375   -4.1372    0.0000 N   0  0  0  0  0  0  0  0  0  0  0  0
    1.8088   -5.0816    0.0000 C   0  0  0  0  0  0  0  0  0  0  0  0
    6.5611   -2.0060    0.0000 O   0  0  0  0  0  0  0  0  0  0  0  0
    7.2672   -1.5794    0.0000 C   0  0  0  0  0  0  0  0  0  0  0  0
    7.9889   -1.9809    0.0000 C   0  0  0  0  0  0  0  0  0  0  0  0
    8.6945   -1.5550    0.0000 C   0  0  0  0  0  0  0  0  0  0  0  0
    8.6785   -0.7293    0.0000 C   0  0  0  0  0  0  0  0  0  0  0  0
    7.9510   -0.3313    0.0000 C   0  0  0  0  0  0  0  0  0  0  0  0
    7.2483   -0.7595    0.0000 C   0  0  0  0  0  0  0  0  0  0  0  0
    6.5244   -0.3639    0.0000 F   0  0  0  0  0  0  0  0  0  0  0  0
    7.9317    0.4935    0.0000 F   0  0  0  0  0  0  0  0  0  0  0  0
    9.3841   -0.3017    0.0000 F   0  0  0  0  0  0  0  0  0  0  0  0
    9.4169   -1.9535    0.0000 F   0  0  0  0  0  0  0  0  0  0  0  0
    8.0034   -2.8058    0.0000 F   0  0  0  0  0  0  0  0  0  0  0  0
  1  2  2  0  0  0  0
  1  9  1  0  0  0  0
  2  3  1  0  0  0  0
  3  4  2  0  0  0  0
  4  7  1  0  0  0  0
  4  5  1  0  0  0  0
  5  6  2  0  0  0  0
  6  1  1  0  0  0  0
  7 15  1  0  0  0  0
  7  8  2  0  0  0  0
  9 10  1  0  0  0  0
 10 11  2  0  0  0  0
 11 12  1  0  0  0  0
 12 13  1  0  0  0  0
 12 14  1  0  0  0  0
 13  9  2  0  0  0  0
 15 16  1  0  0  0  0
 16 17  2  0  0  0  0
 17 18  1  0  0  0  0
 17 26  1  0  0  0  0
 18 19  2  0  0  0  0
 18 25  1  0  0  0  0
 19 20  1  0  0  0  0
 19 24  1  0  0  0  0
 20 21  2  0  0  0  0
 20 23  1  0  0  0  0
 21 16  1  0  0  0  0
 21 22  1  0  0  0  0
M  END
>  <MOLFORMULA>
C17 H9 F5 N2 O2

>  <MOLWEIGHT>
3.682601000000000e+002

>  <code>
CC23826

>  <appearance>
Solid

>  <purity>
97%

>  <product_name>
pentafluorophenyl 4-(1-methyl-1H-pyrazol-3-yl)benzoate

>  <cansmi>
Cn1ccc(n1)c1ccc(cc1)C(=O)Oc1c(F)c(F)c(c(c1F)F)F

>  <HBA2>
4

>  <HBD>
0

>  <logP>
4.0018

>  <TPSA>
44.12

>  <MW>
368.258

$$$$

 OpenBabel02131616352D

 26 28  0  0  0  0  0  0  0  0999 V2000
    2.5643  -10.9354    0.0000 N   0  0  0  0  0  0  0  0  0  0  0  0
    3.2566  -11.3841    0.0000 N   0  0  0  0  0  0  0  0  0  0  0  0
    3.8981  -10.8589    0.0000 C   0  0  0  0  0  0  0  0  0  0  0  0
    3.5989  -10.0901    0.0000 C   0  0  0  0  0  0  0  0  0  0  0  0
    2.7711  -10.1367    0.0000 C   0  0  0  0  0  0  0  0  0  0  0  0
    4.6111  -11.2708    0.0000 C   0  0  0  0  0  0  0  0  0  0  0  0
    4.6099  -12.0982    0.0000 C   0  0  0  0  0  0  0  0  0  0  0  0
    5.3247  -12.5110    0.0000 C   0  0  0  0  0  0  0  0  0  0  0  0
    6.0412  -12.0977    0.0000 C   0  0  0  0  0  0  0  0  0  0  0  0
    6.0383  -11.2672    0.0000 C   0  0  0  0  0  0  0  0  0  0  0  0
    5.3229  -10.8580    0.0000 C   0  0  0  0  0  0  0  0  0  0  0  0
    1.7955  -11.2346    0.0000 C   0  0  0  0  0  0  0  0  0  0  0  0
    6.7512  -10.8520    0.0000 C   0  0  0  0  0  0  0  0  0  0  0  0
    7.4672  -11.2618    0.0000 O   0  0  0  0  0  0  0  0  0  0  0  0
    6.7481  -10.0270    0.0000 O   0  0  0  0  0  0  0  0  0  0  0  0
    8.1802  -10.8466    0.0000 C   0  0  0  0  0  0  0  0  0  0  0  0
    8.8946  -11.2598    0.0000 C   0  0  0  0  0  0  0  0  0  0  0  0
    9.6070  -10.8453    0.0000 C   0  0  0  0  0  0  0  0  0  0  0  0
    9.6043  -10.0194    0.0000 C   0  0  0  0  0  0  0  0  0  0  0  0
    8.8833   -9.6098    0.0000 C   0  0  0  0  0  0  0  0  0  0  0  0
    8.1738  -10.0267    0.0000 C   0  0  0  0  0  0  0  0  0  0  0  0
    7.4562   -9.6197    0.0000 F   0  0  0  0  0  0  0  0  0  0  0  0
    8.8773   -8.7848    0.0000 F   0  0  0  0  0  0  0  0  0  0  0  0
   10.3167   -9.6033    0.0000 F   0  0  0  0  0  0  0  0  0  0  0  0
   10.3228  -11.2555    0.0000 F   0  0  0  0  0  0  0  0  0  0  0  0
    8.8956  -12.0848    0.0000 F   0  0  0  0  0  0  0  0  0  0  0  0
  1  2  1  0  0  0  0
  1 12  1  0  0  0  0
  2  3  2  0  0  0  0
  3  4  1  0  0  0  0
  4  5  2  0  0  0  0
  5  1  1  0  0  0  0
  6  7  2  0  0  0  0
  6  3  1  0  0  0  0
  7  8  1  0  0  0  0
  8  9  2  0  0  0  0
  9 10  1  0  0  0  0
 10 13  1  0  0  0  0
 10 11  2  0  0  0  0
 11  6  1  0  0  0  0
 13 14  1  0  0  0  0
 13 15  2  0  0  0  0
 14 16  1  0  0  0  0
 16 17  2  0  0  0  0
 17 18  1  0  0  0  0
 17 26  1  0  0  0  0
 18 19  2  0  0  0  0
 18 25  1  0  0  0  0
 19 20  1  0  0  0  0
 19 24  1  0  0  0  0
 20 21  2  0  0  0  0
 20 23  1  0  0  0  0
 21 16  1  0  0  0  0
 21 22  1  0  0  0  0
M  END
>  <MOLFORMULA>
C17 H9 F5 N2 O2

>  <MOLWEIGHT>
3.682601000000000e+002

>  <code>
CC60626

>  <appearance>
Solid

>  <purity>
97%

>  <product_name>
pentafluorophenyl 3-(1-methyl-1H-pyrazol-3-yl)benzoate

>  <cansmi>
Cn1ccc(n1)c1cccc(c1)C(=O)Oc1c(F)c(F)c(c(c1F)F)F

>  <HBA2>
4

>  <HBD>
0

>  <logP>
4.0018

>  <TPSA>
44.12

>  <MW>
368.258

$$$$

 OpenBabel02131616352D

 26 28  0  0  0  0  0  0  0  0999 V2000
    2.0611   -7.7375    0.0000 C   0  0  0  0  0  0  0  0  0  0  0  0
    2.0599   -8.5690    0.0000 N   0  0  0  0  0  0  0  0  0  0  0  0
    2.7706   -8.9819    0.0000 C   0  0  0  0  0  0  0  0  0  0  0  0
    3.4953   -8.5685    0.0000 C   0  0  0  0  0  0  0  0  0  0  0  0
    3.4925   -7.7338    0.0000 C   0  0  0  0  0  0  0  0  0  0  0  0
    2.7688   -7.3247    0.0000 C   0  0  0  0  0  0  0  0  0  0  0  0
    4.2021   -7.3180    0.0000 C   0  0  0  0  0  0  0  0  0  0  0  0
    4.9179   -7.7301    0.0000 N   0  0  0  0  0  0  0  0  0  0  0  0
    5.6273   -7.3106    0.0000 C   0  0  0  0  0  0  0  0  0  0  0  0
    5.6238   -6.4850    0.0000 C   0  0  0  0  0  0  0  0  0  0  0  0
    4.8985   -6.0801    0.0000 C   0  0  0  0  0  0  0  0  0  0  0  0
    4.1912   -6.4970    0.0000 N   0  0  0  0  0  0  0  0  0  0  0  0
    6.3330   -6.0685    0.0000 C   0  0  0  0  0  0  0  0  0  0  0  0
    7.0511   -6.4770    0.0000 O   0  0  0  0  0  0  0  0  0  0  0  0
    6.3285   -5.2435    0.0000 O   0  0  0  0  0  0  0  0  0  0  0  0
    7.7645   -6.0564    0.0000 C   0  0  0  0  0  0  0  0  0  0  0  0
    8.4760   -6.4674    0.0000 C   0  0  0  0  0  0  0  0  0  0  0  0
    9.1891   -6.0514    0.0000 C   0  0  0  0  0  0  0  0  0  0  0  0
    9.1807   -5.2259    0.0000 C   0  0  0  0  0  0  0  0  0  0  0  0
    8.4592   -4.8175    0.0000 C   0  0  0  0  0  0  0  0  0  0  0  0
    7.7523   -5.2392    0.0000 C   0  0  0  0  0  0  0  0  0  0  0  0
    8.4788   -7.2924    0.0000 F   0  0  0  0  0  0  0  0  0  0  0  0
    9.9070   -6.4560    0.0000 F   0  0  0  0  0  0  0  0  0  0  0  0
    9.8938   -4.8046    0.0000 F   0  0  0  0  0  0  0  0  0  0  0  0
    8.4485   -3.9925    0.0000 F   0  0  0  0  0  0  0  0  0  0  0  0
    7.0287   -4.8332    0.0000 F   0  0  0  0  0  0  0  0  0  0  0  0
  1  2  1  0  0  0  0
  2  3  2  0  0  0  0
  3  4  1  0  0  0  0
  4  5  2  0  0  0  0
  5  7  1  0  0  0  0
  5  6  1  0  0  0  0
  6  1  2  0  0  0  0
  7  8  2  0  0  0  0
  8  9  1  0  0  0  0
  9 10  2  0  0  0  0
 10 13  1  0  0  0  0
 10 11  1  0  0  0  0
 11 12  2  0  0  0  0
 12  7  1  0  0  0  0
 13 14  1  0  0  0  0
 13 15  2  0  0  0  0
 14 16  1  0  0  0  0
 16 17  2  0  0  0  0
 17 18  1  0  0  0  0
 17 22  1  0  0  0  0
 18 19  2  0  0  0  0
 18 23  1  0  0  0  0
 19 20  1  0  0  0  0
 19 24  1  0  0  0  0
 20 21  2  0  0  0  0
 20 25  1  0  0  0  0
 21 16  1  0  0  0  0
 21 26  1  0  0  0  0
M  END
>  <MOLFORMULA>
C16 H6 F5 N3 O2

>  <MOLWEIGHT>
3.672324000000000e+002

>  <code>
CC66626

>  <appearance>
Solid

>  <purity>
97%

>  <product_name>
pentafluorophenyl 2-pyrid-4-ylpyrimidine-5-carboxylate

>  <cansmi>
O=C(c1cnc(nc1)c1ccncc1)Oc1c(F)c(F)c(c(c1F)F)F

>  <HBA2>
5

>  <HBD>
0

>  <logP>
3.4533

>  <TPSA>
64.97

>  <MW>
367.23

$$$$

 OpenBabel02131616352D

 24 26  0  0  0  0  0  0  0  0999 V2000
    4.3070   -6.8978    0.0000 C   0  0  0  0  0  0  0  0  0  0  0  0
    5.0991   -7.1427    0.0000 C   0  0  0  0  0  0  0  0  0  0  0  0
    5.2810   -7.9514    0.0000 O   0  0  0  0  0  0  0  0  0  0  0  0
    5.7093   -6.5787    0.0000 O   0  0  0  0  0  0  0  0  0  0  0  0
    6.5014   -6.8235    0.0000 C   0  0  0  0  0  0  0  0  0  0  0  0
    6.6808   -7.6303    0.0000 C   0  0  0  0  0  0  0  0  0  0  0  0
    7.4718   -7.8794    0.0000 C   0  0  0  0  0  0  0  0  0  0  0  0
    8.0829   -7.3152    0.0000 C   0  0  0  0  0  0  0  0  0  0  0  0
    7.8933   -6.5025    0.0000 C   0  0  0  0  0  0  0  0  0  0  0  0
    7.1024   -6.2614    0.0000 C   0  0  0  0  0  0  0  0  0  0  0  0
    6.0699   -8.1934    0.0000 F   0  0  0  0  0  0  0  0  0  0  0  0
    7.6533   -8.6883    0.0000 F   0  0  0  0  0  0  0  0  0  0  0  0
    8.8753   -7.5590    0.0000 F   0  0  0  0  0  0  0  0  0  0  0  0
    8.5016   -5.9365    0.0000 F   0  0  0  0  0  0  0  0  0  0  0  0
    6.9166   -5.4535    0.0000 F   0  0  0  0  0  0  0  0  0  0  0  0
    4.0452   -6.1143    0.0000 C   0  0  0  0  0  0  0  0  0  0  0  0
    3.2161   -6.1249    0.0000 C   0  0  0  0  0  0  0  0  0  0  0  0
    2.9671   -6.9168    0.0000 C   0  0  0  0  0  0  0  0  0  0  0  0
    3.6451   -7.3930    0.0000 S   0  0  0  0  0  0  0  0  0  0  0  0
    4.5210   -5.4408    0.0000 C   0  0  0  0  0  0  0  0  0  0  0  0
    5.3501   -5.4314    0.0000 O   0  0  0  0  0  0  0  0  0  0  0  0
    5.5961   -4.6396    0.0000 C   0  0  0  0  0  0  0  0  0  0  0  0
    4.9232   -4.1584    0.0000 C   0  0  0  0  0  0  0  0  0  0  0  0
    4.2572   -4.6551    0.0000 O   0  0  0  0  0  0  0  0  0  0  0  0
  1  2  1  0  0  0  0
  1 16  2  0  0  0  0
  2  4  1  0  0  0  0
  2  3  2  0  0  0  0
  4  5  1  0  0  0  0
  5  6  2  0  0  0  0
  6  7  1  0  0  0  0
  6 11  1  0  0  0  0
  7 12  1  0  0  0  0
  7  8  2  0  0  0  0
  8 13  1  0  0  0  0
  8  9  1  0  0  0  0
  9 14  1  0  0  0  0
  9 10  2  0  0  0  0
 10 15  1  0  0  0  0
 10  5  1  0  0  0  0
 16 17  1  0  0  0  0
 16 20  1  0  0  0  0
 17 18  2  0  0  0  0
 18 19  1  0  0  0  0
 19  1  1  0  0  0  0
 20 21  1  0  0  0  0
 21 22  1  0  0  0  0
 22 23  1  0  0  0  0
 23 24  1  0  0  0  0
 24 20  1  0  0  0  0
M  END
>  <MOLFORMULA>
C14 H7 F5 O4 S

>  <MOLWEIGHT>
3.662613000000000e+002

>  <code>
CC58826

>  <appearance>
Solid

>  <purity>
97%

>  <product_name>
pentafluorophenyl 3-(1,3-dioxolan-2-yl)thiophene-2-carboxylate

>  <cansmi>
O=C(c1sccc1C1OCCO1)Oc1c(F)c(F)c(c(c1F)F)F

>  <HBA2>
5

>  <HBD>
0

>  <logP>
3.7082

>  <TPSA>
73

>  <MW>
366.26

$$$$

 OpenBabel02131616352D

 26 28  0  0  0  0  0  0  0  0999 V2000
   -0.5056   -2.8791    0.0000 C   0  0  0  0  0  0  0  0  0  0  0  0
   -0.5068   -3.7065    0.0000 C   0  0  0  0  0  0  0  0  0  0  0  0
    0.2081   -4.1194    0.0000 C   0  0  0  0  0  0  0  0  0  0  0  0
    0.9245   -3.7060    0.0000 C   0  0  0  0  0  0  0  0  0  0  0  0
    0.9216   -2.8755    0.0000 C   0  0  0  0  0  0  0  0  0  0  0  0
    0.2063   -2.4664    0.0000 C   0  0  0  0  0  0  0  0  0  0  0  0
    1.6387   -2.4645    0.0000 C   0  0  0  0  0  0  0  0  0  0  0  0
    2.3520   -2.8773    0.0000 N   0  0  0  0  0  0  0  0  0  0  0  0
    3.0686   -2.4628    0.0000 C   0  0  0  0  0  0  0  0  0  0  0  0
    3.0701   -1.6369    0.0000 C   0  0  0  0  0  0  0  0  0  0  0  0
    2.3532   -1.2231    0.0000 C   0  0  0  0  0  0  0  0  0  0  0  0
    1.6396   -1.6358    0.0000 C   0  0  0  0  0  0  0  0  0  0  0  0
    3.7908   -1.2166    0.0000 C   0  0  0  0  0  0  0  0  0  0  0  0
    4.5115   -1.6255    0.0000 O   0  0  0  0  0  0  0  0  0  0  0  0
    3.7866   -0.3916    0.0000 O   0  0  0  0  0  0  0  0  0  0  0  0
    4.4989    0.0245    0.0000 C   0  0  0  0  0  0  0  0  0  0  0  0
    5.2110   -0.3903    0.0000 C   0  0  0  0  0  0  0  0  0  0  0  0
    5.9270    0.0210    0.0000 C   0  0  0  0  0  0  0  0  0  0  0  0
    5.9274    0.8510    0.0000 C   0  0  0  0  0  0  0  0  0  0  0  0
    5.2100    1.2639    0.0000 C   0  0  0  0  0  0  0  0  0  0  0  0
    4.4969    0.8502    0.0000 C   0  0  0  0  0  0  0  0  0  0  0  0
    5.2100   -1.2153    0.0000 F   0  0  0  0  0  0  0  0  0  0  0  0
    6.6475   -0.3965    0.0000 F   0  0  0  0  0  0  0  0  0  0  0  0
    6.6476    1.2723    0.0000 F   0  0  0  0  0  0  0  0  0  0  0  0
    5.2112    2.0888    0.0000 F   0  0  0  0  0  0  0  0  0  0  0  0
    3.7791    1.2777    0.0000 F   0  0  0  0  0  0  0  0  0  0  0  0
  1  2  2  0  0  0  0
  2  3  1  0  0  0  0
  3  4  2  0  0  0  0
  4  5  1  0  0  0  0
  5  7  1  0  0  0  0
  5  6  2  0  0  0  0
  6  1  1  0  0  0  0
  7  8  2  0  0  0  0
  8  9  1  0  0  0  0
  9 10  2  0  0  0  0
 10 13  1  0  0  0  0
 10 11  1  0  0  0  0
 11 12  2  0  0  0  0
 12  7  1  0  0  0  0
 13 14  2  0  0  0  0
 13 15  1  0  0  0  0
 15 16  1  0  0  0  0
 16 17  2  0  0  0  0
 17 18  1  0  0  0  0
 17 22  1  0  0  0  0
 18 19  2  0  0  0  0
 18 23  1  0  0  0  0
 19 20  1  0  0  0  0
 19 24  1  0  0  0  0
 20 21  2  0  0  0  0
 20 25  1  0  0  0  0
 21 16  1  0  0  0  0
 21 26  1  0  0  0  0
M  END
>  <MOLFORMULA>
C18 H8 F5 N O2

>  <MOLWEIGHT>
3.652562000000000e+002

>  <code>
CC21126

>  <appearance>
Solid

>  <purity>
97%

>  <product_name>
pentafluorophenyl 6-phenylnicotinate

>  <cansmi>
O=C(c1ccc(nc1)c1ccccc1)Oc1c(F)c(F)c(c(c1F)F)F

>  <HBA2>
3

>  <HBD>
0

>  <logP>
4.6633

>  <TPSA>
39.19

>  <MW>
365.254

$$$$

 OpenBabel02131616352D

 25 27  0  0  0  0  0  0  0  0999 V2000
    3.2372   -4.3944    0.0000 N   0  0  0  0  0  0  0  0  0  0  0  0
    3.9537   -3.9810    0.0000 C   0  0  0  0  0  0  0  0  0  0  0  0
    3.9508   -3.1505    0.0000 C   0  0  0  0  0  0  0  0  0  0  0  0
    3.2354   -2.7414    0.0000 C   0  0  0  0  0  0  0  0  0  0  0  0
    2.5224   -3.9815    0.0000 C   0  0  0  0  0  0  0  0  0  0  0  0
    2.5220   -3.1541    0.0000 C   0  0  0  0  0  0  0  0  0  0  0  0
    1.8092   -2.7430    0.0000 O   0  0  0  0  0  0  0  0  0  0  0  0
    1.0922   -3.1548    0.0000 C   0  0  0  0  0  0  0  0  0  0  0  0
    1.0926   -3.9822    0.0000 C   0  0  0  0  0  0  0  0  0  0  0  0
    1.8100   -4.3978    0.0000 N   0  0  0  0  0  0  0  0  0  0  0  0
    4.6637   -2.7353    0.0000 C   0  0  0  0  0  0  0  0  0  0  0  0
    5.3797   -3.1451    0.0000 O   0  0  0  0  0  0  0  0  0  0  0  0
    4.6606   -1.9103    0.0000 O   0  0  0  0  0  0  0  0  0  0  0  0
    6.0917   -2.7250    0.0000 C   0  0  0  0  0  0  0  0  0  0  0  0
    6.8110   -3.1344    0.0000 C   0  0  0  0  0  0  0  0  0  0  0  0
    7.5225   -2.7150    0.0000 C   0  0  0  0  0  0  0  0  0  0  0  0
    7.5150   -1.8875    0.0000 C   0  0  0  0  0  0  0  0  0  0  0  0
    6.7902   -1.4813    0.0000 C   0  0  0  0  0  0  0  0  0  0  0  0
    6.0818   -1.9030    0.0000 C   0  0  0  0  0  0  0  0  0  0  0  0
    1.8116   -5.2228    0.0000 C   0  0  0  0  0  0  0  0  0  0  0  0
    5.3621   -1.4996    0.0000 F   0  0  0  0  0  0  0  0  0  0  0  0
    6.7795   -0.6563    0.0000 F   0  0  0  0  0  0  0  0  0  0  0  0
    8.2250   -1.4673    0.0000 F   0  0  0  0  0  0  0  0  0  0  0  0
    8.2406   -3.1211    0.0000 F   0  0  0  0  0  0  0  0  0  0  0  0
    6.8173   -3.9594    0.0000 F   0  0  0  0  0  0  0  0  0  0  0  0
  1  2  2  0  0  0  0
  2  3  1  0  0  0  0
  3  4  2  0  0  0  0
  3 11  1  0  0  0  0
  4  6  1  0  0  0  0
  5  1  1  0  0  0  0
  5 10  1  0  0  0  0
  5  6  2  0  0  0  0
  6  7  1  0  0  0  0
  7  8  1  0  0  0  0
  8  9  1  0  0  0  0
  9 10  1  0  0  0  0
 10 20  1  0  0  0  0
 11 12  1  0  0  0  0
 11 13  2  0  0  0  0
 12 14  1  0  0  0  0
 14 15  2  0  0  0  0
 15 16  1  0  0  0  0
 15 25  1  0  0  0  0
 16 17  2  0  0  0  0
 16 24  1  0  0  0  0
 17 18  1  0  0  0  0
 17 23  1  0  0  0  0
 18 19  2  0  0  0  0
 18 22  1  0  0  0  0
 19 14  1  0  0  0  0
 19 21  1  0  0  0  0
M  END
>  <MOLFORMULA>
C15 H9 F5 N2 O3

>  <MOLWEIGHT>
3.602371000000000e+002

>  <code>
CC62026

>  <appearance>
Solid

>  <purity>
97%

>  <product_name>
pentafluorophenyl 4-methyl-3,4-dihydro-2H-pyrido[3,2-b][1,4]oxazine-7-carboxylate

>  <cansmi>
O=C(c1cnc2c(c1)OCCN2C)Oc1c(F)c(F)c(c(c1F)F)F

>  <HBA2>
5

>  <HBD>
0

>  <logP>
2.8899

>  <TPSA>
51.66

>  <MW>
360.236

$$$$

 OpenBabel02131616352D

 25 27  0  0  0  0  0  0  0  0999 V2000
   -0.4014   -0.6166    0.0000 N   0  0  0  0  0  0  0  0  0  0  0  0
   -0.4026   -1.4398    0.0000 C   0  0  0  0  0  0  0  0  0  0  0  0
    0.3247   -1.8610    0.0000 N   0  0  0  0  0  0  0  0  0  0  0  0
    1.0453   -1.4394    0.0000 C   0  0  0  0  0  0  0  0  0  0  0  0
    1.0425   -0.6130    0.0000 C   0  0  0  0  0  0  0  0  0  0  0  0
    0.3229   -0.1997    0.0000 C   0  0  0  0  0  0  0  0  0  0  0  0
   -1.1174   -1.8601    0.0000 N   0  0  0  0  0  0  0  0  0  0  0  0
    1.7721   -0.1895    0.0000 C   0  0  0  0  0  0  0  0  0  0  0  0
    1.7625    0.6500    0.0000 O   0  0  0  0  0  0  0  0  0  0  0  0
    2.4917   -0.6042    0.0000 O   0  0  0  0  0  0  0  0  0  0  0  0
    3.2000   -0.1833    0.0000 C   0  0  0  0  0  0  0  0  0  0  0  0
   -1.8745   -1.5231    0.0000 C   0  0  0  0  0  0  0  0  0  0  0  0
   -2.4312   -2.1316    0.0000 C   0  0  0  0  0  0  0  0  0  0  0  0
   -2.0151   -2.8589    0.0000 C   0  0  0  0  0  0  0  0  0  0  0  0
   -1.2039   -2.6921    0.0000 C   0  0  0  0  0  0  0  0  0  0  0  0
    3.9155   -0.5848    0.0000 C   0  0  0  0  0  0  0  0  0  0  0  0
    4.6236   -0.1644    0.0000 C   0  0  0  0  0  0  0  0  0  0  0  0
    4.6122    0.6607    0.0000 C   0  0  0  0  0  0  0  0  0  0  0  0
    3.8890    1.0643    0.0000 C   0  0  0  0  0  0  0  0  0  0  0  0
    3.1829    0.6383    0.0000 C   0  0  0  0  0  0  0  0  0  0  0  0
    3.8755    1.8916    0.0000 F   0  0  0  0  0  0  0  0  0  0  0  0
    3.9262   -1.4101    0.0000 F   0  0  0  0  0  0  0  0  0  0  0  0
    5.3430   -0.5681    0.0000 F   0  0  0  0  0  0  0  0  0  0  0  0
    5.3207    1.0825    0.0000 F   0  0  0  0  0  0  0  0  0  0  0  0
    2.4675    1.0357    0.0000 F   0  0  0  0  0  0  0  0  0  0  0  0
  1  2  2  0  0  0  0
  2  7  1  0  0  0  0
  2  3  1  0  0  0  0
  3  4  2  0  0  0  0
  4  5  1  0  0  0  0
  5  8  1  0  0  0  0
  5  6  2  0  0  0  0
  6  1  1  0  0  0  0
  7 12  1  0  0  0  0
  8  9  2  0  0  0  0
  8 10  1  0  0  0  0
 10 11  1  0  0  0  0
 11 16  2  0  0  0  0
 12 13  1  0  0  0  0
 13 14  1  0  0  0  0
 14 15  1  0  0  0  0
 15  7  1  0  0  0  0
 16 17  1  0  0  0  0
 16 22  1  0  0  0  0
 17 18  2  0  0  0  0
 17 23  1  0  0  0  0
 18 19  1  0  0  0  0
 18 24  1  0  0  0  0
 19 20  2  0  0  0  0
 19 21  1  0  0  0  0
 20 11  1  0  0  0  0
 20 25  1  0  0  0  0
M  END
>  <MOLFORMULA>
C15 H10 F5 N3 O2

>  <MOLWEIGHT>
3.592530000000000e+002

>  <code>
CC69326

>  <appearance>
Solid

>  <purity>
97%

>  <product_name>
pentafluorophenyl 2-pyrrolidin-1-ylpyrimidine-5-carboxylate

>  <cansmi>
O=C(c1cnc(nc1)N1CCCC1)Oc1c(F)c(F)c(c(c1F)F)F

>  <HBA2>
5

>  <HBD>
0

>  <logP>
3.0565

>  <TPSA>
55.32

>  <MW>
359.251

$$$$

 OpenBabel02131616352D

 25 27  0  0  0  0  0  0  0  0999 V2000
    6.0792   -2.2500    0.0000 O   0  0  0  0  0  0  0  0  0  0  0  0
    6.7933   -2.6594    0.0000 C   0  0  0  0  0  0  0  0  0  0  0  0
    6.7943   -3.4850    0.0000 C   0  0  0  0  0  0  0  0  0  0  0  0
    7.5161   -3.8943    0.0000 C   0  0  0  0  0  0  0  0  0  0  0  0
    8.2312   -3.4737    0.0000 C   0  0  0  0  0  0  0  0  0  0  0  0
    8.2168   -2.6447    0.0000 C   0  0  0  0  0  0  0  0  0  0  0  0
    7.4987   -2.2421    0.0000 C   0  0  0  0  0  0  0  0  0  0  0  0
    6.0796   -3.8998    0.0000 F   0  0  0  0  0  0  0  0  0  0  0  0
    7.5199   -4.7197    0.0000 F   0  0  0  0  0  0  0  0  0  0  0  0
    7.4961   -1.4136    0.0000 F   0  0  0  0  0  0  0  0  0  0  0  0
    8.9367   -2.2205    0.0000 F   0  0  0  0  0  0  0  0  0  0  0  0
    8.9462   -3.8828    0.0000 F   0  0  0  0  0  0  0  0  0  0  0  0
    2.6583   -1.0708    0.0000 C   0  0  0  0  0  0  0  0  0  0  0  0
    5.4000   -2.6500    0.0000 C   0  0  0  0  0  0  0  0  0  0  0  0
    3.3375   -1.4584    0.0000 C   0  0  0  0  0  0  0  0  0  0  0  0
    4.7125   -2.2541    0.0000 C   0  0  0  0  0  0  0  0  0  0  0  0
    5.4000   -3.4416    0.0000 O   0  0  0  0  0  0  0  0  0  0  0  0
    4.0250   -2.6500    0.0000 C   0  0  0  0  0  0  0  0  0  0  0  0
    4.6958   -1.4584    0.0000 C   0  0  0  0  0  0  0  0  0  0  0  0
    3.3375   -2.2541    0.0000 C   0  0  0  0  0  0  0  0  0  0  0  0
    4.0167   -1.0708    0.0000 C   0  0  0  0  0  0  0  0  0  0  0  0
    2.5727   -0.2936    0.0000 C   0  0  0  0  0  0  0  0  0  0  0  0
    1.8071   -0.1349    0.0000 N   0  0  0  0  0  0  0  0  0  0  0  0
    1.4195   -0.8141    0.0000 C   0  0  0  0  0  0  0  0  0  0  0  0
    1.9457   -1.3924    0.0000 O   0  0  0  0  0  0  0  0  0  0  0  0
  1 14  1  0  0  0  0
  1  2  1  0  0  0  0
  2  3  2  0  0  0  0
  3  4  1  0  0  0  0
  3  8  1  0  0  0  0
  4  9  1  0  0  0  0
  4  5  2  0  0  0  0
  5  6  1  0  0  0  0
  5 12  1  0  0  0  0
  6 11  1  0  0  0  0
  6  7  2  0  0  0  0
  7 10  1  0  0  0  0
  7  2  1  0  0  0  0
 13 22  2  0  0  0  0
 14 16  1  0  0  0  0
 15 13  1  0  0  0  0
 16 19  1  0  0  0  0
 17 14  2  0  0  0  0
 18 20  1  0  0  0  0
 18 16  2  0  0  0  0
 19 21  2  0  0  0  0
 20 15  2  0  0  0  0
 21 15  1  0  0  0  0
 22 23  1  0  0  0  0
 23 24  2  0  0  0  0
 24 25  1  0  0  0  0
 25 13  1  0  0  0  0
M  END
>  <MOLFORMULA>
C16 H6 F5 N O3

>  <MOLWEIGHT>
3.552174000000000e+002

>  <code>
CC14526

>  <appearance>
Solid

>  <purity>
97%

>  <product_name>
pentafluorophenyl 4-(1,3-oxazol-5-yl)benzoate

>  <cansmi>
O=C(c1ccc(cc1)c1cnco1)Oc1c(F)c(F)c(c(c1F)F)F

>  <HBA2>
4

>  <HBD>
0

>  <logP>
4.2563

>  <TPSA>
52.33

>  <MW>
355.216

$$$$

 OpenBabel02131616352D

 24 26  0  0  0  0  0  0  0  0999 V2000
    5.9889   -6.4279    0.0000 O   0  0  0  0  0  0  0  0  0  0  0  0
    5.2706   -5.1819    0.0000 C   0  0  0  0  0  0  0  0  0  0  0  0
    5.9912   -4.7685    0.0000 C   0  0  0  0  0  0  0  0  0  0  0  0
    5.9883   -3.9338    0.0000 C   0  0  0  0  0  0  0  0  0  0  0  0
    5.2688   -3.5205    0.0000 C   0  0  0  0  0  0  0  0  0  0  0  0
    3.7680   -3.6825    0.0000 C   0  0  0  0  0  0  0  0  0  0  0  0
    3.2806   -4.3473    0.0000 C   0  0  0  0  0  0  0  0  0  0  0  0
    3.7624   -5.0204    0.0000 N   0  0  0  0  0  0  0  0  0  0  0  0
    4.5516   -4.7690    0.0000 C   0  0  0  0  0  0  0  0  0  0  0  0
    4.5551   -3.9405    0.0000 C   0  0  0  0  0  0  0  0  0  0  0  0
    5.2704   -6.0110    0.0000 C   0  0  0  0  0  0  0  0  0  0  0  0
    4.5516   -6.4275    0.0000 O   0  0  0  0  0  0  0  0  0  0  0  0
    3.5041   -5.8081    0.0000 C   0  0  0  0  0  0  0  0  0  0  0  0
    5.9872   -7.2529    0.0000 C   0  0  0  0  0  0  0  0  0  0  0  0
    5.2722   -7.6609    0.0000 C   0  0  0  0  0  0  0  0  0  0  0  0
    5.2701   -8.4851    0.0000 C   0  0  0  0  0  0  0  0  0  0  0  0
    5.9843   -8.8999    0.0000 C   0  0  0  0  0  0  0  0  0  0  0  0
    6.7020   -8.4845    0.0000 C   0  0  0  0  0  0  0  0  0  0  0  0
    6.7005   -7.6616    0.0000 C   0  0  0  0  0  0  0  0  0  0  0  0
    7.4139   -7.2473    0.0000 F   0  0  0  0  0  0  0  0  0  0  0  0
    7.4170   -8.8959    0.0000 F   0  0  0  0  0  0  0  0  0  0  0  0
    5.9836   -9.7249    0.0000 F   0  0  0  0  0  0  0  0  0  0  0  0
    4.5546   -8.8958    0.0000 F   0  0  0  0  0  0  0  0  0  0  0  0
    4.5593   -7.2457    0.0000 F   0  0  0  0  0  0  0  0  0  0  0  0
  1 14  1  0  0  0  0
  2  3  2  0  0  0  0
  2 11  1  0  0  0  0
  3  4  1  0  0  0  0
  4  5  2  0  0  0  0
  5 10  1  0  0  0  0
  6  7  2  0  0  0  0
  7  8  1  0  0  0  0
  8 13  1  0  0  0  0
  8  9  1  0  0  0  0
  9  2  1  0  0  0  0
  9 10  2  0  0  0  0
 10  6  1  0  0  0  0
 11 12  2  0  0  0  0
 11  1  1  0  0  0  0
 14 15  2  0  0  0  0
 15 16  1  0  0  0  0
 15 24  1  0  0  0  0
 16 17  2  0  0  0  0
 16 23  1  0  0  0  0
 17 18  1  0  0  0  0
 17 22  1  0  0  0  0
 18 19  2  0  0  0  0
 18 21  1  0  0  0  0
 19 14  1  0  0  0  0
 19 20  1  0  0  0  0
M  END
>  <MOLFORMULA>
C16 H8 F5 N O2

>  <MOLWEIGHT>
3.412342000000000e+002

>  <code>
CC66926

>  <appearance>
Solid

>  <purity>
97%

>  <product_name>
pentafluorophenyl 1-methyl-1H-indole-7-carboxylate

>  <cansmi>
O=C(c1cccc2c1n(C)cc2)Oc1c(F)c(F)c(c(c1F)F)F

>  <HBA2>
3

>  <HBD>
0

>  <logP>
4.093

>  <TPSA>
31.23

>  <MW>
341.232

$$$$

 OpenBabel02131616352D

 24 26  0  0  0  0  0  0  0  0999 V2000
    3.7986   -8.3291    0.0000 C   0  0  0  0  0  0  0  0  0  0  0  0
    3.7974   -9.1565    0.0000 C   0  0  0  0  0  0  0  0  0  0  0  0
    4.5122   -9.5694    0.0000 C   0  0  0  0  0  0  0  0  0  0  0  0
    4.5104   -7.9164    0.0000 C   0  0  0  0  0  0  0  0  0  0  0  0
    5.2258   -8.3255    0.0000 C   0  0  0  0  0  0  0  0  0  0  0  0
    5.2266   -9.1523    0.0000 C   0  0  0  0  0  0  0  0  0  0  0  0
    5.9419   -9.5633    0.0000 C   0  0  0  0  0  0  0  0  0  0  0  0
    6.6569   -9.1485    0.0000 N   0  0  0  0  0  0  0  0  0  0  0  0
    6.6521   -8.3186    0.0000 C   0  0  0  0  0  0  0  0  0  0  0  0
    5.9362   -7.9113    0.0000 C   0  0  0  0  0  0  0  0  0  0  0  0
    5.9319   -7.0864    0.0000 C   0  0  0  0  0  0  0  0  0  0  0  0
    6.6441   -6.6701    0.0000 O   0  0  0  0  0  0  0  0  0  0  0  0
    5.2152   -6.6776    0.0000 O   0  0  0  0  0  0  0  0  0  0  0  0
    6.6398   -5.8451    0.0000 C   0  0  0  0  0  0  0  0  0  0  0  0
    7.3562   -5.4322    0.0000 C   0  0  0  0  0  0  0  0  0  0  0  0
    7.3521   -4.6080    0.0000 C   0  0  0  0  0  0  0  0  0  0  0  0
    6.6350   -4.2015    0.0000 C   0  0  0  0  0  0  0  0  0  0  0  0
    5.9203   -4.6192    0.0000 C   0  0  0  0  0  0  0  0  0  0  0  0
    5.9279   -5.4421    0.0000 C   0  0  0  0  0  0  0  0  0  0  0  0
    8.0715   -5.8433    0.0000 F   0  0  0  0  0  0  0  0  0  0  0  0
    8.0640   -4.1909    0.0000 F   0  0  0  0  0  0  0  0  0  0  0  0
    6.6295   -3.3765    0.0000 F   0  0  0  0  0  0  0  0  0  0  0  0
    5.2029   -4.2119    0.0000 F   0  0  0  0  0  0  0  0  0  0  0  0
    5.2171   -5.8608    0.0000 F   0  0  0  0  0  0  0  0  0  0  0  0
  1  2  1  0  0  0  0
  2  3  2  0  0  0  0
  3  6  1  0  0  0  0
  4  1  2  0  0  0  0
  5  6  2  0  0  0  0
  5  4  1  0  0  0  0
  6  7  1  0  0  0  0
  7  8  2  0  0  0  0
  8  9  1  0  0  0  0
  9 10  2  0  0  0  0
 10  5  1  0  0  0  0
 10 11  1  0  0  0  0
 11 12  1  0  0  0  0
 11 13  2  0  0  0  0
 12 14  1  0  0  0  0
 14 15  2  0  0  0  0
 15 16  1  0  0  0  0
 15 20  1  0  0  0  0
 16 17  2  0  0  0  0
 16 21  1  0  0  0  0
 17 18  1  0  0  0  0
 17 22  1  0  0  0  0
 18 19  2  0  0  0  0
 18 23  1  0  0  0  0
 19 14  1  0  0  0  0
 19 24  1  0  0  0  0
M  END
>  <MOLFORMULA>
C16 H6 F5 N O2

>  <MOLWEIGHT>
3.392184000000000e+002

>  <code>
CC04926

>  <appearance>
Solid

>  <purity>
97%

>  <product_name>
pentafluorophenyl isoquinoline-4-carboxylate

>  <cansmi>
O=C(c1cncc2c1cccc2)Oc1c(F)c(F)c(c(c1F)F)F

>  <HBA2>
3

>  <HBD>
0

>  <logP>
4.1495

>  <TPSA>
39.19

>  <MW>
339.216

$$$$

 OpenBabel02131616352D

 20 21  0  0  0  0  0  0  0  0999 V2000
   -2.5208   -3.1083    0.0000 N   0  0  0  0  0  0  0  0  0  0  0  0
   -1.8515   -2.6258    0.0000 C   0  0  0  0  0  0  0  0  0  0  0  0
   -2.1083   -1.8375    0.0000 C   0  0  0  0  0  0  0  0  0  0  0  0
   -2.9333   -1.8375    0.0000 N   0  0  0  0  0  0  0  0  0  0  0  0
   -3.1901   -2.6258    0.0000 C   0  0  0  0  0  0  0  0  0  0  0  0
   -2.5208   -3.9333    0.0000 C   0  0  0  0  0  0  0  0  0  0  0  0
   -1.6237   -1.1699    0.0000 C   0  0  0  0  0  0  0  0  0  0  0  0
   -0.8032   -1.2558    0.0000 O   0  0  0  0  0  0  0  0  0  0  0  0
   -1.9595   -0.4164    0.0000 O   0  0  0  0  0  0  0  0  0  0  0  0
   -0.3185   -0.5882    0.0000 C   0  0  0  0  0  0  0  0  0  0  0  0
    0.5019   -0.6793    0.0000 C   0  0  0  0  0  0  0  0  0  0  0  0
    0.9864   -0.0125    0.0000 C   0  0  0  0  0  0  0  0  0  0  0  0
    0.6506    0.7421    0.0000 C   0  0  0  0  0  0  0  0  0  0  0  0
   -0.1745    0.8258    0.0000 C   0  0  0  0  0  0  0  0  0  0  0  0
   -0.6553    0.1580    0.0000 C   0  0  0  0  0  0  0  0  0  0  0  0
   -1.4762    0.2404    0.0000 F   0  0  0  0  0  0  0  0  0  0  0  0
   -0.5130    1.5781    0.0000 F   0  0  0  0  0  0  0  0  0  0  0  0
    1.1343    1.4103    0.0000 F   0  0  0  0  0  0  0  0  0  0  0  0
    1.8068   -0.0988    0.0000 F   0  0  0  0  0  0  0  0  0  0  0  0
    0.8352   -1.4339    0.0000 F   0  0  0  0  0  0  0  0  0  0  0  0
  1  6  1  0  0  0  0
  1  2  1  0  0  0  0
  2  3  2  0  0  0  0
  3  7  1  0  0  0  0
  3  4  1  0  0  0  0
  4  5  2  0  0  0  0
  5  1  1  0  0  0  0
  7  8  1  0  0  0  0
  7  9  2  0  0  0  0
  8 10  1  0  0  0  0
 10 11  2  0  0  0  0
 11 12  1  0  0  0  0
 11 20  1  0  0  0  0
 12 13  2  0  0  0  0
 12 19  1  0  0  0  0
 13 14  1  0  0  0  0
 13 18  1  0  0  0  0
 14 15  2  0  0  0  0
 14 17  1  0  0  0  0
 15 10  1  0  0  0  0
 15 16  1  0  0  0  0
M  END
>  <MOLFORMULA>
C11 H5 F5 N2 O2

>  <MOLWEIGHT>
2.921625000000000e+002

>  <code>
CC03626

>  <appearance>
Solid

>  <purity>
97%

>  <product_name>
pentafluorophenyl 1-methyl-1H-imidazole-4-carboxylate

>  <cansmi>
Cn1cnc(c1)C(=O)Oc1c(F)c(F)c(c(c1F)F)F

>  <HBA2>
4

>  <HBD>
0

>  <logP>
2.3348

>  <TPSA>
44.12

>  <MW>
292.162

$$$$

 OpenBabel02131616352D

 20 21  0  0  0  0  0  0  0  0999 V2000
    2.6783   -2.9191    0.0000 N   0  0  0  0  0  0  0  0  0  0  0  0
    3.3499   -2.4324    0.0000 C   0  0  0  0  0  0  0  0  0  0  0  0
    3.0931   -1.6492    0.0000 C   0  0  0  0  0  0  0  0  0  0  0  0
    2.2660   -1.6497    0.0000 C   0  0  0  0  0  0  0  0  0  0  0  0
    2.0207   -2.4311    0.0000 N   0  0  0  0  0  0  0  0  0  0  0  0
    2.6663   -3.7452    0.0000 C   0  0  0  0  0  0  0  0  0  0  0  0
    4.0998   -2.7709    0.0000 C   0  0  0  0  0  0  0  0  0  0  0  0
    4.1839   -3.5902    0.0000 O   0  0  0  0  0  0  0  0  0  0  0  0
    4.7659   -2.2860    0.0000 O   0  0  0  0  0  0  0  0  0  0  0  0
    5.5239   -2.6292    0.0000 C   0  0  0  0  0  0  0  0  0  0  0  0
    5.6082   -3.4469    0.0000 C   0  0  0  0  0  0  0  0  0  0  0  0
    6.3573   -3.7854    0.0000 C   0  0  0  0  0  0  0  0  0  0  0  0
    7.0333   -3.2926    0.0000 C   0  0  0  0  0  0  0  0  0  0  0  0
    6.9412   -2.4775    0.0000 C   0  0  0  0  0  0  0  0  0  0  0  0
    6.1879   -2.1424    0.0000 C   0  0  0  0  0  0  0  0  0  0  0  0
    6.1052   -1.3238    0.0000 F   0  0  0  0  0  0  0  0  0  0  0  0
    7.6135   -1.9950    0.0000 F   0  0  0  0  0  0  0  0  0  0  0  0
    7.7966   -3.6227    0.0000 F   0  0  0  0  0  0  0  0  0  0  0  0
    6.4282   -4.6081    0.0000 F   0  0  0  0  0  0  0  0  0  0  0  0
    4.9442   -3.9385    0.0000 F   0  0  0  0  0  0  0  0  0  0  0  0
  1  6  1  0  0  0  0
  1  2  1  0  0  0  0
  2  7  1  0  0  0  0
  2  3  2  0  0  0  0
  3  4  1  0  0  0  0
  4  5  2  0  0  0  0
  5  1  1  0  0  0  0
  7  8  2  0  0  0  0
  7  9  1  0  0  0  0
  9 10  1  0  0  0  0
 10 11  2  0  0  0  0
 11 12  1  0  0  0  0
 11 20  1  0  0  0  0
 12 13  2  0  0  0  0
 12 19  1  0  0  0  0
 13 14  1  0  0  0  0
 13 18  1  0  0  0  0
 14 15  2  0  0  0  0
 14 17  1  0  0  0  0
 15 10  1  0  0  0  0
 15 16  1  0  0  0  0
M  END
>  <MOLFORMULA>
C11 H5 F5 N2 O2

>  <MOLWEIGHT>
2.921625000000000e+002

>  <code>
CC62326

>  <appearance>
Solid

>  <purity>
97%

>  <product_name>
pentafluorophenyl 1-methyl-1H-pyrazole-5-carboxylate

>  <cansmi>
O=C(c1ccnn1C)Oc1c(F)c(F)c(c(c1F)F)F

>  <HBA2>
4

>  <HBD>
0

>  <logP>
2.3348

>  <TPSA>
44.12

>  <MW>
292.162

$$$$

 OpenBabel02131616352D

 20 21  0  0  0  0  0  0  0  0999 V2000
    5.1792   -0.5458    0.0000 C   0  0  0  0  0  0  0  0  0  0  0  0
    4.6625   -0.8500    0.0000 C   0  0  0  0  0  0  0  0  0  0  0  0
    3.6250   -0.8500    0.0000 N   0  0  0  0  0  0  0  0  0  0  0  0
    4.1417   -1.7542    0.0000 N   0  0  0  0  0  0  0  0  0  0  0  0
    5.1750    0.0542    0.0000 O   0  0  0  0  0  0  0  0  0  0  0  0
    3.6250   -1.4542    0.0000 C   0  0  0  0  0  0  0  0  0  0  0  0
    5.7000   -0.8417    0.0000 O   0  0  0  0  0  0  0  0  0  0  0  0
    4.1417   -0.5500    0.0000 C   0  0  0  0  0  0  0  0  0  0  0  0
    4.6625   -1.4542    0.0000 C   0  0  0  0  0  0  0  0  0  0  0  0
    6.2167   -0.5417    0.0000 C   0  0  0  0  0  0  0  0  0  0  0  0
    6.7345   -0.8412    0.0000 C   0  0  0  0  0  0  0  0  0  0  0  0
    7.2508   -0.5417    0.0000 C   0  0  0  0  0  0  0  0  0  0  0  0
    7.2496    0.0563    0.0000 C   0  0  0  0  0  0  0  0  0  0  0  0
    6.7279    0.3537    0.0000 C   0  0  0  0  0  0  0  0  0  0  0  0
    6.2137    0.0524    0.0000 C   0  0  0  0  0  0  0  0  0  0  0  0
    6.7348   -1.4395    0.0000 F   0  0  0  0  0  0  0  0  0  0  0  0
    7.7683   -0.8392    0.0000 F   0  0  0  0  0  0  0  0  0  0  0  0
    7.7665    0.3573    0.0000 F   0  0  0  0  0  0  0  0  0  0  0  0
    5.6959    0.3475    0.0000 F   0  0  0  0  0  0  0  0  0  0  0  0
    6.7243    0.9542    0.0000 F   0  0  0  0  0  0  0  0  0  0  0  0
  2  1  1  0  0  0  0
  3  8  1  0  0  0  0
  4  9  2  0  0  0  0
  4  6  1  0  0  0  0
  5  1  2  0  0  0  0
  6  3  2  0  0  0  0
  7 10  1  0  0  0  0
  7  1  1  0  0  0  0
  8  2  2  0  0  0  0
  9  2  1  0  0  0  0
 10 11  2  0  0  0  0
 11 12  1  0  0  0  0
 11 16  1  0  0  0  0
 12 13  2  0  0  0  0
 12 17  1  0  0  0  0
 13 14  1  0  0  0  0
 13 18  1  0  0  0  0
 14 15  2  0  0  0  0
 14 20  1  0  0  0  0
 15 10  1  0  0  0  0
 15 19  1  0  0  0  0
M  END
>  <MOLFORMULA>
C11 H3 F5 N2 O2

>  <MOLWEIGHT>
2.901467000000000e+002

>  <code>
CC07426

>  <appearance>
Solid

>  <purity>
97%

>  <product_name>
pentafluorophenyl pyrimidine-5-carboxylate

>  <cansmi>
O=C(c1cncnc1)Oc1c(F)c(F)c(c(c1F)F)F

>  <HBA2>
4

>  <HBD>
0

>  <logP>
2.3913

>  <TPSA>
52.08

>  <MW>
290.146

$$$$

 OpenBabel02131616352D

 20 21  0  0  0  0  0  0  0  0999 V2000
   10.9292   -1.1542    0.0000 C   0  0  0  0  0  0  0  0  0  0  0  0
   10.2083   -0.7417    0.0000 C   0  0  0  0  0  0  0  0  0  0  0  0
    9.5000   -1.1542    0.0000 N   0  0  0  0  0  0  0  0  0  0  0  0
   10.9292   -1.9792    0.0000 O   0  0  0  0  0  0  0  0  0  0  0  0
   11.6458   -0.7417    0.0000 O   0  0  0  0  0  0  0  0  0  0  0  0
    8.7833   -0.7417    0.0000 C   0  0  0  0  0  0  0  0  0  0  0  0
   10.2083    0.0833    0.0000 C   0  0  0  0  0  0  0  0  0  0  0  0
    8.7833    0.0833    0.0000 C   0  0  0  0  0  0  0  0  0  0  0  0
    9.5000    0.4958    0.0000 C   0  0  0  0  0  0  0  0  0  0  0  0
   12.3598   -1.1551    0.0000 C   0  0  0  0  0  0  0  0  0  0  0  0
   12.3545   -1.9802    0.0000 C   0  0  0  0  0  0  0  0  0  0  0  0
   13.0675   -2.3936    0.0000 C   0  0  0  0  0  0  0  0  0  0  0  0
   13.7835   -1.9820    0.0000 C   0  0  0  0  0  0  0  0  0  0  0  0
   13.7820   -1.1527    0.0000 C   0  0  0  0  0  0  0  0  0  0  0  0
   13.0683   -0.7431    0.0000 C   0  0  0  0  0  0  0  0  0  0  0  0
   11.6383   -2.3898    0.0000 F   0  0  0  0  0  0  0  0  0  0  0  0
   13.0660    0.0819    0.0000 F   0  0  0  0  0  0  0  0  0  0  0  0
   14.4956   -0.7387    0.0000 F   0  0  0  0  0  0  0  0  0  0  0  0
   14.4980   -2.3945    0.0000 F   0  0  0  0  0  0  0  0  0  0  0  0
   13.0660   -3.2186    0.0000 F   0  0  0  0  0  0  0  0  0  0  0  0
  2  1  1  0  0  0  0
  3  2  2  0  0  0  0
  4  1  2  0  0  0  0
  5 10  1  0  0  0  0
  5  1  1  0  0  0  0
  6  3  1  0  0  0  0
  6  8  2  0  0  0  0
  7  2  1  0  0  0  0
  8  9  1  0  0  0  0
  9  7  2  0  0  0  0
 10 11  2  0  0  0  0
 11 12  1  0  0  0  0
 11 16  1  0  0  0  0
 12 13  2  0  0  0  0
 12 20  1  0  0  0  0
 13 14  1  0  0  0  0
 13 19  1  0  0  0  0
 14 15  2  0  0  0  0
 14 18  1  0  0  0  0
 15 10  1  0  0  0  0
 15 17  1  0  0  0  0
M  END
>  <MOLFORMULA>
C12 H4 F5 N O2

>  <MOLWEIGHT>
2.891586000000000e+002

>  <code>
CC04026

>  <appearance>
Solid

>  <purity>
95%

>  <product_name>
pentafluorophenyl pyridine-2-carboxylate

>  <cansmi>
O=C(c1ccccn1)Oc1c(F)c(F)c(c(c1F)F)F

>  <HBA2>
3

>  <HBD>
0

>  <logP>
2.9963

>  <TPSA>
39.19

>  <MW>
289.158

$$$$

 OpenBabel02131616352D

 20 21  0  0  0  0  0  0  0  0999 V2000
    7.6417   -2.5542    0.0000 C   0  0  0  0  0  0  0  0  0  0  0  0
    7.1250   -2.8583    0.0000 C   0  0  0  0  0  0  0  0  0  0  0  0
    6.0875   -2.8583    0.0000 C   0  0  0  0  0  0  0  0  0  0  0  0
    6.6042   -3.7625    0.0000 N   0  0  0  0  0  0  0  0  0  0  0  0
    7.6375   -1.9542    0.0000 O   0  0  0  0  0  0  0  0  0  0  0  0
    6.0875   -3.4625    0.0000 C   0  0  0  0  0  0  0  0  0  0  0  0
    8.1625   -2.8500    0.0000 O   0  0  0  0  0  0  0  0  0  0  0  0
    6.6042   -2.5583    0.0000 C   0  0  0  0  0  0  0  0  0  0  0  0
    7.1250   -3.4625    0.0000 C   0  0  0  0  0  0  0  0  0  0  0  0
    8.6792   -2.5500    0.0000 C   0  0  0  0  0  0  0  0  0  0  0  0
    9.1970   -2.8496    0.0000 C   0  0  0  0  0  0  0  0  0  0  0  0
    9.7133   -2.5501    0.0000 C   0  0  0  0  0  0  0  0  0  0  0  0
    9.7121   -1.9520    0.0000 C   0  0  0  0  0  0  0  0  0  0  0  0
    9.1904   -1.6547    0.0000 C   0  0  0  0  0  0  0  0  0  0  0  0
    8.6762   -1.9559    0.0000 C   0  0  0  0  0  0  0  0  0  0  0  0
    9.1973   -3.4478    0.0000 F   0  0  0  0  0  0  0  0  0  0  0  0
   10.2308   -2.8475    0.0000 F   0  0  0  0  0  0  0  0  0  0  0  0
   10.2290   -1.6510    0.0000 F   0  0  0  0  0  0  0  0  0  0  0  0
    8.1584   -1.6609    0.0000 F   0  0  0  0  0  0  0  0  0  0  0  0
    9.1868   -1.0541    0.0000 F   0  0  0  0  0  0  0  0  0  0  0  0
  2  1  1  0  0  0  0
  3  8  1  0  0  0  0
  4  9  2  0  0  0  0
  4  6  1  0  0  0  0
  5  1  2  0  0  0  0
  6  3  2  0  0  0  0
  7 10  1  0  0  0  0
  7  1  1  0  0  0  0
  8  2  2  0  0  0  0
  9  2  1  0  0  0  0
 10 11  2  0  0  0  0
 11 12  1  0  0  0  0
 11 16  1  0  0  0  0
 12 13  2  0  0  0  0
 12 17  1  0  0  0  0
 13 14  1  0  0  0  0
 13 18  1  0  0  0  0
 14 15  2  0  0  0  0
 14 20  1  0  0  0  0
 15 10  1  0  0  0  0
 15 19  1  0  0  0  0
M  END
>  <MOLFORMULA>
C12 H4 F5 N O2

>  <MOLWEIGHT>
2.891586000000000e+002

>  <code>
CC04126

>  <appearance>
Solid

>  <purity>
97%

>  <product_name>
pentafluorophenyl nicotinate

>  <cansmi>
O=C(c1cccnc1)Oc1c(F)c(F)c(c(c1F)F)F

>  <HBA2>
3

>  <HBD>
0

>  <logP>
2.9963

>  <TPSA>
39.19

>  <MW>
289.158

$$$$

 OpenBabel02131616352D

 20 21  0  0  0  0  0  0  0  0999 V2000
    3.9936   -3.5307    0.0000 C   0  0  0  0  0  0  0  0  0  0  0  0
    3.3057   -3.0871    0.0000 O   0  0  0  0  0  0  0  0  0  0  0  0
    3.9221   -5.9970    0.0000 N   0  0  0  0  0  0  0  0  0  0  0  0
    3.9780   -4.3598    0.0000 C   0  0  0  0  0  0  0  0  0  0  0  0
    4.7221   -3.1370    0.0000 O   0  0  0  0  0  0  0  0  0  0  0  0
    3.2258   -5.5534    0.0000 C   0  0  0  0  0  0  0  0  0  0  0  0
    4.6423   -5.5949    0.0000 C   0  0  0  0  0  0  0  0  0  0  0  0
    4.6578   -4.7699    0.0000 C   0  0  0  0  0  0  0  0  0  0  0  0
    3.2539   -4.7244    0.0000 C   0  0  0  0  0  0  0  0  0  0  0  0
    4.7168   -2.3076    0.0000 C   0  0  0  0  0  0  0  0  0  0  0  0
    5.4346   -1.8866    0.0000 C   0  0  0  0  0  0  0  0  0  0  0  0
    5.4338   -1.0580    0.0000 C   0  0  0  0  0  0  0  0  0  0  0  0
    4.7121   -0.6463    0.0000 C   0  0  0  0  0  0  0  0  0  0  0  0
    3.9901   -1.0719    0.0000 C   0  0  0  0  0  0  0  0  0  0  0  0
    3.9978   -1.8996    0.0000 C   0  0  0  0  0  0  0  0  0  0  0  0
    3.2840   -2.3229    0.0000 F   0  0  0  0  0  0  0  0  0  0  0  0
    6.1600   -2.3033    0.0000 F   0  0  0  0  0  0  0  0  0  0  0  0
    6.1494   -0.6402    0.0000 F   0  0  0  0  0  0  0  0  0  0  0  0
    4.7019    0.1838    0.0000 F   0  0  0  0  0  0  0  0  0  0  0  0
    3.2651   -0.6611    0.0000 F   0  0  0  0  0  0  0  0  0  0  0  0
  2  1  2  0  0  0  0
  3  6  1  0  0  0  0
  4  1  1  0  0  0  0
  5 10  1  0  0  0  0
  5  1  1  0  0  0  0
  6  9  2  0  0  0  0
  7  8  1  0  0  0  0
  7  3  2  0  0  0  0
  8  4  2  0  0  0  0
  9  4  1  0  0  0  0
 10 11  2  0  0  0  0
 11 12  1  0  0  0  0
 11 17  1  0  0  0  0
 12 13  2  0  0  0  0
 12 18  1  0  0  0  0
 13 14  1  0  0  0  0
 13 19  1  0  0  0  0
 14 15  2  0  0  0  0
 14 20  1  0  0  0  0
 15 10  1  0  0  0  0
 15 16  1  0  0  0  0
M  END
>  <MOLFORMULA>
C12 H4 F5 N O2

>  <MOLWEIGHT>
2.891586000000000e+002

>  <code>
CC04226

>  <appearance>
Solid

>  <purity>
97%

>  <product_name>
pentafluorophenyl isonicotinate

>  <cansmi>
O=C(c1ccncc1)Oc1c(F)c(F)c(c(c1F)F)F

>  <HBA2>
3

>  <HBD>
0

>  <logP>
2.9963

>  <TPSA>
39.19

>  <MW>
289.158

$$$$

 OpenBabel02131616352D

 15 16  0  0  0  0  0  0  0  0999 V2000
    5.3917   -3.2750    0.0000 O   0  0  0  0  0  0  0  0  0  0  0  0
    6.0610   -2.7925    0.0000 C   0  0  0  0  0  0  0  0  0  0  0  0
    5.8042   -2.0042    0.0000 C   0  0  0  0  0  0  0  0  0  0  0  0
    4.9792   -2.0042    0.0000 N   0  0  0  0  0  0  0  0  0  0  0  0
    4.7224   -2.7925    0.0000 C   0  0  0  0  0  0  0  0  0  0  0  0
    6.3875   -1.4167    0.0000 C   0  0  0  0  0  0  0  0  0  0  0  0
    4.0042   -3.2000    0.0000 C   0  0  0  0  0  0  0  0  0  0  0  0
    3.2926   -2.7788    0.0000 C   0  0  0  0  0  0  0  0  0  0  0  0
    2.5749   -3.1856    0.0000 C   0  0  0  0  0  0  0  0  0  0  0  0
    2.5683   -4.0122    0.0000 C   0  0  0  0  0  0  0  0  0  0  0  0
    3.2853   -4.4304    0.0000 C   0  0  0  0  0  0  0  0  0  0  0  0
    4.0001   -4.0211    0.0000 C   0  0  0  0  0  0  0  0  0  0  0  0
    6.7708   -3.2042    0.0000 C   0  0  0  0  0  0  0  0  0  0  0  0
    6.7690   -4.0243    0.0000 Cl  0  0  0  0  0  0  0  0  0  0  0  0
    7.4820   -2.7948    0.0000 O   0  0  0  0  0  0  0  0  0  0  0  0
  1  2  1  0  0  0  0
  2 13  1  0  0  0  0
  2  3  2  0  0  0  0
  3  4  1  0  0  0  0
  3  6  1  0  0  0  0
  4  5  2  0  0  0  0
  5  1  1  0  0  0  0
  5  7  1  0  0  0  0
  7  8  2  0  0  0  0
  8  9  1  0  0  0  0
  9 10  2  0  0  0  0
 10 11  1  0  0  0  0
 11 12  2  0  0  0  0
 12  7  1  0  0  0  0
 13 14  1  0  0  0  0
 13 15  2  0  0  0  0
M  END
>  <MOLFORMULA>
C11 H8 Cl N O2

>  <MOLWEIGHT>
2.216422000000000e+002

>  <code>
CC18102

>  <appearance>
Solid

>  <purity>
97%

>  <product_name>
4-methyl-2-phenyl-1,3-oxazole-5-carbonyl chloride

>  <cansmi>
ClC(=O)c1oc(nc1C)c1ccccc1

>  <HBA2>
3

>  <HBD>
0

>  <logP>
3.029

>  <TPSA>
43.1

>  <MW>
221.64

$$$$

 OpenBabel02131616352D

 12 13  0  0  0  0  0  0  0  0999 V2000
    4.2890   -6.1728    0.0000 C   0  0  0  0  0  0  0  0  0  0  0  0
    4.0381   -6.9611    0.0000 C   0  0  0  0  0  0  0  0  0  0  0  0
    4.5949   -7.5706    0.0000 C   0  0  0  0  0  0  0  0  0  0  0  0
    5.0923   -5.9942    0.0000 C   0  0  0  0  0  0  0  0  0  0  0  0
    5.6507   -6.6003    0.0000 C   0  0  0  0  0  0  0  0  0  0  0  0
    5.4044   -7.3940    0.0000 C   0  0  0  0  0  0  0  0  0  0  0  0
    6.0832   -7.8736    0.0000 O   0  0  0  0  0  0  0  0  0  0  0  0
    6.7490   -7.3762    0.0000 C   0  0  0  0  0  0  0  0  0  0  0  0
    6.4817   -6.5893    0.0000 C   0  0  0  0  0  0  0  0  0  0  0  0
    6.9577   -5.9155    0.0000 C   0  0  0  0  0  0  0  0  0  0  0  0
    7.7793   -5.9909    0.0000 Cl  0  0  0  0  0  0  0  0  0  0  0  0
    6.6122   -5.1664    0.0000 O   0  0  0  0  0  0  0  0  0  0  0  0
  1  2  1  0  0  0  0
  2  3  2  0  0  0  0
  3  6  1  0  0  0  0
  4  1  2  0  0  0  0
  5  4  1  0  0  0  0
  5  6  2  0  0  0  0
  6  7  1  0  0  0  0
  7  8  1  0  0  0  0
  8  9  2  0  0  0  0
  9  5  1  0  0  0  0
  9 10  1  0  0  0  0
 10 11  1  0  0  0  0
 10 12  2  0  0  0  0
M  END
>  <MOLFORMULA>
C9 H5 Cl O2

>  <MOLWEIGHT>
1.805895000000000e+002

>  <code>
CC27502

>  <appearance>
Solid

>  <purity>
97%

>  <product_name>
benzo[b]furan-3-carbonyl chloride

>  <cansmi>
ClC(=O)c1coc2c1cccc2

>  <HBA2>
2

>  <HBD>
0

>  <logP>
2.8118

>  <TPSA>
30.21

>  <MW>
180.588

$$$$

 OpenBabel02131616352D

 13 14  0  0  0  0  0  0  0  0999 V2000
    2.0375   -1.8542    0.0000 C   0  0  0  0  0  0  0  0  0  0  0  0
    2.0375   -2.6792    0.0000 C   0  0  0  0  0  0  0  0  0  0  0  0
    2.7495   -3.0875    0.0000 O   0  0  0  0  0  0  0  0  0  0  0  0
    2.7495   -1.4375    0.0000 C   0  0  0  0  0  0  0  0  0  0  0  0
    3.4611   -1.8541    0.0000 C   0  0  0  0  0  0  0  0  0  0  0  0
    3.4580   -2.6792    0.0000 C   0  0  0  0  0  0  0  0  0  0  0  0
    4.1699   -3.0925    0.0000 C   0  0  0  0  0  0  0  0  0  0  0  0
    4.8852   -2.6819    0.0000 C   0  0  0  0  0  0  0  0  0  0  0  0
    4.8843   -1.8538    0.0000 C   0  0  0  0  0  0  0  0  0  0  0  0
    4.1718   -1.4441    0.0000 C   0  0  0  0  0  0  0  0  0  0  0  0
    5.5981   -1.4402    0.0000 C   0  0  0  0  0  0  0  0  0  0  0  0
    6.3132   -1.8516    0.0000 Cl  0  0  0  0  0  0  0  0  0  0  0  0
    5.5969   -0.6152    0.0000 O   0  0  0  0  0  0  0  0  0  0  0  0
  1  4  1  0  0  0  0
  1  2  1  0  0  0  0
  2  3  1  0  0  0  0
  3  6  1  0  0  0  0
  5  4  1  0  0  0  0
  5  6  2  0  0  0  0
  6  7  1  0  0  0  0
  7  8  2  0  0  0  0
  8  9  1  0  0  0  0
  9 10  2  0  0  0  0
  9 11  1  0  0  0  0
 10  5  1  0  0  0  0
 11 12  1  0  0  0  0
 11 13  2  0  0  0  0
M  END
>  <MOLFORMULA>
C10 H9 Cl O2

>  <MOLWEIGHT>
1.966321000000000e+002

>  <code>
CC32802

>  <appearance>
Solid

>  <purity>
95%

>  <product_name>
chroman-6-carbonyl chloride

>  <cansmi>
ClC(=O)c1ccc2c(c1)CCCO2

>  <HBA2>
2

>  <HBD>
0

>  <logP>
2.3906

>  <TPSA>
26.3

>  <MW>
196.63

$$$$

 OpenBabel02131616352D

  9  9  0  0  0  0  0  0  0  0999 V2000
    4.4000   -3.5041    0.0000 O   0  0  0  0  0  0  0  0  0  0  0  0
    5.0693   -3.0217    0.0000 C   0  0  0  0  0  0  0  0  0  0  0  0
    4.8125   -2.2334    0.0000 C   0  0  0  0  0  0  0  0  0  0  0  0
    3.9875   -2.2334    0.0000 C   0  0  0  0  0  0  0  0  0  0  0  0
    3.7307   -3.0217    0.0000 C   0  0  0  0  0  0  0  0  0  0  0  0
    5.3958   -1.6458    0.0000 Br  0  0  0  0  0  0  0  0  0  0  0  0
    5.8535   -3.2778    0.0000 C   0  0  0  0  0  0  0  0  0  0  0  0
    6.0239   -4.0850    0.0000 Cl  0  0  0  0  0  0  0  0  0  0  0  0
    6.4675   -2.7266    0.0000 O   0  0  0  0  0  0  0  0  0  0  0  0
  1  2  1  0  0  0  0
  2  7  1  0  0  0  0
  2  3  2  0  0  0  0
  3  4  1  0  0  0  0
  3  6  1  0  0  0  0
  4  5  2  0  0  0  0
  5  1  1  0  0  0  0
  7  8  1  0  0  0  0
  7  9  2  0  0  0  0
M  END
>  <MOLFORMULA>
C5 H2 Br Cl O2

>  <MOLWEIGHT>
2.094258000000000e+002

>  <code>
CC67202

>  <appearance>
Solid

>  <purity>
97%

>  <product_name>
3-bromo-2-furoyl chloride

>  <cansmi>
ClC(=O)c1occc1Br

>  <HBA2>
2

>  <HBD>
0

>  <logP>
2.4211

>  <TPSA>
30.21

>  <MW>
209.425

$$$$

 OpenBabel02131616352D

 15 16  0  0  0  0  0  0  0  0999 V2000
    4.5667   -3.2708    0.0000 C   0  0  0  0  0  0  0  0  0  0  0  0
    4.5667   -4.0958    0.0000 C   0  0  0  0  0  0  0  0  0  0  0  0
    5.2787   -4.5042    0.0000 O   0  0  0  0  0  0  0  0  0  0  0  0
    5.9907   -4.0958    0.0000 C   0  0  0  0  0  0  0  0  0  0  0  0
    5.9907   -3.2708    0.0000 C   0  0  0  0  0  0  0  0  0  0  0  0
    5.2787   -2.8542    0.0000 C   0  0  0  0  0  0  0  0  0  0  0  0
    3.1361   -1.6166    0.0000 C   0  0  0  0  0  0  0  0  0  0  0  0
    3.1349   -2.4440    0.0000 C   0  0  0  0  0  0  0  0  0  0  0  0
    3.8497   -2.8569    0.0000 C   0  0  0  0  0  0  0  0  0  0  0  0
    4.5662   -2.4435    0.0000 C   0  0  0  0  0  0  0  0  0  0  0  0
    4.5633   -1.6130    0.0000 C   0  0  0  0  0  0  0  0  0  0  0  0
    3.8479   -1.2039    0.0000 C   0  0  0  0  0  0  0  0  0  0  0  0
    5.9882   -2.4332    0.0000 C   0  0  0  0  0  0  0  0  0  0  0  0
    6.7075   -2.8373    0.0000 Cl  0  0  0  0  0  0  0  0  0  0  0  0
    5.9785   -1.6083    0.0000 O   0  0  0  0  0  0  0  0  0  0  0  0
  1  6  1  0  0  0  0
  1  2  1  0  0  0  0
  2  3  1  0  0  0  0
  3  4  1  0  0  0  0
  4  5  1  0  0  0  0
  5  6  1  0  0  0  0
  6 13  1  0  0  0  0
  7  8  2  0  0  0  0
  8  9  1  0  0  0  0
  9 10  2  0  0  0  0
 10 11  1  0  0  0  0
 10  6  1  0  0  0  0
 11 12  2  0  0  0  0
 12  7  1  0  0  0  0
 13 14  1  0  0  0  0
 13 15  2  0  0  0  0
M  END
>  <MOLFORMULA>
C12 H13 Cl O2

>  <MOLWEIGHT>
2.246857000000000e+002

>  <code>
CC69102

>  <appearance>
Solid

>  <purity>
95%

>  <product_name>
4-phenyltetrahydropyran-4-carbonyl chloride

>  <cansmi>
ClC(=O)C1(CCOCC1)c1ccccc1

>  <HBA2>
2

>  <HBD>
0

>  <logP>
2.5002

>  <TPSA>
26.3

>  <MW>
224.683

$$$$

 OpenBabel02131616352D

  8  8  0  0  0  0  0  0  0  0999 V2000
    4.6167   -4.1209    0.0000 O   0  0  0  0  0  0  0  0  0  0  0  0
    5.0459   -2.8500    0.0000 C   0  0  3  0  0  0  0  0  0  0  0  0
    5.2959   -3.6250    0.0000 C   0  0  0  0  0  0  0  0  0  0  0  0
    3.9500   -3.6542    0.0000 C   0  0  0  0  0  0  0  0  0  0  0  0
    4.2042   -2.8500    0.0000 C   0  0  0  0  0  0  0  0  0  0  0  0
    5.5315   -2.1831    0.0000 C   0  0  0  0  0  0  0  0  0  0  0  0
    6.3519   -2.2702    0.0000 Cl  0  0  0  0  0  0  0  0  0  0  0  0
    5.1967   -1.4291    0.0000 O   0  0  0  0  0  0  0  0  0  0  0  0
  2  5  1  0  0  0  0
  2  6  1  0  0  0  0
  2  3  1  0  0  0  0
  3  1  1  0  0  0  0
  4  1  1  0  0  0  0
  5  4  1  0  0  0  0
  6  7  1  0  0  0  0
  6  8  2  0  0  0  0
M  END
>  <MOLFORMULA>
C5 H7 Cl O2

>  <MOLWEIGHT>
1.345613000000000e+002

>  <code>
CC76002

>  <appearance>
Liquid

>  <purity>
97%

>  <product_name>
tetrahydrofuran-3-carbonyl chloride

>  <cansmi>
ClC(=O)C1COCC1

>  <HBA2>
2

>  <HBD>
0

>  <logP>
0.7883

>  <TPSA>
26.3

>  <MW>
134.561

$$$$

 OpenBabel02131616352D

 13 13  0  0  0  0  0  0  0  0999 V2000
    5.7961    7.1443    0.0000 C   0  0  0  0  0  0  0  0  0  0  0  0
    6.0845    6.3699    0.0000 S   0  0  0  0  0  0  0  0  0  0  0  0
    6.9094    6.4119    0.0000 C   0  0  0  0  0  0  0  0  0  0  0  0
    7.1231    7.2102    0.0000 C   0  0  0  0  0  0  0  0  0  0  0  0
    6.4293    7.6586    0.0000 N   0  0  0  0  0  0  0  0  0  0  0  0
    5.0000    7.3611    0.0000 C   0  0  0  0  0  0  0  0  0  0  0  0
    7.8955    7.5092    0.0000 C   0  0  0  0  0  0  0  0  0  0  0  0
    8.5961    7.7791    0.0000 F   0  0  0  0  0  0  0  0  0  0  0  0
    8.6440    7.0814    0.0000 F   0  0  0  0  0  0  0  0  0  0  0  0
    8.1635    8.3288    0.0000 F   0  0  0  0  0  0  0  0  0  0  0  0
    7.4287    5.7702    0.0000 C   0  0  0  0  0  0  0  0  0  0  0  0
    7.1326    5.0000    0.0000 Cl  0  0  0  0  0  0  0  0  0  0  0  0
    8.2438    5.8988    0.0000 O   0  0  0  0  0  0  0  0  0  0  0  0
  1  2  1  0  0  0  0
  1  6  1  0  0  0  0
  2  3  1  0  0  0  0
  3  4  2  0  0  0  0
  3 11  1  0  0  0  0
  4  5  1  0  0  0  0
  4  7  1  0  0  0  0
  5  1  2  0  0  0  0
  7  8  1  0  0  0  0
  7  9  1  0  0  0  0
  7 10  1  0  0  0  0
 11 12  1  0  0  0  0
 11 13  2  0  0  0  0
M  END
>  <MOLFORMULA>
C6 H3 Cl F3 N O S

>  <MOLWEIGHT>
2.296087000000000e+002

>  <code>
CC76302

>  <appearance>
Solid

>  <purity>
97%

>  <product_name>
2-methyl-4-(trifluoromethyl)-1,3-thiazole-5-carbonyl chloride

>  <cansmi>
Cc1sc(c(n1)C(F)(F)F)C(=O)Cl

>  <HBA2>
3

>  <HBD>
0

>  <logP>
2.8493

>  <TPSA>
58.2

>  <MW>
229.607

$$$$

 OpenBabel02131616352D

  9  9  0  0  0  0  0  0  0  0999 V2000
    4.5792   -3.8583    0.0000 N   0  0  0  0  0  0  0  0  0  0  0  0
    5.2485   -3.3758    0.0000 C   0  0  0  0  0  0  0  0  0  0  0  0
    4.9917   -2.5875    0.0000 C   0  0  0  0  0  0  0  0  0  0  0  0
    4.1667   -2.5875    0.0000 C   0  0  0  0  0  0  0  0  0  0  0  0
    3.9099   -3.3758    0.0000 N   0  0  0  0  0  0  0  0  0  0  0  0
    4.5792   -4.6833    0.0000 C   0  0  0  0  0  0  0  0  0  0  0  0
    5.4763   -1.9199    0.0000 C   0  0  0  0  0  0  0  0  0  0  0  0
    6.2968   -2.0058    0.0000 Cl  0  0  0  0  0  0  0  0  0  0  0  0
    5.1405   -1.1664    0.0000 O   0  0  0  0  0  0  0  0  0  0  0  0
  1  6  1  0  0  0  0
  1  2  1  0  0  0  0
  2  3  2  0  0  0  0
  3  4  1  0  0  0  0
  3  7  1  0  0  0  0
  4  5  2  0  0  0  0
  5  1  1  0  0  0  0
  7  8  1  0  0  0  0
  7  9  2  0  0  0  0
M  END
>  <MOLFORMULA>
C5 H5 Cl N2 O

>  <MOLWEIGHT>
1.445605000000000e+002

>  <code>
CC77402

>  <appearance>
Solid

>  <purity>
97%

>  <product_name>
1-methyl-1H-pyrazole-4-carbonyl chloride

>  <cansmi>
Cn1ncc(c1)C(=O)Cl

>  <HBA2>
3

>  <HBD>
0

>  <logP>
0.7991

>  <TPSA>
34.89

>  <MW>
144.559

$$$$

 OpenBabel02131616352D

 14 15  0  0  0  0  0  0  0  0999 V2000
   -3.5081   -8.4591    0.0000 N   0  0  0  0  0  0  0  0  0  0  0  0
   -2.9889   -8.1569    0.0000 C   0  0  0  0  0  0  0  0  0  0  0  0
   -2.9937   -7.5519    0.0000 C   0  0  0  0  0  0  0  0  0  0  0  0
   -3.5138   -7.2572    0.0000 C   0  0  0  0  0  0  0  0  0  0  0  0
   -2.4687   -8.4541    0.0000 Cl  0  0  0  0  0  0  0  0  0  0  0  0
   -2.4734   -7.2476    0.0000 C   0  0  0  0  0  0  0  0  0  0  0  0
   -1.9523   -7.5474    0.0000 Cl  0  0  0  0  0  0  0  0  0  0  0  0
   -4.0276   -8.1607    0.0000 C   0  0  0  0  0  0  0  0  0  0  0  0
   -4.0277   -7.5559    0.0000 C   0  0  0  0  0  0  0  0  0  0  0  0
   -4.5486   -7.2553    0.0000 C   0  0  0  0  0  0  0  0  0  0  0  0
   -5.0728   -7.5561    0.0000 C   0  0  0  0  0  0  0  0  0  0  0  0
   -5.0727   -8.1609    0.0000 C   0  0  0  0  0  0  0  0  0  0  0  0
   -4.5484   -8.4648    0.0000 C   0  0  0  0  0  0  0  0  0  0  0  0
   -2.4756   -6.6476    0.0000 O   0  0  0  0  0  0  0  0  0  0  0  0
  1  2  2  0  0  0  0
  2  3  1  0  0  0  0
  2  5  1  0  0  0  0
  3  4  2  0  0  0  0
  3  6  1  0  0  0  0
  4  9  1  0  0  0  0
  6  7  1  0  0  0  0
  6 14  2  0  0  0  0
  8  9  2  0  0  0  0
  8  1  1  0  0  0  0
  8 13  1  0  0  0  0
  9 10  1  0  0  0  0
 10 11  2  0  0  0  0
 11 12  1  0  0  0  0
 12 13  2  0  0  0  0
M  END
>  <MOLFORMULA>
C10 H5 Cl2 N O

>  <MOLWEIGHT>
2.260615000000000e+002

>  <code>
MO01102

>  <appearance>
Solid

>  <purity>
Tech

>  <product_name>
2-chloro-3-quinolinecarbonyl chloride

>  <cansmi>
ClC(=O)c1cc2ccccc2nc1Cl

>  <HBA2>
2

>  <HBD>
0

>  <logP>
3.2672

>  <TPSA>
29.96

>  <MW>
226.059

$$$$

 OpenBabel02131616352D

 13 13  0  0  0  0  0  0  0  0999 V2000
    2.9527   -4.0375    0.0000 C   0  0  0  0  0  0  0  0  0  0  0  0
    2.9516   -4.6398    0.0000 C   0  0  0  0  0  0  0  0  0  0  0  0
    3.4706   -4.9402    0.0000 C   0  0  0  0  0  0  0  0  0  0  0  0
    3.9912   -4.6394    0.0000 C   0  0  0  0  0  0  0  0  0  0  0  0
    3.9883   -4.0338    0.0000 C   0  0  0  0  0  0  0  0  0  0  0  0
    3.4688   -3.7372    0.0000 C   0  0  0  0  0  0  0  0  0  0  0  0
    4.5096   -3.7311    0.0000 C   0  0  0  0  0  0  0  0  0  0  0  0
    5.0297   -4.0284    0.0000 Cl  0  0  0  0  0  0  0  0  0  0  0  0
    4.5064   -3.1311    0.0000 O   0  0  0  0  0  0  0  0  0  0  0  0
    4.5105   -4.9382    0.0000 C   0  0  0  0  0  0  0  0  0  0  0  0
    4.5117   -5.5382    0.0000 O   0  0  0  0  0  0  0  0  0  0  0  0
    5.0326   -4.6371    0.0000 O   0  0  0  0  0  0  0  0  0  0  0  0
    3.9938   -5.8393    0.0000 C   0  0  0  0  0  0  0  0  0  0  0  0
  1  2  2  0  0  0  0
  2  3  1  0  0  0  0
  3  4  2  0  0  0  0
  4  5  1  0  0  0  0
  4 10  1  0  0  0  0
  5  7  1  0  0  0  0
  5  6  2  0  0  0  0
  6  1  1  0  0  0  0
  7  8  1  0  0  0  0
  7  9  2  0  0  0  0
 10 11  1  0  0  0  0
 10 12  2  0  0  0  0
 11 13  1  0  0  0  0
M  END
>  <MOLFORMULA>
C9 H7 Cl O3

>  <MOLWEIGHT>
1.986043000000000e+002

>  <code>
MO07817

>  <appearance>
Liquid

>  <purity>
90%

>  <product_name>
methyl 2-(chlorocarbonyl)benzoate

>  <cansmi>
COC(=O)c1ccccc1C(=O)Cl

>  <HBA2>
3

>  <HBD>
0

>  <logP>
1.8522

>  <TPSA>
43.37

>  <MW>
198.603

$$$$

 OpenBabel02131616352D

 12 12  0  0  0  0  0  0  0  0999 V2000
    5.4084   -3.9417    0.0000 N   0  0  0  0  0  0  0  0  0  0  0  0
    5.4084   -2.2917    0.0000 C   0  0  0  0  0  0  0  0  0  0  0  0
    5.4084   -1.4667    0.0000 C   0  0  0  0  0  0  0  0  0  0  0  0
    6.1208   -3.5292    0.0000 C   0  0  0  0  0  0  0  0  0  0  0  0
    4.7000   -3.5292    0.0000 C   0  0  0  0  0  0  0  0  0  0  0  0
    6.1208   -2.7000    0.0000 C   0  0  0  0  0  0  0  0  0  0  0  0
    4.7000   -2.7000    0.0000 C   0  0  0  0  0  0  0  0  0  0  0  0
    4.7000   -1.0500    0.0000 O   0  0  0  0  0  0  0  0  0  0  0  0
    6.8458   -3.9417    0.0000 Cl  0  0  0  0  0  0  0  0  0  0  0  0
    3.9833   -3.9417    0.0000 O   0  0  0  0  0  0  0  0  0  0  0  0
    3.2625   -3.5292    0.0000 C   0  0  0  0  0  0  0  0  0  0  0  0
    6.1245   -1.0571    0.0000 Cl  0  0  0  0  0  0  0  0  0  0  0  0
  2  7  2  0  0  0  0
  2  6  1  0  0  0  0
  3  2  1  0  0  0  0
  3 12  1  0  0  0  0
  4  1  1  0  0  0  0
  5  1  2  0  0  0  0
  6  4  2  0  0  0  0
  7  5  1  0  0  0  0
  8  3  2  0  0  0  0
  9  4  1  0  0  0  0
 10  5  1  0  0  0  0
 11 10  1  0  0  0  0
M  END
>  <MOLFORMULA>
C7 H5 Cl2 N O2

>  <MOLWEIGHT>
2.060275000000000e+002

>  <code>
RF03695

>  <appearance>
Liquid

>  <purity>
97%

>  <product_name>
2-chloro-6-methoxypyridine-4-carbonyl chloride

>  <cansmi>
COc1nc(Cl)cc(c1)C(=O)Cl

>  <HBA2>
3

>  <HBD>
0

>  <logP>
2.1226

>  <TPSA>
39.19

>  <MW>
206.026

$$$$

 OpenBabel02131616352D

 10 10  0  0  0  0  0  0  0  0999 V2000
    0.6667    0.0000    0.0000 C   0  0  0  0  0  0  0  0  0  0  0  0
    2.0000    0.7708    0.0000 C   0  0  0  0  0  0  0  0  0  0  0  0
   -0.6708   -2.3083    0.0000 N   0  0  0  0  0  0  0  0  0  0  0  0
   -2.0042   -1.5375    0.0000 C   0  0  0  0  0  0  0  0  0  0  0  0
    0.6667   -1.5375    0.0000 C   0  0  0  0  0  0  0  0  0  0  0  0
    2.0000    2.3125    0.0000 O   0  0  0  0  0  0  0  0  0  0  0  0
   -0.6708    0.7708    0.0000 C   0  0  0  0  0  0  0  0  0  0  0  0
    3.3333    0.0000    0.0000 Cl  0  0  0  0  0  0  0  0  0  0  0  0
   -2.0042    0.0000    0.0000 C   0  0  0  0  0  0  0  0  0  0  0  0
   -3.3375   -2.3083    0.0000 Cl  0  0  0  0  0  0  0  0  0  0  0  0
  2  1  1  0  0  0  0
  3  5  2  0  0  0  0
  4  3  1  0  0  0  0
  4  9  2  0  0  0  0
  5  1  1  0  0  0  0
  6  2  2  0  0  0  0
  7  1  2  0  0  0  0
  8  2  1  0  0  0  0
  9  7  1  0  0  0  0
 10  4  1  0  0  0  0
M  END
>  <MOLFORMULA>
C6 H3 Cl2 N O

>  <MOLWEIGHT>
1.760000000000000e+002

>  <code>
RF04491

>  <appearance>
solid

>  <purity>
97%

>  <product_name>
6-chloropyridine-3-carbonyl chloride

>  <cansmi>
Clc1ccc(cn1)C(=O)Cl

>  <HBA2>
2

>  <HBD>
0

>  <logP>
2.114

>  <TPSA>
29.96

>  <MW>
176

$$$$

 OpenBabel02131616352D

 10 10  0  0  0  0  0  0  0  0999 V2000
   -0.6208    1.9125    0.0000 C   0  0  0  0  0  0  0  0  0  0  0  0
   -0.6708    0.3583    0.0000 C   0  0  0  0  0  0  0  0  0  0  0  0
    0.6542   -1.9500    0.0000 C   0  0  0  0  0  0  0  0  0  0  0  0
   -0.6708   -2.7042    0.0000 N   0  0  0  0  0  0  0  0  0  0  0  0
    0.6542   -0.4167    0.0000 C   0  0  0  0  0  0  0  0  0  0  0  0
   -1.9125    2.7208    0.0000 O   0  0  0  0  0  0  0  0  0  0  0  0
    0.7250    2.6250    0.0000 Cl  0  0  0  0  0  0  0  0  0  0  0  0
    1.9750   -2.7125    0.0000 Cl  0  0  0  0  0  0  0  0  0  0  0  0
   -1.9833   -1.9500    0.0000 C   0  0  0  0  0  0  0  0  0  0  0  0
   -1.9833   -0.4167    0.0000 C   0  0  0  0  0  0  0  0  0  0  0  0
  2  1  1  0  0  0  0
  3  5  2  0  0  0  0
  4  9  2  0  0  0  0
  4  3  1  0  0  0  0
  5  2  1  0  0  0  0
  6  1  2  0  0  0  0
  7  1  1  0  0  0  0
  8  3  1  0  0  0  0
  9 10  1  0  0  0  0
 10  2  2  0  0  0  0
M  END
>  <MOLFORMULA>
C6 H3 Cl2 N O

>  <MOLWEIGHT>
1.760017000000000e+002

>  <code>
SPB06856

>  <appearance>
liquid

>  <purity>
95%

>  <product_name>
2-chloropyridine-4-carbonyl chloride

>  <cansmi>
Clc1nccc(c1)C(=O)Cl

>  <HBA2>
2

>  <HBD>
0

>  <logP>
2.114

>  <TPSA>
29.96

>  <MW>
176

$$$$
